#       Name:                GA Fitting Points
#       Creating user name   hitesit
#       Creation time:       Sun Apr 16 02:22:09 2023


#       Fitting Points Used by GA Software.
#

@<TRIPOS>MOLECULE
GA Fitting Points
  9763    0    0
SMALL
NO_CHARGES


@<TRIPOS>ATOM
      1 ****       -18.0000 -25.7500 -35.7500 Du        
      2 ****       -18.0000 -25.7500 -35.5000 Du        
      3 ****       -18.0000 -25.7500 -35.2500 Du        
      4 ****       -18.0000 -25.7500 -35.0000 Du        
      5 ****       -18.0000 -25.5000 -35.7500 Du        
      6 ****       -18.0000 -25.5000 -35.5000 Du        
      7 ****       -18.0000 -25.5000 -35.2500 Du        
      8 ****       -18.0000 -25.2500 -35.7500 Du        
      9 ****       -18.0000 -25.2500 -35.5000 Du        
     10 ****       -17.7500 -25.5000 -35.5000 Du        
     11 ****       -17.7500 -25.5000 -35.2500 Du        
     12 ****       -17.7500 -25.5000 -35.0000 Du        
     13 ****       -17.7500 -25.5000 -34.7500 Du        
     14 ****       -17.7500 -25.2500 -35.7500 Du        
     15 ****       -17.7500 -25.2500 -35.5000 Du        
     16 ****       -17.7500 -25.2500 -35.2500 Du        
     17 ****       -17.7500 -25.2500 -35.0000 Du        
     18 ****       -17.7500 -25.0000 -35.7500 Du        
     19 ****       -17.7500 -25.0000 -35.5000 Du        
     20 ****       -17.7500 -25.0000 -35.2500 Du        
     21 ****       -17.5000 -25.2500 -35.2500 Du        
     22 ****       -17.5000 -25.2500 -35.0000 Du        
     23 ****       -17.5000 -25.2500 -34.7500 Du        
     24 ****       -17.5000 -25.0000 -35.7500 Du        
     25 ****       -17.5000 -25.0000 -35.5000 Du        
     26 ****       -17.5000 -25.0000 -35.2500 Du        
     27 ****       -17.5000 -25.0000 -35.0000 Du        
     28 ****       -17.5000 -24.7500 -35.7500 Du        
     29 ****       -17.5000 -24.7500 -35.5000 Du        
     30 ****       -17.5000 -24.7500 -35.2500 Du        
     31 ****       -17.5000 -24.7500 -35.0000 Du        
     32 ****       -17.5000 -24.5000 -35.5000 Du        
     33 ****       -17.5000 -24.5000 -35.2500 Du        
     34 ****       -17.2500 -25.2500 -34.7500 Du        
     35 ****       -17.2500 -25.0000 -35.5000 Du        
     36 ****       -17.2500 -25.0000 -35.2500 Du        
     37 ****       -17.2500 -25.0000 -35.0000 Du        
     38 ****       -17.2500 -25.0000 -34.7500 Du        
     39 ****       -17.2500 -24.7500 -35.7500 Du        
     40 ****       -17.2500 -24.7500 -35.5000 Du        
     41 ****       -17.2500 -24.7500 -35.2500 Du        
     42 ****       -17.2500 -24.7500 -35.0000 Du        
     43 ****       -17.2500 -24.7500 -34.7500 Du        
     44 ****       -17.2500 -24.5000 -35.7500 Du        
     45 ****       -17.2500 -24.5000 -35.5000 Du        
     46 ****       -17.2500 -24.5000 -35.2500 Du        
     47 ****       -17.2500 -24.5000 -35.0000 Du        
     48 ****       -17.2500 -24.2500 -35.5000 Du        
     49 ****       -17.2500 -24.2500 -35.2500 Du        
     50 ****       -17.2500 -24.2500 -35.0000 Du        
     51 ****       -17.0000 -25.0000 -35.0000 Du        
     52 ****       -17.0000 -25.0000 -34.7500 Du        
     53 ****       -17.0000 -25.0000 -34.5000 Du        
     54 ****       -17.0000 -24.7500 -35.5000 Du        
     55 ****       -17.0000 -24.7500 -35.2500 Du        
     56 ****       -17.0000 -24.7500 -35.0000 Du        
     57 ****       -17.0000 -24.7500 -34.7500 Du        
     58 ****       -17.0000 -24.7500 -34.5000 Du        
     59 ****       -17.0000 -24.5000 -35.5000 Du        
     60 ****       -17.0000 -24.5000 -35.2500 Du        
     61 ****       -17.0000 -24.5000 -35.0000 Du        
     62 ****       -17.0000 -24.5000 -34.7500 Du        
     63 ****       -17.0000 -24.2500 -35.5000 Du        
     64 ****       -17.0000 -24.2500 -35.2500 Du        
     65 ****       -17.0000 -24.2500 -35.0000 Du        
     66 ****       -17.0000 -24.2500 -34.7500 Du        
     67 ****       -16.7500 -25.0000 -34.7500 Du        
     68 ****       -16.7500 -25.0000 -34.5000 Du        
     69 ****       -16.7500 -25.0000 -34.2500 Du        
     70 ****       -16.7500 -24.7500 -35.2500 Du        
     71 ****       -16.7500 -24.7500 -35.0000 Du        
     72 ****       -16.7500 -24.7500 -34.7500 Du        
     73 ****       -16.7500 -24.7500 -34.5000 Du        
     74 ****       -16.7500 -24.7500 -34.2500 Du        
     75 ****       -16.7500 -24.5000 -35.5000 Du        
     76 ****       -16.7500 -24.5000 -35.2500 Du        
     77 ****       -16.7500 -24.5000 -35.0000 Du        
     78 ****       -16.7500 -24.5000 -34.7500 Du        
     79 ****       -16.7500 -24.5000 -34.5000 Du        
     80 ****       -16.7500 -24.2500 -35.5000 Du        
     81 ****       -16.7500 -24.2500 -35.2500 Du        
     82 ****       -16.7500 -24.2500 -35.0000 Du        
     83 ****       -16.7500 -24.2500 -34.7500 Du        
     84 ****       -16.5000 -25.0000 -34.5000 Du        
     85 ****       -16.5000 -25.0000 -34.2500 Du        
     86 ****       -16.5000 -24.7500 -35.0000 Du        
     87 ****       -16.5000 -24.7500 -34.7500 Du        
     88 ****       -16.5000 -24.7500 -34.5000 Du        
     89 ****       -16.5000 -24.7500 -34.2500 Du        
     90 ****       -16.5000 -24.5000 -35.2500 Du        
     91 ****       -16.5000 -24.5000 -35.0000 Du        
     92 ****       -16.5000 -24.5000 -34.7500 Du        
     93 ****       -16.5000 -24.5000 -34.5000 Du        
     94 ****       -16.5000 -24.5000 -34.2500 Du        
     95 ****       -16.5000 -24.2500 -35.0000 Du        
     96 ****       -16.5000 -24.2500 -34.7500 Du        
     97 ****       -16.5000 -24.2500 -34.5000 Du        
     98 ****       -16.2500 -25.0000 -34.5000 Du        
     99 ****       -16.2500 -25.0000 -34.2500 Du        
    100 ****       -16.2500 -25.0000 -34.0000 Du        
    101 ****       -16.2500 -24.7500 -34.7500 Du        
    102 ****       -16.2500 -24.7500 -34.5000 Du        
    103 ****       -16.2500 -24.7500 -34.2500 Du        
    104 ****       -16.2500 -24.7500 -34.0000 Du        
    105 ****       -16.2500 -24.5000 -35.0000 Du        
    106 ****       -16.2500 -24.5000 -34.7500 Du        
    107 ****       -16.2500 -24.5000 -34.5000 Du        
    108 ****       -16.2500 -24.5000 -34.2500 Du        
    109 ****       -16.2500 -24.5000 -34.0000 Du        
    110 ****       -16.2500 -24.2500 -34.7500 Du        
    111 ****       -16.2500 -24.2500 -34.5000 Du        
    112 ****       -16.0000 -25.0000 -34.2500 Du        
    113 ****       -16.0000 -25.0000 -34.0000 Du        
    114 ****       -16.0000 -24.7500 -34.7500 Du        
    115 ****       -16.0000 -24.7500 -34.5000 Du        
    116 ****       -16.0000 -24.7500 -34.2500 Du        
    117 ****       -16.0000 -24.7500 -34.0000 Du        
    118 ****       -16.0000 -24.5000 -34.7500 Du        
    119 ****       -16.0000 -24.5000 -34.5000 Du        
    120 ****       -16.0000 -24.5000 -34.2500 Du        
    121 ****       -16.0000 -24.5000 -34.0000 Du        
    122 ****       -16.0000 -24.2500 -34.2500 Du        
    123 ****       -15.7500 -25.0000 -34.0000 Du        
    124 ****       -15.7500 -24.7500 -34.5000 Du        
    125 ****       -15.7500 -24.7500 -34.2500 Du        
    126 ****       -15.7500 -24.7500 -34.0000 Du        
    127 ****       -15.7500 -24.7500 -33.7500 Du        
    128 ****       -15.7500 -24.5000 -34.5000 Du        
    129 ****       -15.7500 -24.5000 -34.2500 Du        
    130 ****       -15.7500 -24.5000 -34.0000 Du        
    131 ****       -15.7500 -24.5000 -33.7500 Du        
    132 ****       -15.5000 -24.7500 -34.2500 Du        
    133 ****       -15.5000 -24.7500 -34.0000 Du        
    134 ****       -15.5000 -24.7500 -33.7500 Du        
    135 ****       -15.5000 -24.5000 -34.2500 Du        
    136 ****       -15.5000 -24.5000 -34.0000 Du        
    137 ****       -15.5000 -24.5000 -33.7500 Du        
    138 ****       -15.2500 -24.5000 -34.0000 Du        
    139 ****       -15.2500 -24.5000 -33.7500 Du        
    140 ****       -14.7500 -18.0000 -22.5000 Du        
    141 ****       -14.7500 -18.0000 -22.2500 Du        
    142 ****       -14.7500 -17.7500 -22.7500 Du        
    143 ****       -14.7500 -17.5000 -23.0000 Du        
    144 ****       -14.7500 -17.5000 -22.7500 Du        
    145 ****       -14.5000 -23.0000 -29.2500 Du        
    146 ****       -14.5000 -23.0000 -29.0000 Du        
    147 ****       -14.5000 -23.0000 -28.7500 Du        
    148 ****       -14.5000 -22.7500 -29.2500 Du        
    149 ****       -14.5000 -22.7500 -29.0000 Du        
    150 ****       -14.5000 -22.7500 -28.7500 Du        
    151 ****       -14.5000 -22.5000 -29.0000 Du        
    152 ****       -14.5000 -22.5000 -28.7500 Du        
    153 ****       -14.5000 -18.0000 -22.5000 Du        
    154 ****       -14.5000 -18.0000 -22.2500 Du        
    155 ****       -14.5000 -17.7500 -23.0000 Du        
    156 ****       -14.5000 -17.7500 -22.7500 Du        
    157 ****       -14.5000 -17.5000 -23.0000 Du        
    158 ****       -14.5000 -17.5000 -22.7500 Du        
    159 ****       -14.2500 -23.2500 -29.5000 Du        
    160 ****       -14.2500 -23.2500 -29.2500 Du        
    161 ****       -14.2500 -23.2500 -29.0000 Du        
    162 ****       -14.2500 -23.2500 -28.7500 Du        
    163 ****       -14.2500 -23.0000 -29.2500 Du        
    164 ****       -14.2500 -23.0000 -29.0000 Du        
    165 ****       -14.2500 -23.0000 -28.7500 Du        
    166 ****       -14.2500 -23.0000 -28.5000 Du        
    167 ****       -14.2500 -22.7500 -29.2500 Du        
    168 ****       -14.2500 -22.7500 -29.0000 Du        
    169 ****       -14.2500 -22.7500 -28.7500 Du        
    170 ****       -14.2500 -22.7500 -28.5000 Du        
    171 ****       -14.2500 -22.5000 -28.7500 Du        
    172 ****       -14.2500 -22.5000 -28.5000 Du        
    173 ****       -14.2500 -18.0000 -22.7500 Du        
    174 ****       -14.2500 -18.0000 -22.5000 Du        
    175 ****       -14.2500 -17.7500 -23.0000 Du        
    176 ****       -14.2500 -17.7500 -22.7500 Du        
    177 ****       -14.2500 -17.7500 -22.5000 Du        
    178 ****       -14.2500 -17.7500 -22.2500 Du        
    179 ****       -14.2500 -17.5000 -23.2500 Du        
    180 ****       -14.2500 -17.5000 -23.0000 Du        
    181 ****       -14.2500 -17.5000 -22.7500 Du        
    182 ****       -14.2500 -17.5000 -22.5000 Du        
    183 ****       -14.2500 -17.5000 -22.2500 Du        
    184 ****       -14.2500 -17.2500 -23.5000 Du        
    185 ****       -14.2500 -17.2500 -23.2500 Du        
    186 ****       -14.2500 -17.0000 -23.5000 Du        
    187 ****       -14.2500 -17.0000 -23.2500 Du        
    188 ****       -14.0000 -23.5000 -29.7500 Du        
    189 ****       -14.0000 -23.5000 -29.5000 Du        
    190 ****       -14.0000 -23.5000 -29.2500 Du        
    191 ****       -14.0000 -23.5000 -29.0000 Du        
    192 ****       -14.0000 -23.5000 -28.7500 Du        
    193 ****       -14.0000 -23.5000 -28.5000 Du        
    194 ****       -14.0000 -23.2500 -29.5000 Du        
    195 ****       -14.0000 -23.2500 -29.2500 Du        
    196 ****       -14.0000 -23.2500 -29.0000 Du        
    197 ****       -14.0000 -23.2500 -28.7500 Du        
    198 ****       -14.0000 -23.2500 -28.5000 Du        
    199 ****       -14.0000 -23.2500 -28.2500 Du        
    200 ****       -14.0000 -23.0000 -29.2500 Du        
    201 ****       -14.0000 -23.0000 -29.0000 Du        
    202 ****       -14.0000 -23.0000 -28.7500 Du        
    203 ****       -14.0000 -23.0000 -28.5000 Du        
    204 ****       -14.0000 -23.0000 -28.2500 Du        
    205 ****       -14.0000 -22.7500 -29.0000 Du        
    206 ****       -14.0000 -22.7500 -28.7500 Du        
    207 ****       -14.0000 -22.7500 -28.5000 Du        
    208 ****       -14.0000 -22.7500 -28.2500 Du        
    209 ****       -14.0000 -22.5000 -28.7500 Du        
    210 ****       -14.0000 -22.5000 -28.5000 Du        
    211 ****       -14.0000 -22.5000 -28.2500 Du        
    212 ****       -14.0000 -22.2500 -28.5000 Du        
    213 ****       -14.0000 -22.2500 -28.2500 Du        
    214 ****       -14.0000 -17.7500 -23.2500 Du        
    215 ****       -14.0000 -17.7500 -23.0000 Du        
    216 ****       -14.0000 -17.7500 -22.7500 Du        
    217 ****       -14.0000 -17.7500 -22.5000 Du        
    218 ****       -14.0000 -17.5000 -23.5000 Du        
    219 ****       -14.0000 -17.5000 -23.2500 Du        
    220 ****       -14.0000 -17.5000 -23.0000 Du        
    221 ****       -14.0000 -17.5000 -22.7500 Du        
    222 ****       -14.0000 -17.5000 -22.5000 Du        
    223 ****       -14.0000 -17.2500 -23.5000 Du        
    224 ****       -14.0000 -17.2500 -23.2500 Du        
    225 ****       -14.0000 -17.0000 -23.5000 Du        
    226 ****       -14.0000 -17.0000 -23.2500 Du        
    227 ****       -13.7500 -23.7500 -30.0000 Du        
    228 ****       -13.7500 -23.7500 -29.7500 Du        
    229 ****       -13.7500 -23.7500 -29.5000 Du        
    230 ****       -13.7500 -23.7500 -29.2500 Du        
    231 ****       -13.7500 -23.7500 -29.0000 Du        
    232 ****       -13.7500 -23.7500 -28.7500 Du        
    233 ****       -13.7500 -23.7500 -28.5000 Du        
    234 ****       -13.7500 -23.7500 -28.2500 Du        
    235 ****       -13.7500 -23.5000 -29.7500 Du        
    236 ****       -13.7500 -23.5000 -29.5000 Du        
    237 ****       -13.7500 -23.5000 -29.2500 Du        
    238 ****       -13.7500 -23.5000 -29.0000 Du        
    239 ****       -13.7500 -23.5000 -28.7500 Du        
    240 ****       -13.7500 -23.5000 -28.5000 Du        
    241 ****       -13.7500 -23.5000 -28.2500 Du        
    242 ****       -13.7500 -23.2500 -29.5000 Du        
    243 ****       -13.7500 -23.2500 -29.2500 Du        
    244 ****       -13.7500 -23.2500 -29.0000 Du        
    245 ****       -13.7500 -23.2500 -28.7500 Du        
    246 ****       -13.7500 -23.2500 -28.5000 Du        
    247 ****       -13.7500 -23.2500 -28.2500 Du        
    248 ****       -13.7500 -23.0000 -29.2500 Du        
    249 ****       -13.7500 -23.0000 -29.0000 Du        
    250 ****       -13.7500 -23.0000 -28.7500 Du        
    251 ****       -13.7500 -23.0000 -28.5000 Du        
    252 ****       -13.7500 -23.0000 -28.2500 Du        
    253 ****       -13.7500 -22.7500 -29.0000 Du        
    254 ****       -13.7500 -22.7500 -28.7500 Du        
    255 ****       -13.7500 -22.7500 -28.5000 Du        
    256 ****       -13.7500 -22.7500 -28.2500 Du        
    257 ****       -13.7500 -22.5000 -28.7500 Du        
    258 ****       -13.7500 -22.5000 -28.5000 Du        
    259 ****       -13.7500 -22.5000 -28.2500 Du        
    260 ****       -13.7500 -22.2500 -28.5000 Du        
    261 ****       -13.7500 -22.2500 -28.2500 Du        
    262 ****       -13.7500 -22.0000 -28.2500 Du        
    263 ****       -13.7500 -17.7500 -23.5000 Du        
    264 ****       -13.7500 -17.7500 -23.2500 Du        
    265 ****       -13.7500 -17.7500 -23.0000 Du        
    266 ****       -13.7500 -17.5000 -23.5000 Du        
    267 ****       -13.7500 -17.5000 -23.2500 Du        
    268 ****       -13.7500 -17.5000 -23.0000 Du        
    269 ****       -13.7500 -17.2500 -23.5000 Du        
    270 ****       -13.7500 -17.2500 -23.2500 Du        
    271 ****       -13.7500 -17.2500 -23.0000 Du        
    272 ****       -13.7500 -17.0000 -23.5000 Du        
    273 ****       -13.7500 -17.0000 -23.2500 Du        
    274 ****       -13.7500 -17.0000 -23.0000 Du        
    275 ****       -13.7500 -16.7500 -23.5000 Du        
    276 ****       -13.7500 -16.7500 -23.2500 Du        
    277 ****       -13.7500 -16.5000 -23.5000 Du        
    278 ****       -13.5000 -24.2500 -30.0000 Du        
    279 ****       -13.5000 -24.0000 -30.0000 Du        
    280 ****       -13.5000 -24.0000 -29.7500 Du        
    281 ****       -13.5000 -24.0000 -29.5000 Du        
    282 ****       -13.5000 -24.0000 -29.2500 Du        
    283 ****       -13.5000 -24.0000 -29.0000 Du        
    284 ****       -13.5000 -24.0000 -28.7500 Du        
    285 ****       -13.5000 -24.0000 -28.5000 Du        
    286 ****       -13.5000 -24.0000 -28.2500 Du        
    287 ****       -13.5000 -23.7500 -30.0000 Du        
    288 ****       -13.5000 -23.7500 -29.7500 Du        
    289 ****       -13.5000 -23.7500 -29.5000 Du        
    290 ****       -13.5000 -23.7500 -29.2500 Du        
    291 ****       -13.5000 -23.7500 -29.0000 Du        
    292 ****       -13.5000 -23.7500 -28.7500 Du        
    293 ****       -13.5000 -23.7500 -28.5000 Du        
    294 ****       -13.5000 -23.7500 -28.2500 Du        
    295 ****       -13.5000 -23.7500 -28.0000 Du        
    296 ****       -13.5000 -23.5000 -29.7500 Du        
    297 ****       -13.5000 -23.5000 -29.5000 Du        
    298 ****       -13.5000 -23.5000 -29.2500 Du        
    299 ****       -13.5000 -23.5000 -29.0000 Du        
    300 ****       -13.5000 -23.5000 -28.7500 Du        
    301 ****       -13.5000 -23.5000 -28.5000 Du        
    302 ****       -13.5000 -23.5000 -28.2500 Du        
    303 ****       -13.5000 -23.5000 -28.0000 Du        
    304 ****       -13.5000 -23.2500 -29.5000 Du        
    305 ****       -13.5000 -23.2500 -29.2500 Du        
    306 ****       -13.5000 -23.2500 -29.0000 Du        
    307 ****       -13.5000 -23.2500 -28.7500 Du        
    308 ****       -13.5000 -23.2500 -28.5000 Du        
    309 ****       -13.5000 -23.2500 -28.2500 Du        
    310 ****       -13.5000 -23.2500 -28.0000 Du        
    311 ****       -13.5000 -23.0000 -29.0000 Du        
    312 ****       -13.5000 -23.0000 -28.7500 Du        
    313 ****       -13.5000 -23.0000 -28.5000 Du        
    314 ****       -13.5000 -23.0000 -28.2500 Du        
    315 ****       -13.5000 -23.0000 -28.0000 Du        
    316 ****       -13.5000 -22.7500 -28.7500 Du        
    317 ****       -13.5000 -22.7500 -28.5000 Du        
    318 ****       -13.5000 -22.7500 -28.2500 Du        
    319 ****       -13.5000 -22.5000 -28.7500 Du        
    320 ****       -13.5000 -22.5000 -28.5000 Du        
    321 ****       -13.5000 -22.5000 -28.2500 Du        
    322 ****       -13.5000 -22.2500 -28.2500 Du        
    323 ****       -13.5000 -17.2500 -23.5000 Du        
    324 ****       -13.5000 -17.2500 -23.2500 Du        
    325 ****       -13.5000 -17.0000 -23.5000 Du        
    326 ****       -13.5000 -16.7500 -23.5000 Du        
    327 ****       -13.5000 -16.2500 -27.0000 Du        
    328 ****       -13.5000 -16.2500 -26.7500 Du        
    329 ****       -13.5000 -16.0000 -27.0000 Du        
    330 ****       -13.5000 -16.0000 -26.7500 Du        
    331 ****       -13.5000 -15.7500 -27.0000 Du        
    332 ****       -13.5000 -15.7500 -26.7500 Du        
    333 ****       -13.2500 -24.7500 -30.7500 Du        
    334 ****       -13.2500 -24.7500 -30.5000 Du        
    335 ****       -13.2500 -24.7500 -30.2500 Du        
    336 ****       -13.2500 -24.7500 -30.0000 Du        
    337 ****       -13.2500 -24.5000 -30.7500 Du        
    338 ****       -13.2500 -24.5000 -30.5000 Du        
    339 ****       -13.2500 -24.5000 -30.2500 Du        
    340 ****       -13.2500 -24.5000 -30.0000 Du        
    341 ****       -13.2500 -24.5000 -29.7500 Du        
    342 ****       -13.2500 -24.5000 -29.5000 Du        
    343 ****       -13.2500 -24.5000 -29.2500 Du        
    344 ****       -13.2500 -24.5000 -29.0000 Du        
    345 ****       -13.2500 -24.2500 -30.2500 Du        
    346 ****       -13.2500 -24.2500 -30.0000 Du        
    347 ****       -13.2500 -24.2500 -29.7500 Du        
    348 ****       -13.2500 -24.2500 -29.5000 Du        
    349 ****       -13.2500 -24.2500 -29.2500 Du        
    350 ****       -13.2500 -24.2500 -29.0000 Du        
    351 ****       -13.2500 -24.2500 -28.7500 Du        
    352 ****       -13.2500 -24.2500 -28.5000 Du        
    353 ****       -13.2500 -24.2500 -28.2500 Du        
    354 ****       -13.2500 -24.2500 -28.0000 Du        
    355 ****       -13.2500 -24.0000 -30.2500 Du        
    356 ****       -13.2500 -24.0000 -30.0000 Du        
    357 ****       -13.2500 -24.0000 -29.7500 Du        
    358 ****       -13.2500 -24.0000 -29.5000 Du        
    359 ****       -13.2500 -24.0000 -29.2500 Du        
    360 ****       -13.2500 -24.0000 -29.0000 Du        
    361 ****       -13.2500 -24.0000 -28.7500 Du        
    362 ****       -13.2500 -24.0000 -28.5000 Du        
    363 ****       -13.2500 -24.0000 -28.2500 Du        
    364 ****       -13.2500 -24.0000 -28.0000 Du        
    365 ****       -13.2500 -24.0000 -27.7500 Du        
    366 ****       -13.2500 -23.7500 -30.0000 Du        
    367 ****       -13.2500 -23.7500 -29.7500 Du        
    368 ****       -13.2500 -23.7500 -29.5000 Du        
    369 ****       -13.2500 -23.7500 -29.2500 Du        
    370 ****       -13.2500 -23.7500 -29.0000 Du        
    371 ****       -13.2500 -23.7500 -28.7500 Du        
    372 ****       -13.2500 -23.7500 -28.5000 Du        
    373 ****       -13.2500 -23.7500 -28.2500 Du        
    374 ****       -13.2500 -23.7500 -28.0000 Du        
    375 ****       -13.2500 -23.7500 -27.7500 Du        
    376 ****       -13.2500 -23.5000 -29.7500 Du        
    377 ****       -13.2500 -23.5000 -29.5000 Du        
    378 ****       -13.2500 -23.5000 -29.2500 Du        
    379 ****       -13.2500 -23.5000 -29.0000 Du        
    380 ****       -13.2500 -23.5000 -28.7500 Du        
    381 ****       -13.2500 -23.5000 -28.5000 Du        
    382 ****       -13.2500 -23.5000 -28.2500 Du        
    383 ****       -13.2500 -23.5000 -28.0000 Du        
    384 ****       -13.2500 -23.2500 -29.2500 Du        
    385 ****       -13.2500 -23.2500 -29.0000 Du        
    386 ****       -13.2500 -23.2500 -28.7500 Du        
    387 ****       -13.2500 -23.2500 -28.5000 Du        
    388 ****       -13.2500 -23.2500 -28.2500 Du        
    389 ****       -13.2500 -23.2500 -28.0000 Du        
    390 ****       -13.2500 -23.0000 -29.0000 Du        
    391 ****       -13.2500 -23.0000 -28.7500 Du        
    392 ****       -13.2500 -23.0000 -28.5000 Du        
    393 ****       -13.2500 -23.0000 -28.2500 Du        
    394 ****       -13.2500 -23.0000 -28.0000 Du        
    395 ****       -13.2500 -22.7500 -28.7500 Du        
    396 ****       -13.2500 -22.7500 -28.5000 Du        
    397 ****       -13.2500 -22.7500 -28.2500 Du        
    398 ****       -13.2500 -22.7500 -28.0000 Du        
    399 ****       -13.2500 -22.5000 -28.5000 Du        
    400 ****       -13.2500 -22.5000 -28.2500 Du        
    401 ****       -13.2500 -22.5000 -28.0000 Du        
    402 ****       -13.2500 -22.2500 -28.2500 Du        
    403 ****       -13.2500 -22.2500 -28.0000 Du        
    404 ****       -13.2500 -22.0000 -28.0000 Du        
    405 ****       -13.2500 -16.7500 -26.7500 Du        
    406 ****       -13.2500 -16.5000 -27.0000 Du        
    407 ****       -13.2500 -16.5000 -26.7500 Du        
    408 ****       -13.2500 -16.2500 -27.2500 Du        
    409 ****       -13.2500 -16.2500 -27.0000 Du        
    410 ****       -13.2500 -16.2500 -26.7500 Du        
    411 ****       -13.2500 -16.0000 -27.5000 Du        
    412 ****       -13.2500 -16.0000 -27.2500 Du        
    413 ****       -13.2500 -16.0000 -27.0000 Du        
    414 ****       -13.2500 -16.0000 -26.7500 Du        
    415 ****       -13.2500 -15.7500 -27.2500 Du        
    416 ****       -13.2500 -15.7500 -27.0000 Du        
    417 ****       -13.2500 -15.7500 -26.7500 Du        
    418 ****       -13.0000 -25.2500 -30.2500 Du        
    419 ****       -13.0000 -25.0000 -31.0000 Du        
    420 ****       -13.0000 -25.0000 -30.7500 Du        
    421 ****       -13.0000 -25.0000 -30.5000 Du        
    422 ****       -13.0000 -25.0000 -30.2500 Du        
    423 ****       -13.0000 -25.0000 -30.0000 Du        
    424 ****       -13.0000 -25.0000 -29.7500 Du        
    425 ****       -13.0000 -25.0000 -29.5000 Du        
    426 ****       -13.0000 -25.0000 -29.2500 Du        
    427 ****       -13.0000 -25.0000 -29.0000 Du        
    428 ****       -13.0000 -24.7500 -31.0000 Du        
    429 ****       -13.0000 -24.7500 -30.7500 Du        
    430 ****       -13.0000 -24.7500 -30.5000 Du        
    431 ****       -13.0000 -24.7500 -30.2500 Du        
    432 ****       -13.0000 -24.7500 -30.0000 Du        
    433 ****       -13.0000 -24.7500 -29.7500 Du        
    434 ****       -13.0000 -24.7500 -29.5000 Du        
    435 ****       -13.0000 -24.7500 -29.2500 Du        
    436 ****       -13.0000 -24.7500 -29.0000 Du        
    437 ****       -13.0000 -24.7500 -28.7500 Du        
    438 ****       -13.0000 -24.7500 -28.5000 Du        
    439 ****       -13.0000 -24.7500 -28.2500 Du        
    440 ****       -13.0000 -24.7500 -28.0000 Du        
    441 ****       -13.0000 -24.7500 -27.7500 Du        
    442 ****       -13.0000 -24.5000 -30.7500 Du        
    443 ****       -13.0000 -24.5000 -30.5000 Du        
    444 ****       -13.0000 -24.5000 -30.2500 Du        
    445 ****       -13.0000 -24.5000 -30.0000 Du        
    446 ****       -13.0000 -24.5000 -29.7500 Du        
    447 ****       -13.0000 -24.5000 -29.5000 Du        
    448 ****       -13.0000 -24.5000 -29.2500 Du        
    449 ****       -13.0000 -24.5000 -29.0000 Du        
    450 ****       -13.0000 -24.5000 -28.7500 Du        
    451 ****       -13.0000 -24.5000 -28.5000 Du        
    452 ****       -13.0000 -24.5000 -28.2500 Du        
    453 ****       -13.0000 -24.5000 -28.0000 Du        
    454 ****       -13.0000 -24.5000 -27.7500 Du        
    455 ****       -13.0000 -24.2500 -30.2500 Du        
    456 ****       -13.0000 -24.2500 -30.0000 Du        
    457 ****       -13.0000 -24.2500 -29.7500 Du        
    458 ****       -13.0000 -24.2500 -29.5000 Du        
    459 ****       -13.0000 -24.2500 -29.2500 Du        
    460 ****       -13.0000 -24.2500 -29.0000 Du        
    461 ****       -13.0000 -24.2500 -28.7500 Du        
    462 ****       -13.0000 -24.2500 -28.5000 Du        
    463 ****       -13.0000 -24.2500 -28.2500 Du        
    464 ****       -13.0000 -24.2500 -28.0000 Du        
    465 ****       -13.0000 -24.2500 -27.7500 Du        
    466 ****       -13.0000 -24.2500 -27.5000 Du        
    467 ****       -13.0000 -24.0000 -30.2500 Du        
    468 ****       -13.0000 -24.0000 -30.0000 Du        
    469 ****       -13.0000 -24.0000 -29.7500 Du        
    470 ****       -13.0000 -24.0000 -29.5000 Du        
    471 ****       -13.0000 -24.0000 -29.2500 Du        
    472 ****       -13.0000 -24.0000 -29.0000 Du        
    473 ****       -13.0000 -24.0000 -28.7500 Du        
    474 ****       -13.0000 -24.0000 -28.5000 Du        
    475 ****       -13.0000 -24.0000 -28.2500 Du        
    476 ****       -13.0000 -24.0000 -28.0000 Du        
    477 ****       -13.0000 -24.0000 -27.7500 Du        
    478 ****       -13.0000 -24.0000 -27.5000 Du        
    479 ****       -13.0000 -23.7500 -30.0000 Du        
    480 ****       -13.0000 -23.7500 -29.7500 Du        
    481 ****       -13.0000 -23.7500 -29.5000 Du        
    482 ****       -13.0000 -23.7500 -29.2500 Du        
    483 ****       -13.0000 -23.7500 -29.0000 Du        
    484 ****       -13.0000 -23.7500 -28.7500 Du        
    485 ****       -13.0000 -23.7500 -28.5000 Du        
    486 ****       -13.0000 -23.7500 -28.2500 Du        
    487 ****       -13.0000 -23.7500 -28.0000 Du        
    488 ****       -13.0000 -23.7500 -27.7500 Du        
    489 ****       -13.0000 -23.7500 -27.5000 Du        
    490 ****       -13.0000 -23.5000 -29.7500 Du        
    491 ****       -13.0000 -23.5000 -29.5000 Du        
    492 ****       -13.0000 -23.5000 -29.2500 Du        
    493 ****       -13.0000 -23.5000 -29.0000 Du        
    494 ****       -13.0000 -23.5000 -28.7500 Du        
    495 ****       -13.0000 -23.5000 -28.5000 Du        
    496 ****       -13.0000 -23.5000 -28.2500 Du        
    497 ****       -13.0000 -23.5000 -28.0000 Du        
    498 ****       -13.0000 -23.5000 -27.7500 Du        
    499 ****       -13.0000 -23.2500 -29.2500 Du        
    500 ****       -13.0000 -23.2500 -29.0000 Du        
    501 ****       -13.0000 -23.2500 -28.7500 Du        
    502 ****       -13.0000 -23.2500 -28.5000 Du        
    503 ****       -13.0000 -23.2500 -28.2500 Du        
    504 ****       -13.0000 -23.2500 -28.0000 Du        
    505 ****       -13.0000 -23.2500 -27.7500 Du        
    506 ****       -13.0000 -23.0000 -29.0000 Du        
    507 ****       -13.0000 -23.0000 -28.7500 Du        
    508 ****       -13.0000 -23.0000 -28.5000 Du        
    509 ****       -13.0000 -23.0000 -28.2500 Du        
    510 ****       -13.0000 -23.0000 -28.0000 Du        
    511 ****       -13.0000 -23.0000 -27.7500 Du        
    512 ****       -13.0000 -22.7500 -28.7500 Du        
    513 ****       -13.0000 -22.7500 -28.5000 Du        
    514 ****       -13.0000 -22.7500 -28.2500 Du        
    515 ****       -13.0000 -22.7500 -28.0000 Du        
    516 ****       -13.0000 -22.7500 -27.7500 Du        
    517 ****       -13.0000 -22.5000 -28.5000 Du        
    518 ****       -13.0000 -22.5000 -28.2500 Du        
    519 ****       -13.0000 -22.5000 -28.0000 Du        
    520 ****       -13.0000 -22.5000 -27.7500 Du        
    521 ****       -13.0000 -22.2500 -28.2500 Du        
    522 ****       -13.0000 -22.2500 -28.0000 Du        
    523 ****       -13.0000 -22.2500 -27.7500 Du        
    524 ****       -13.0000 -22.0000 -28.0000 Du        
    525 ****       -13.0000 -22.0000 -27.7500 Du        
    526 ****       -13.0000 -21.7500 -27.7500 Du        
    527 ****       -13.0000 -16.5000 -27.0000 Du        
    528 ****       -13.0000 -16.5000 -26.7500 Du        
    529 ****       -13.0000 -16.2500 -27.5000 Du        
    530 ****       -13.0000 -16.2500 -27.2500 Du        
    531 ****       -13.0000 -16.2500 -27.0000 Du        
    532 ****       -13.0000 -16.2500 -26.7500 Du        
    533 ****       -13.0000 -16.0000 -27.7500 Du        
    534 ****       -13.0000 -16.0000 -27.5000 Du        
    535 ****       -13.0000 -16.0000 -27.2500 Du        
    536 ****       -13.0000 -16.0000 -27.0000 Du        
    537 ****       -13.0000 -15.7500 -27.7500 Du        
    538 ****       -13.0000 -15.7500 -27.5000 Du        
    539 ****       -13.0000 -15.7500 -27.2500 Du        
    540 ****       -13.0000 -15.7500 -27.0000 Du        
    541 ****       -12.7500 -25.5000 -30.2500 Du        
    542 ****       -12.7500 -25.5000 -30.0000 Du        
    543 ****       -12.7500 -25.5000 -29.7500 Du        
    544 ****       -12.7500 -25.5000 -29.5000 Du        
    545 ****       -12.7500 -25.5000 -28.0000 Du        
    546 ****       -12.7500 -25.2500 -30.7500 Du        
    547 ****       -12.7500 -25.2500 -30.5000 Du        
    548 ****       -12.7500 -25.2500 -30.2500 Du        
    549 ****       -12.7500 -25.2500 -30.0000 Du        
    550 ****       -12.7500 -25.2500 -29.7500 Du        
    551 ****       -12.7500 -25.2500 -29.5000 Du        
    552 ****       -12.7500 -25.2500 -29.2500 Du        
    553 ****       -12.7500 -25.2500 -29.0000 Du        
    554 ****       -12.7500 -25.2500 -28.7500 Du        
    555 ****       -12.7500 -25.2500 -28.5000 Du        
    556 ****       -12.7500 -25.2500 -28.2500 Du        
    557 ****       -12.7500 -25.2500 -28.0000 Du        
    558 ****       -12.7500 -25.2500 -27.7500 Du        
    559 ****       -12.7500 -25.0000 -31.0000 Du        
    560 ****       -12.7500 -25.0000 -30.7500 Du        
    561 ****       -12.7500 -25.0000 -30.5000 Du        
    562 ****       -12.7500 -25.0000 -30.2500 Du        
    563 ****       -12.7500 -25.0000 -30.0000 Du        
    564 ****       -12.7500 -25.0000 -29.7500 Du        
    565 ****       -12.7500 -25.0000 -29.5000 Du        
    566 ****       -12.7500 -25.0000 -29.2500 Du        
    567 ****       -12.7500 -25.0000 -29.0000 Du        
    568 ****       -12.7500 -25.0000 -28.7500 Du        
    569 ****       -12.7500 -25.0000 -28.5000 Du        
    570 ****       -12.7500 -25.0000 -28.2500 Du        
    571 ****       -12.7500 -25.0000 -28.0000 Du        
    572 ****       -12.7500 -25.0000 -27.7500 Du        
    573 ****       -12.7500 -24.7500 -30.7500 Du        
    574 ****       -12.7500 -24.7500 -30.5000 Du        
    575 ****       -12.7500 -24.7500 -30.2500 Du        
    576 ****       -12.7500 -24.7500 -30.0000 Du        
    577 ****       -12.7500 -24.7500 -29.7500 Du        
    578 ****       -12.7500 -24.7500 -29.5000 Du        
    579 ****       -12.7500 -24.7500 -29.2500 Du        
    580 ****       -12.7500 -24.7500 -29.0000 Du        
    581 ****       -12.7500 -24.7500 -28.7500 Du        
    582 ****       -12.7500 -24.7500 -28.5000 Du        
    583 ****       -12.7500 -24.7500 -28.2500 Du        
    584 ****       -12.7500 -24.7500 -28.0000 Du        
    585 ****       -12.7500 -24.7500 -27.7500 Du        
    586 ****       -12.7500 -24.5000 -30.5000 Du        
    587 ****       -12.7500 -24.5000 -30.2500 Du        
    588 ****       -12.7500 -24.5000 -30.0000 Du        
    589 ****       -12.7500 -24.5000 -29.7500 Du        
    590 ****       -12.7500 -24.5000 -29.5000 Du        
    591 ****       -12.7500 -24.5000 -29.2500 Du        
    592 ****       -12.7500 -24.5000 -29.0000 Du        
    593 ****       -12.7500 -24.5000 -28.7500 Du        
    594 ****       -12.7500 -24.5000 -28.5000 Du        
    595 ****       -12.7500 -24.5000 -28.2500 Du        
    596 ****       -12.7500 -24.5000 -28.0000 Du        
    597 ****       -12.7500 -24.5000 -27.7500 Du        
    598 ****       -12.7500 -24.5000 -27.5000 Du        
    599 ****       -12.7500 -24.2500 -30.2500 Du        
    600 ****       -12.7500 -24.2500 -30.0000 Du        
    601 ****       -12.7500 -24.2500 -29.7500 Du        
    602 ****       -12.7500 -24.2500 -29.5000 Du        
    603 ****       -12.7500 -24.2500 -29.2500 Du        
    604 ****       -12.7500 -24.2500 -29.0000 Du        
    605 ****       -12.7500 -24.2500 -28.7500 Du        
    606 ****       -12.7500 -24.2500 -28.5000 Du        
    607 ****       -12.7500 -24.2500 -28.2500 Du        
    608 ****       -12.7500 -24.2500 -28.0000 Du        
    609 ****       -12.7500 -24.2500 -27.7500 Du        
    610 ****       -12.7500 -24.2500 -27.5000 Du        
    611 ****       -12.7500 -24.0000 -30.2500 Du        
    612 ****       -12.7500 -24.0000 -30.0000 Du        
    613 ****       -12.7500 -24.0000 -29.7500 Du        
    614 ****       -12.7500 -24.0000 -29.5000 Du        
    615 ****       -12.7500 -24.0000 -29.2500 Du        
    616 ****       -12.7500 -24.0000 -29.0000 Du        
    617 ****       -12.7500 -24.0000 -28.7500 Du        
    618 ****       -12.7500 -24.0000 -28.5000 Du        
    619 ****       -12.7500 -24.0000 -28.2500 Du        
    620 ****       -12.7500 -24.0000 -28.0000 Du        
    621 ****       -12.7500 -24.0000 -27.7500 Du        
    622 ****       -12.7500 -24.0000 -27.5000 Du        
    623 ****       -12.7500 -23.7500 -30.0000 Du        
    624 ****       -12.7500 -23.7500 -29.7500 Du        
    625 ****       -12.7500 -23.7500 -29.5000 Du        
    626 ****       -12.7500 -23.7500 -29.2500 Du        
    627 ****       -12.7500 -23.7500 -29.0000 Du        
    628 ****       -12.7500 -23.7500 -28.7500 Du        
    629 ****       -12.7500 -23.7500 -28.5000 Du        
    630 ****       -12.7500 -23.7500 -28.2500 Du        
    631 ****       -12.7500 -23.7500 -28.0000 Du        
    632 ****       -12.7500 -23.7500 -27.7500 Du        
    633 ****       -12.7500 -23.7500 -27.5000 Du        
    634 ****       -12.7500 -23.5000 -29.7500 Du        
    635 ****       -12.7500 -23.5000 -29.5000 Du        
    636 ****       -12.7500 -23.5000 -29.2500 Du        
    637 ****       -12.7500 -23.5000 -29.0000 Du        
    638 ****       -12.7500 -23.5000 -28.7500 Du        
    639 ****       -12.7500 -23.5000 -28.5000 Du        
    640 ****       -12.7500 -23.5000 -28.2500 Du        
    641 ****       -12.7500 -23.5000 -28.0000 Du        
    642 ****       -12.7500 -23.5000 -27.7500 Du        
    643 ****       -12.7500 -23.5000 -27.5000 Du        
    644 ****       -12.7500 -23.2500 -29.2500 Du        
    645 ****       -12.7500 -23.2500 -29.0000 Du        
    646 ****       -12.7500 -23.2500 -28.7500 Du        
    647 ****       -12.7500 -23.2500 -28.5000 Du        
    648 ****       -12.7500 -23.2500 -28.2500 Du        
    649 ****       -12.7500 -23.2500 -28.0000 Du        
    650 ****       -12.7500 -23.2500 -27.7500 Du        
    651 ****       -12.7500 -23.2500 -27.5000 Du        
    652 ****       -12.7500 -23.0000 -29.0000 Du        
    653 ****       -12.7500 -23.0000 -28.7500 Du        
    654 ****       -12.7500 -23.0000 -28.5000 Du        
    655 ****       -12.7500 -23.0000 -28.2500 Du        
    656 ****       -12.7500 -23.0000 -28.0000 Du        
    657 ****       -12.7500 -23.0000 -27.7500 Du        
    658 ****       -12.7500 -23.0000 -27.5000 Du        
    659 ****       -12.7500 -22.7500 -28.7500 Du        
    660 ****       -12.7500 -22.7500 -28.5000 Du        
    661 ****       -12.7500 -22.7500 -28.2500 Du        
    662 ****       -12.7500 -22.7500 -28.0000 Du        
    663 ****       -12.7500 -22.7500 -27.7500 Du        
    664 ****       -12.7500 -22.7500 -27.5000 Du        
    665 ****       -12.7500 -22.5000 -28.5000 Du        
    666 ****       -12.7500 -22.5000 -28.2500 Du        
    667 ****       -12.7500 -22.5000 -28.0000 Du        
    668 ****       -12.7500 -22.5000 -27.7500 Du        
    669 ****       -12.7500 -22.5000 -27.5000 Du        
    670 ****       -12.7500 -22.2500 -28.2500 Du        
    671 ****       -12.7500 -22.2500 -28.0000 Du        
    672 ****       -12.7500 -22.2500 -27.7500 Du        
    673 ****       -12.7500 -22.2500 -27.5000 Du        
    674 ****       -12.7500 -22.0000 -28.0000 Du        
    675 ****       -12.7500 -22.0000 -27.7500 Du        
    676 ****       -12.7500 -22.0000 -27.5000 Du        
    677 ****       -12.7500 -21.7500 -27.7500 Du        
    678 ****       -12.7500 -21.7500 -27.5000 Du        
    679 ****       -12.7500 -16.2500 -27.7500 Du        
    680 ****       -12.7500 -16.2500 -27.5000 Du        
    681 ****       -12.7500 -16.2500 -27.2500 Du        
    682 ****       -12.7500 -16.2500 -27.0000 Du        
    683 ****       -12.7500 -16.0000 -28.0000 Du        
    684 ****       -12.7500 -16.0000 -27.7500 Du        
    685 ****       -12.7500 -16.0000 -27.5000 Du        
    686 ****       -12.7500 -16.0000 -27.2500 Du        
    687 ****       -12.7500 -16.0000 -27.0000 Du        
    688 ****       -12.7500 -15.7500 -27.7500 Du        
    689 ****       -12.7500 -15.7500 -27.5000 Du        
    690 ****       -12.7500 -15.7500 -27.2500 Du        
    691 ****       -12.7500 -15.7500 -27.0000 Du        
    692 ****       -12.5000 -26.0000 -30.2500 Du        
    693 ****       -12.5000 -26.0000 -30.0000 Du        
    694 ****       -12.5000 -26.0000 -29.7500 Du        
    695 ****       -12.5000 -26.0000 -29.5000 Du        
    696 ****       -12.5000 -26.0000 -29.2500 Du        
    697 ****       -12.5000 -26.0000 -29.0000 Du        
    698 ****       -12.5000 -26.0000 -28.2500 Du        
    699 ****       -12.5000 -26.0000 -28.0000 Du        
    700 ****       -12.5000 -26.0000 -27.7500 Du        
    701 ****       -12.5000 -26.0000 -27.5000 Du        
    702 ****       -12.5000 -25.7500 -30.5000 Du        
    703 ****       -12.5000 -25.7500 -30.2500 Du        
    704 ****       -12.5000 -25.7500 -30.0000 Du        
    705 ****       -12.5000 -25.7500 -29.7500 Du        
    706 ****       -12.5000 -25.7500 -29.5000 Du        
    707 ****       -12.5000 -25.7500 -29.2500 Du        
    708 ****       -12.5000 -25.7500 -29.0000 Du        
    709 ****       -12.5000 -25.7500 -28.7500 Du        
    710 ****       -12.5000 -25.7500 -28.5000 Du        
    711 ****       -12.5000 -25.7500 -28.2500 Du        
    712 ****       -12.5000 -25.7500 -28.0000 Du        
    713 ****       -12.5000 -25.7500 -27.7500 Du        
    714 ****       -12.5000 -25.7500 -27.5000 Du        
    715 ****       -12.5000 -25.5000 -30.5000 Du        
    716 ****       -12.5000 -25.5000 -30.2500 Du        
    717 ****       -12.5000 -25.5000 -30.0000 Du        
    718 ****       -12.5000 -25.5000 -29.7500 Du        
    719 ****       -12.5000 -25.5000 -29.5000 Du        
    720 ****       -12.5000 -25.5000 -29.2500 Du        
    721 ****       -12.5000 -25.5000 -29.0000 Du        
    722 ****       -12.5000 -25.5000 -28.7500 Du        
    723 ****       -12.5000 -25.5000 -28.5000 Du        
    724 ****       -12.5000 -25.5000 -28.2500 Du        
    725 ****       -12.5000 -25.5000 -28.0000 Du        
    726 ****       -12.5000 -25.5000 -27.7500 Du        
    727 ****       -12.5000 -25.5000 -27.5000 Du        
    728 ****       -12.5000 -25.2500 -30.7500 Du        
    729 ****       -12.5000 -25.2500 -30.5000 Du        
    730 ****       -12.5000 -25.2500 -30.2500 Du        
    731 ****       -12.5000 -25.2500 -30.0000 Du        
    732 ****       -12.5000 -25.2500 -29.7500 Du        
    733 ****       -12.5000 -25.2500 -29.5000 Du        
    734 ****       -12.5000 -25.2500 -29.2500 Du        
    735 ****       -12.5000 -25.2500 -29.0000 Du        
    736 ****       -12.5000 -25.2500 -28.7500 Du        
    737 ****       -12.5000 -25.2500 -28.5000 Du        
    738 ****       -12.5000 -25.2500 -28.2500 Du        
    739 ****       -12.5000 -25.2500 -28.0000 Du        
    740 ****       -12.5000 -25.2500 -27.7500 Du        
    741 ****       -12.5000 -25.2500 -27.5000 Du        
    742 ****       -12.5000 -25.0000 -30.7500 Du        
    743 ****       -12.5000 -25.0000 -30.5000 Du        
    744 ****       -12.5000 -25.0000 -30.2500 Du        
    745 ****       -12.5000 -25.0000 -30.0000 Du        
    746 ****       -12.5000 -25.0000 -29.7500 Du        
    747 ****       -12.5000 -25.0000 -29.5000 Du        
    748 ****       -12.5000 -25.0000 -29.2500 Du        
    749 ****       -12.5000 -25.0000 -29.0000 Du        
    750 ****       -12.5000 -25.0000 -28.7500 Du        
    751 ****       -12.5000 -25.0000 -28.5000 Du        
    752 ****       -12.5000 -25.0000 -28.2500 Du        
    753 ****       -12.5000 -25.0000 -28.0000 Du        
    754 ****       -12.5000 -25.0000 -27.7500 Du        
    755 ****       -12.5000 -25.0000 -27.5000 Du        
    756 ****       -12.5000 -24.7500 -30.7500 Du        
    757 ****       -12.5000 -24.7500 -30.5000 Du        
    758 ****       -12.5000 -24.7500 -30.2500 Du        
    759 ****       -12.5000 -24.7500 -30.0000 Du        
    760 ****       -12.5000 -24.7500 -29.7500 Du        
    761 ****       -12.5000 -24.7500 -29.5000 Du        
    762 ****       -12.5000 -24.7500 -29.2500 Du        
    763 ****       -12.5000 -24.7500 -29.0000 Du        
    764 ****       -12.5000 -24.7500 -28.7500 Du        
    765 ****       -12.5000 -24.7500 -28.5000 Du        
    766 ****       -12.5000 -24.7500 -28.2500 Du        
    767 ****       -12.5000 -24.7500 -28.0000 Du        
    768 ****       -12.5000 -24.7500 -27.7500 Du        
    769 ****       -12.5000 -24.7500 -27.5000 Du        
    770 ****       -12.5000 -24.5000 -30.5000 Du        
    771 ****       -12.5000 -24.5000 -30.2500 Du        
    772 ****       -12.5000 -24.5000 -30.0000 Du        
    773 ****       -12.5000 -24.5000 -29.7500 Du        
    774 ****       -12.5000 -24.5000 -29.5000 Du        
    775 ****       -12.5000 -24.5000 -29.2500 Du        
    776 ****       -12.5000 -24.5000 -29.0000 Du        
    777 ****       -12.5000 -24.5000 -28.7500 Du        
    778 ****       -12.5000 -24.5000 -28.5000 Du        
    779 ****       -12.5000 -24.5000 -28.2500 Du        
    780 ****       -12.5000 -24.5000 -28.0000 Du        
    781 ****       -12.5000 -24.5000 -27.7500 Du        
    782 ****       -12.5000 -24.5000 -27.5000 Du        
    783 ****       -12.5000 -24.2500 -30.2500 Du        
    784 ****       -12.5000 -24.2500 -30.0000 Du        
    785 ****       -12.5000 -24.2500 -29.7500 Du        
    786 ****       -12.5000 -24.2500 -29.5000 Du        
    787 ****       -12.5000 -24.2500 -29.2500 Du        
    788 ****       -12.5000 -24.2500 -29.0000 Du        
    789 ****       -12.5000 -24.2500 -28.7500 Du        
    790 ****       -12.5000 -24.2500 -28.5000 Du        
    791 ****       -12.5000 -24.2500 -28.2500 Du        
    792 ****       -12.5000 -24.2500 -28.0000 Du        
    793 ****       -12.5000 -24.2500 -27.7500 Du        
    794 ****       -12.5000 -24.2500 -27.5000 Du        
    795 ****       -12.5000 -24.0000 -30.0000 Du        
    796 ****       -12.5000 -24.0000 -29.7500 Du        
    797 ****       -12.5000 -24.0000 -29.5000 Du        
    798 ****       -12.5000 -24.0000 -29.2500 Du        
    799 ****       -12.5000 -24.0000 -29.0000 Du        
    800 ****       -12.5000 -24.0000 -28.7500 Du        
    801 ****       -12.5000 -24.0000 -28.5000 Du        
    802 ****       -12.5000 -24.0000 -28.2500 Du        
    803 ****       -12.5000 -24.0000 -28.0000 Du        
    804 ****       -12.5000 -24.0000 -27.7500 Du        
    805 ****       -12.5000 -24.0000 -27.5000 Du        
    806 ****       -12.5000 -23.7500 -30.0000 Du        
    807 ****       -12.5000 -23.7500 -29.7500 Du        
    808 ****       -12.5000 -23.7500 -29.5000 Du        
    809 ****       -12.5000 -23.7500 -29.2500 Du        
    810 ****       -12.5000 -23.7500 -29.0000 Du        
    811 ****       -12.5000 -23.7500 -28.7500 Du        
    812 ****       -12.5000 -23.7500 -28.5000 Du        
    813 ****       -12.5000 -23.7500 -28.2500 Du        
    814 ****       -12.5000 -23.7500 -28.0000 Du        
    815 ****       -12.5000 -23.7500 -27.7500 Du        
    816 ****       -12.5000 -23.7500 -27.5000 Du        
    817 ****       -12.5000 -23.5000 -29.5000 Du        
    818 ****       -12.5000 -23.5000 -29.2500 Du        
    819 ****       -12.5000 -23.5000 -29.0000 Du        
    820 ****       -12.5000 -23.5000 -28.7500 Du        
    821 ****       -12.5000 -23.5000 -28.5000 Du        
    822 ****       -12.5000 -23.5000 -28.2500 Du        
    823 ****       -12.5000 -23.5000 -28.0000 Du        
    824 ****       -12.5000 -23.5000 -27.7500 Du        
    825 ****       -12.5000 -23.5000 -27.5000 Du        
    826 ****       -12.5000 -23.2500 -29.2500 Du        
    827 ****       -12.5000 -23.2500 -29.0000 Du        
    828 ****       -12.5000 -23.2500 -28.7500 Du        
    829 ****       -12.5000 -23.2500 -28.5000 Du        
    830 ****       -12.5000 -23.2500 -28.2500 Du        
    831 ****       -12.5000 -23.2500 -28.0000 Du        
    832 ****       -12.5000 -23.2500 -27.7500 Du        
    833 ****       -12.5000 -23.2500 -27.5000 Du        
    834 ****       -12.5000 -23.0000 -29.0000 Du        
    835 ****       -12.5000 -23.0000 -28.7500 Du        
    836 ****       -12.5000 -23.0000 -28.5000 Du        
    837 ****       -12.5000 -23.0000 -28.2500 Du        
    838 ****       -12.5000 -23.0000 -28.0000 Du        
    839 ****       -12.5000 -23.0000 -27.7500 Du        
    840 ****       -12.5000 -23.0000 -27.5000 Du        
    841 ****       -12.5000 -22.7500 -28.7500 Du        
    842 ****       -12.5000 -22.7500 -28.5000 Du        
    843 ****       -12.5000 -22.7500 -28.2500 Du        
    844 ****       -12.5000 -22.7500 -28.0000 Du        
    845 ****       -12.5000 -22.7500 -27.7500 Du        
    846 ****       -12.5000 -22.7500 -27.5000 Du        
    847 ****       -12.5000 -22.7500 -27.2500 Du        
    848 ****       -12.5000 -22.5000 -28.5000 Du        
    849 ****       -12.5000 -22.5000 -28.2500 Du        
    850 ****       -12.5000 -22.5000 -28.0000 Du        
    851 ****       -12.5000 -22.5000 -27.7500 Du        
    852 ****       -12.5000 -22.5000 -27.5000 Du        
    853 ****       -12.5000 -22.5000 -27.2500 Du        
    854 ****       -12.5000 -22.2500 -28.2500 Du        
    855 ****       -12.5000 -22.2500 -28.0000 Du        
    856 ****       -12.5000 -22.2500 -27.7500 Du        
    857 ****       -12.5000 -22.2500 -27.5000 Du        
    858 ****       -12.5000 -22.2500 -27.2500 Du        
    859 ****       -12.5000 -22.0000 -28.0000 Du        
    860 ****       -12.5000 -22.0000 -27.7500 Du        
    861 ****       -12.5000 -22.0000 -27.5000 Du        
    862 ****       -12.5000 -22.0000 -27.2500 Du        
    863 ****       -12.5000 -21.7500 -27.5000 Du        
    864 ****       -12.5000 -21.7500 -27.2500 Du        
    865 ****       -12.5000 -16.0000 -28.0000 Du        
    866 ****       -12.5000 -16.0000 -27.7500 Du        
    867 ****       -12.5000 -16.0000 -27.5000 Du        
    868 ****       -12.5000 -16.0000 -27.2500 Du        
    869 ****       -12.5000 -15.7500 -28.0000 Du        
    870 ****       -12.5000 -15.7500 -27.7500 Du        
    871 ****       -12.5000 -15.7500 -27.5000 Du        
    872 ****       -12.5000 -15.7500 -27.2500 Du        
    873 ****       -12.2500 -26.7500 -28.2500 Du        
    874 ****       -12.2500 -26.7500 -28.0000 Du        
    875 ****       -12.2500 -26.5000 -29.7500 Du        
    876 ****       -12.2500 -26.5000 -29.5000 Du        
    877 ****       -12.2500 -26.5000 -29.2500 Du        
    878 ****       -12.2500 -26.5000 -28.7500 Du        
    879 ****       -12.2500 -26.5000 -28.5000 Du        
    880 ****       -12.2500 -26.5000 -28.2500 Du        
    881 ****       -12.2500 -26.5000 -28.0000 Du        
    882 ****       -12.2500 -26.5000 -27.7500 Du        
    883 ****       -12.2500 -26.2500 -30.2500 Du        
    884 ****       -12.2500 -26.2500 -30.0000 Du        
    885 ****       -12.2500 -26.2500 -29.7500 Du        
    886 ****       -12.2500 -26.2500 -29.5000 Du        
    887 ****       -12.2500 -26.2500 -29.2500 Du        
    888 ****       -12.2500 -26.2500 -29.0000 Du        
    889 ****       -12.2500 -26.2500 -28.7500 Du        
    890 ****       -12.2500 -26.2500 -28.5000 Du        
    891 ****       -12.2500 -26.2500 -28.2500 Du        
    892 ****       -12.2500 -26.2500 -28.0000 Du        
    893 ****       -12.2500 -26.2500 -27.7500 Du        
    894 ****       -12.2500 -26.0000 -30.5000 Du        
    895 ****       -12.2500 -26.0000 -30.2500 Du        
    896 ****       -12.2500 -26.0000 -30.0000 Du        
    897 ****       -12.2500 -26.0000 -29.7500 Du        
    898 ****       -12.2500 -26.0000 -29.5000 Du        
    899 ****       -12.2500 -26.0000 -29.2500 Du        
    900 ****       -12.2500 -26.0000 -29.0000 Du        
    901 ****       -12.2500 -26.0000 -28.7500 Du        
    902 ****       -12.2500 -26.0000 -28.5000 Du        
    903 ****       -12.2500 -26.0000 -28.2500 Du        
    904 ****       -12.2500 -26.0000 -28.0000 Du        
    905 ****       -12.2500 -26.0000 -27.7500 Du        
    906 ****       -12.2500 -25.7500 -30.5000 Du        
    907 ****       -12.2500 -25.7500 -30.2500 Du        
    908 ****       -12.2500 -25.7500 -30.0000 Du        
    909 ****       -12.2500 -25.7500 -29.7500 Du        
    910 ****       -12.2500 -25.7500 -29.5000 Du        
    911 ****       -12.2500 -25.7500 -29.2500 Du        
    912 ****       -12.2500 -25.7500 -29.0000 Du        
    913 ****       -12.2500 -25.7500 -28.7500 Du        
    914 ****       -12.2500 -25.7500 -28.5000 Du        
    915 ****       -12.2500 -25.7500 -28.2500 Du        
    916 ****       -12.2500 -25.7500 -28.0000 Du        
    917 ****       -12.2500 -25.7500 -27.7500 Du        
    918 ****       -12.2500 -25.7500 -27.5000 Du        
    919 ****       -12.2500 -25.5000 -30.7500 Du        
    920 ****       -12.2500 -25.5000 -30.5000 Du        
    921 ****       -12.2500 -25.5000 -30.2500 Du        
    922 ****       -12.2500 -25.5000 -30.0000 Du        
    923 ****       -12.2500 -25.5000 -29.7500 Du        
    924 ****       -12.2500 -25.5000 -29.5000 Du        
    925 ****       -12.2500 -25.5000 -29.2500 Du        
    926 ****       -12.2500 -25.5000 -29.0000 Du        
    927 ****       -12.2500 -25.5000 -28.7500 Du        
    928 ****       -12.2500 -25.5000 -28.5000 Du        
    929 ****       -12.2500 -25.5000 -28.2500 Du        
    930 ****       -12.2500 -25.5000 -28.0000 Du        
    931 ****       -12.2500 -25.5000 -27.7500 Du        
    932 ****       -12.2500 -25.5000 -27.5000 Du        
    933 ****       -12.2500 -25.2500 -30.7500 Du        
    934 ****       -12.2500 -25.2500 -30.5000 Du        
    935 ****       -12.2500 -25.2500 -30.2500 Du        
    936 ****       -12.2500 -25.2500 -30.0000 Du        
    937 ****       -12.2500 -25.2500 -29.7500 Du        
    938 ****       -12.2500 -25.2500 -29.5000 Du        
    939 ****       -12.2500 -25.2500 -29.2500 Du        
    940 ****       -12.2500 -25.2500 -29.0000 Du        
    941 ****       -12.2500 -25.2500 -28.7500 Du        
    942 ****       -12.2500 -25.2500 -28.5000 Du        
    943 ****       -12.2500 -25.2500 -28.2500 Du        
    944 ****       -12.2500 -25.2500 -28.0000 Du        
    945 ****       -12.2500 -25.2500 -27.7500 Du        
    946 ****       -12.2500 -25.2500 -27.5000 Du        
    947 ****       -12.2500 -25.0000 -30.7500 Du        
    948 ****       -12.2500 -25.0000 -30.5000 Du        
    949 ****       -12.2500 -25.0000 -30.2500 Du        
    950 ****       -12.2500 -25.0000 -30.0000 Du        
    951 ****       -12.2500 -25.0000 -29.7500 Du        
    952 ****       -12.2500 -25.0000 -29.5000 Du        
    953 ****       -12.2500 -25.0000 -29.2500 Du        
    954 ****       -12.2500 -25.0000 -29.0000 Du        
    955 ****       -12.2500 -25.0000 -28.7500 Du        
    956 ****       -12.2500 -25.0000 -28.5000 Du        
    957 ****       -12.2500 -25.0000 -28.2500 Du        
    958 ****       -12.2500 -25.0000 -28.0000 Du        
    959 ****       -12.2500 -25.0000 -27.7500 Du        
    960 ****       -12.2500 -24.7500 -30.5000 Du        
    961 ****       -12.2500 -24.7500 -30.2500 Du        
    962 ****       -12.2500 -24.7500 -30.0000 Du        
    963 ****       -12.2500 -24.7500 -29.7500 Du        
    964 ****       -12.2500 -24.7500 -29.5000 Du        
    965 ****       -12.2500 -24.7500 -29.2500 Du        
    966 ****       -12.2500 -24.7500 -29.0000 Du        
    967 ****       -12.2500 -24.7500 -28.7500 Du        
    968 ****       -12.2500 -24.7500 -28.5000 Du        
    969 ****       -12.2500 -24.7500 -28.2500 Du        
    970 ****       -12.2500 -24.7500 -28.0000 Du        
    971 ****       -12.2500 -24.7500 -27.7500 Du        
    972 ****       -12.2500 -24.5000 -30.5000 Du        
    973 ****       -12.2500 -24.5000 -30.2500 Du        
    974 ****       -12.2500 -24.5000 -30.0000 Du        
    975 ****       -12.2500 -24.5000 -29.7500 Du        
    976 ****       -12.2500 -24.5000 -29.5000 Du        
    977 ****       -12.2500 -24.5000 -29.2500 Du        
    978 ****       -12.2500 -24.5000 -29.0000 Du        
    979 ****       -12.2500 -24.5000 -28.7500 Du        
    980 ****       -12.2500 -24.5000 -28.5000 Du        
    981 ****       -12.2500 -24.5000 -28.2500 Du        
    982 ****       -12.2500 -24.5000 -28.0000 Du        
    983 ****       -12.2500 -24.5000 -27.7500 Du        
    984 ****       -12.2500 -24.2500 -30.2500 Du        
    985 ****       -12.2500 -24.2500 -30.0000 Du        
    986 ****       -12.2500 -24.2500 -29.7500 Du        
    987 ****       -12.2500 -24.2500 -29.5000 Du        
    988 ****       -12.2500 -24.2500 -29.2500 Du        
    989 ****       -12.2500 -24.2500 -29.0000 Du        
    990 ****       -12.2500 -24.2500 -28.7500 Du        
    991 ****       -12.2500 -24.2500 -28.5000 Du        
    992 ****       -12.2500 -24.2500 -28.2500 Du        
    993 ****       -12.2500 -24.2500 -28.0000 Du        
    994 ****       -12.2500 -24.2500 -27.7500 Du        
    995 ****       -12.2500 -24.0000 -30.0000 Du        
    996 ****       -12.2500 -24.0000 -29.7500 Du        
    997 ****       -12.2500 -24.0000 -29.5000 Du        
    998 ****       -12.2500 -24.0000 -29.2500 Du        
    999 ****       -12.2500 -24.0000 -29.0000 Du        
   1000 ****       -12.2500 -24.0000 -28.7500 Du        
   1001 ****       -12.2500 -24.0000 -28.5000 Du        
   1002 ****       -12.2500 -24.0000 -28.2500 Du        
   1003 ****       -12.2500 -24.0000 -28.0000 Du        
   1004 ****       -12.2500 -24.0000 -27.7500 Du        
   1005 ****       -12.2500 -24.0000 -27.5000 Du        
   1006 ****       -12.2500 -23.7500 -30.0000 Du        
   1007 ****       -12.2500 -23.7500 -29.7500 Du        
   1008 ****       -12.2500 -23.7500 -29.5000 Du        
   1009 ****       -12.2500 -23.7500 -29.2500 Du        
   1010 ****       -12.2500 -23.7500 -29.0000 Du        
   1011 ****       -12.2500 -23.7500 -28.7500 Du        
   1012 ****       -12.2500 -23.7500 -28.5000 Du        
   1013 ****       -12.2500 -23.7500 -28.2500 Du        
   1014 ****       -12.2500 -23.7500 -28.0000 Du        
   1015 ****       -12.2500 -23.7500 -27.7500 Du        
   1016 ****       -12.2500 -23.7500 -27.5000 Du        
   1017 ****       -12.2500 -23.5000 -29.7500 Du        
   1018 ****       -12.2500 -23.5000 -29.5000 Du        
   1019 ****       -12.2500 -23.5000 -29.2500 Du        
   1020 ****       -12.2500 -23.5000 -29.0000 Du        
   1021 ****       -12.2500 -23.5000 -28.7500 Du        
   1022 ****       -12.2500 -23.5000 -28.5000 Du        
   1023 ****       -12.2500 -23.5000 -28.2500 Du        
   1024 ****       -12.2500 -23.5000 -28.0000 Du        
   1025 ****       -12.2500 -23.5000 -27.7500 Du        
   1026 ****       -12.2500 -23.5000 -27.5000 Du        
   1027 ****       -12.2500 -23.2500 -29.5000 Du        
   1028 ****       -12.2500 -23.2500 -29.2500 Du        
   1029 ****       -12.2500 -23.2500 -29.0000 Du        
   1030 ****       -12.2500 -23.2500 -28.7500 Du        
   1031 ****       -12.2500 -23.2500 -28.5000 Du        
   1032 ****       -12.2500 -23.2500 -28.2500 Du        
   1033 ****       -12.2500 -23.2500 -28.0000 Du        
   1034 ****       -12.2500 -23.2500 -27.7500 Du        
   1035 ****       -12.2500 -23.2500 -27.5000 Du        
   1036 ****       -12.2500 -23.0000 -29.0000 Du        
   1037 ****       -12.2500 -23.0000 -28.7500 Du        
   1038 ****       -12.2500 -23.0000 -28.5000 Du        
   1039 ****       -12.2500 -23.0000 -28.2500 Du        
   1040 ****       -12.2500 -23.0000 -28.0000 Du        
   1041 ****       -12.2500 -23.0000 -27.7500 Du        
   1042 ****       -12.2500 -23.0000 -27.5000 Du        
   1043 ****       -12.2500 -23.0000 -27.2500 Du        
   1044 ****       -12.2500 -22.7500 -28.7500 Du        
   1045 ****       -12.2500 -22.7500 -28.5000 Du        
   1046 ****       -12.2500 -22.7500 -28.2500 Du        
   1047 ****       -12.2500 -22.7500 -28.0000 Du        
   1048 ****       -12.2500 -22.7500 -27.7500 Du        
   1049 ****       -12.2500 -22.7500 -27.5000 Du        
   1050 ****       -12.2500 -22.7500 -27.2500 Du        
   1051 ****       -12.2500 -22.5000 -28.5000 Du        
   1052 ****       -12.2500 -22.5000 -28.2500 Du        
   1053 ****       -12.2500 -22.5000 -28.0000 Du        
   1054 ****       -12.2500 -22.5000 -27.7500 Du        
   1055 ****       -12.2500 -22.5000 -27.5000 Du        
   1056 ****       -12.2500 -22.5000 -27.2500 Du        
   1057 ****       -12.2500 -22.2500 -28.2500 Du        
   1058 ****       -12.2500 -22.2500 -28.0000 Du        
   1059 ****       -12.2500 -22.2500 -27.7500 Du        
   1060 ****       -12.2500 -22.2500 -27.5000 Du        
   1061 ****       -12.2500 -22.2500 -27.2500 Du        
   1062 ****       -12.2500 -22.2500 -27.0000 Du        
   1063 ****       -12.2500 -22.0000 -28.0000 Du        
   1064 ****       -12.2500 -22.0000 -27.7500 Du        
   1065 ****       -12.2500 -22.0000 -27.5000 Du        
   1066 ****       -12.2500 -22.0000 -27.2500 Du        
   1067 ****       -12.2500 -22.0000 -27.0000 Du        
   1068 ****       -12.2500 -21.7500 -27.5000 Du        
   1069 ****       -12.2500 -21.7500 -27.2500 Du        
   1070 ****       -12.2500 -21.7500 -27.0000 Du        
   1071 ****       -12.2500 -16.0000 -28.0000 Du        
   1072 ****       -12.2500 -16.0000 -27.7500 Du        
   1073 ****       -12.2500 -15.7500 -28.2500 Du        
   1074 ****       -12.2500 -15.7500 -28.0000 Du        
   1075 ****       -12.2500 -15.7500 -27.7500 Du        
   1076 ****       -12.2500 -15.7500 -27.5000 Du        
   1077 ****       -12.2500 -15.5000 -27.7500 Du        
   1078 ****       -12.0000 -27.0000 -29.5000 Du        
   1079 ****       -12.0000 -27.0000 -29.2500 Du        
   1080 ****       -12.0000 -27.0000 -29.0000 Du        
   1081 ****       -12.0000 -27.0000 -28.7500 Du        
   1082 ****       -12.0000 -27.0000 -28.5000 Du        
   1083 ****       -12.0000 -27.0000 -28.2500 Du        
   1084 ****       -12.0000 -27.0000 -28.0000 Du        
   1085 ****       -12.0000 -26.7500 -30.2500 Du        
   1086 ****       -12.0000 -26.7500 -30.0000 Du        
   1087 ****       -12.0000 -26.7500 -29.7500 Du        
   1088 ****       -12.0000 -26.7500 -29.5000 Du        
   1089 ****       -12.0000 -26.7500 -29.2500 Du        
   1090 ****       -12.0000 -26.7500 -29.0000 Du        
   1091 ****       -12.0000 -26.7500 -28.7500 Du        
   1092 ****       -12.0000 -26.7500 -28.5000 Du        
   1093 ****       -12.0000 -26.7500 -28.2500 Du        
   1094 ****       -12.0000 -26.7500 -28.0000 Du        
   1095 ****       -12.0000 -26.5000 -30.2500 Du        
   1096 ****       -12.0000 -26.5000 -30.0000 Du        
   1097 ****       -12.0000 -26.5000 -29.7500 Du        
   1098 ****       -12.0000 -26.5000 -29.5000 Du        
   1099 ****       -12.0000 -26.5000 -29.2500 Du        
   1100 ****       -12.0000 -26.5000 -29.0000 Du        
   1101 ****       -12.0000 -26.5000 -28.7500 Du        
   1102 ****       -12.0000 -26.5000 -28.5000 Du        
   1103 ****       -12.0000 -26.5000 -28.2500 Du        
   1104 ****       -12.0000 -26.5000 -28.0000 Du        
   1105 ****       -12.0000 -26.2500 -30.5000 Du        
   1106 ****       -12.0000 -26.2500 -30.2500 Du        
   1107 ****       -12.0000 -26.2500 -30.0000 Du        
   1108 ****       -12.0000 -26.2500 -29.7500 Du        
   1109 ****       -12.0000 -26.2500 -29.5000 Du        
   1110 ****       -12.0000 -26.2500 -29.2500 Du        
   1111 ****       -12.0000 -26.2500 -29.0000 Du        
   1112 ****       -12.0000 -26.2500 -28.7500 Du        
   1113 ****       -12.0000 -26.2500 -28.5000 Du        
   1114 ****       -12.0000 -26.2500 -28.2500 Du        
   1115 ****       -12.0000 -26.2500 -28.0000 Du        
   1116 ****       -12.0000 -26.2500 -27.7500 Du        
   1117 ****       -12.0000 -26.0000 -30.5000 Du        
   1118 ****       -12.0000 -26.0000 -30.2500 Du        
   1119 ****       -12.0000 -26.0000 -30.0000 Du        
   1120 ****       -12.0000 -26.0000 -29.7500 Du        
   1121 ****       -12.0000 -26.0000 -29.5000 Du        
   1122 ****       -12.0000 -26.0000 -29.2500 Du        
   1123 ****       -12.0000 -26.0000 -29.0000 Du        
   1124 ****       -12.0000 -26.0000 -28.7500 Du        
   1125 ****       -12.0000 -26.0000 -28.5000 Du        
   1126 ****       -12.0000 -26.0000 -28.2500 Du        
   1127 ****       -12.0000 -26.0000 -28.0000 Du        
   1128 ****       -12.0000 -26.0000 -27.7500 Du        
   1129 ****       -12.0000 -25.7500 -30.7500 Du        
   1130 ****       -12.0000 -25.7500 -30.5000 Du        
   1131 ****       -12.0000 -25.7500 -30.2500 Du        
   1132 ****       -12.0000 -25.7500 -30.0000 Du        
   1133 ****       -12.0000 -25.7500 -29.7500 Du        
   1134 ****       -12.0000 -25.7500 -29.5000 Du        
   1135 ****       -12.0000 -25.7500 -29.2500 Du        
   1136 ****       -12.0000 -25.7500 -29.0000 Du        
   1137 ****       -12.0000 -25.7500 -28.7500 Du        
   1138 ****       -12.0000 -25.7500 -28.5000 Du        
   1139 ****       -12.0000 -25.7500 -28.2500 Du        
   1140 ****       -12.0000 -25.7500 -28.0000 Du        
   1141 ****       -12.0000 -25.7500 -27.7500 Du        
   1142 ****       -12.0000 -25.5000 -30.7500 Du        
   1143 ****       -12.0000 -25.5000 -30.5000 Du        
   1144 ****       -12.0000 -25.5000 -30.2500 Du        
   1145 ****       -12.0000 -25.5000 -30.0000 Du        
   1146 ****       -12.0000 -25.5000 -29.7500 Du        
   1147 ****       -12.0000 -25.5000 -29.5000 Du        
   1148 ****       -12.0000 -25.5000 -29.2500 Du        
   1149 ****       -12.0000 -25.5000 -29.0000 Du        
   1150 ****       -12.0000 -25.5000 -28.7500 Du        
   1151 ****       -12.0000 -25.5000 -28.5000 Du        
   1152 ****       -12.0000 -25.5000 -28.2500 Du        
   1153 ****       -12.0000 -25.5000 -28.0000 Du        
   1154 ****       -12.0000 -25.5000 -27.7500 Du        
   1155 ****       -12.0000 -25.2500 -30.7500 Du        
   1156 ****       -12.0000 -25.2500 -30.5000 Du        
   1157 ****       -12.0000 -25.2500 -30.2500 Du        
   1158 ****       -12.0000 -25.2500 -30.0000 Du        
   1159 ****       -12.0000 -25.2500 -29.7500 Du        
   1160 ****       -12.0000 -25.2500 -29.5000 Du        
   1161 ****       -12.0000 -25.2500 -29.2500 Du        
   1162 ****       -12.0000 -25.2500 -29.0000 Du        
   1163 ****       -12.0000 -25.2500 -28.7500 Du        
   1164 ****       -12.0000 -25.2500 -28.5000 Du        
   1165 ****       -12.0000 -25.2500 -28.2500 Du        
   1166 ****       -12.0000 -25.2500 -28.0000 Du        
   1167 ****       -12.0000 -25.2500 -27.7500 Du        
   1168 ****       -12.0000 -25.0000 -30.5000 Du        
   1169 ****       -12.0000 -25.0000 -30.2500 Du        
   1170 ****       -12.0000 -25.0000 -30.0000 Du        
   1171 ****       -12.0000 -25.0000 -29.7500 Du        
   1172 ****       -12.0000 -25.0000 -29.5000 Du        
   1173 ****       -12.0000 -25.0000 -29.2500 Du        
   1174 ****       -12.0000 -25.0000 -29.0000 Du        
   1175 ****       -12.0000 -25.0000 -28.7500 Du        
   1176 ****       -12.0000 -25.0000 -28.5000 Du        
   1177 ****       -12.0000 -25.0000 -28.2500 Du        
   1178 ****       -12.0000 -25.0000 -28.0000 Du        
   1179 ****       -12.0000 -25.0000 -27.7500 Du        
   1180 ****       -12.0000 -24.7500 -30.5000 Du        
   1181 ****       -12.0000 -24.7500 -30.2500 Du        
   1182 ****       -12.0000 -24.7500 -30.0000 Du        
   1183 ****       -12.0000 -24.7500 -29.7500 Du        
   1184 ****       -12.0000 -24.7500 -29.5000 Du        
   1185 ****       -12.0000 -24.7500 -29.2500 Du        
   1186 ****       -12.0000 -24.7500 -29.0000 Du        
   1187 ****       -12.0000 -24.7500 -28.7500 Du        
   1188 ****       -12.0000 -24.7500 -28.5000 Du        
   1189 ****       -12.0000 -24.7500 -28.2500 Du        
   1190 ****       -12.0000 -24.7500 -28.0000 Du        
   1191 ****       -12.0000 -24.7500 -27.7500 Du        
   1192 ****       -12.0000 -24.5000 -30.2500 Du        
   1193 ****       -12.0000 -24.5000 -30.0000 Du        
   1194 ****       -12.0000 -24.5000 -29.7500 Du        
   1195 ****       -12.0000 -24.5000 -29.5000 Du        
   1196 ****       -12.0000 -24.5000 -29.2500 Du        
   1197 ****       -12.0000 -24.5000 -29.0000 Du        
   1198 ****       -12.0000 -24.5000 -28.7500 Du        
   1199 ****       -12.0000 -24.5000 -28.5000 Du        
   1200 ****       -12.0000 -24.5000 -28.2500 Du        
   1201 ****       -12.0000 -24.5000 -28.0000 Du        
   1202 ****       -12.0000 -24.5000 -27.7500 Du        
   1203 ****       -12.0000 -24.2500 -30.2500 Du        
   1204 ****       -12.0000 -24.2500 -30.0000 Du        
   1205 ****       -12.0000 -24.2500 -29.7500 Du        
   1206 ****       -12.0000 -24.2500 -29.5000 Du        
   1207 ****       -12.0000 -24.2500 -29.2500 Du        
   1208 ****       -12.0000 -24.2500 -29.0000 Du        
   1209 ****       -12.0000 -24.2500 -28.7500 Du        
   1210 ****       -12.0000 -24.2500 -28.5000 Du        
   1211 ****       -12.0000 -24.2500 -28.2500 Du        
   1212 ****       -12.0000 -24.2500 -28.0000 Du        
   1213 ****       -12.0000 -24.2500 -27.7500 Du        
   1214 ****       -12.0000 -24.0000 -30.0000 Du        
   1215 ****       -12.0000 -24.0000 -29.7500 Du        
   1216 ****       -12.0000 -24.0000 -29.5000 Du        
   1217 ****       -12.0000 -24.0000 -29.2500 Du        
   1218 ****       -12.0000 -24.0000 -29.0000 Du        
   1219 ****       -12.0000 -24.0000 -28.7500 Du        
   1220 ****       -12.0000 -24.0000 -28.5000 Du        
   1221 ****       -12.0000 -24.0000 -28.2500 Du        
   1222 ****       -12.0000 -24.0000 -28.0000 Du        
   1223 ****       -12.0000 -24.0000 -27.7500 Du        
   1224 ****       -12.0000 -23.7500 -30.0000 Du        
   1225 ****       -12.0000 -23.7500 -29.7500 Du        
   1226 ****       -12.0000 -23.7500 -29.5000 Du        
   1227 ****       -12.0000 -23.7500 -29.2500 Du        
   1228 ****       -12.0000 -23.7500 -29.0000 Du        
   1229 ****       -12.0000 -23.7500 -28.7500 Du        
   1230 ****       -12.0000 -23.7500 -28.5000 Du        
   1231 ****       -12.0000 -23.7500 -28.2500 Du        
   1232 ****       -12.0000 -23.7500 -28.0000 Du        
   1233 ****       -12.0000 -23.7500 -27.7500 Du        
   1234 ****       -12.0000 -23.5000 -29.7500 Du        
   1235 ****       -12.0000 -23.5000 -29.5000 Du        
   1236 ****       -12.0000 -23.5000 -29.2500 Du        
   1237 ****       -12.0000 -23.5000 -29.0000 Du        
   1238 ****       -12.0000 -23.5000 -28.7500 Du        
   1239 ****       -12.0000 -23.5000 -28.5000 Du        
   1240 ****       -12.0000 -23.5000 -28.2500 Du        
   1241 ****       -12.0000 -23.5000 -28.0000 Du        
   1242 ****       -12.0000 -23.5000 -27.7500 Du        
   1243 ****       -12.0000 -23.2500 -29.5000 Du        
   1244 ****       -12.0000 -23.2500 -29.2500 Du        
   1245 ****       -12.0000 -23.2500 -29.0000 Du        
   1246 ****       -12.0000 -23.2500 -28.7500 Du        
   1247 ****       -12.0000 -23.2500 -28.5000 Du        
   1248 ****       -12.0000 -23.2500 -28.2500 Du        
   1249 ****       -12.0000 -23.2500 -28.0000 Du        
   1250 ****       -12.0000 -23.2500 -27.7500 Du        
   1251 ****       -12.0000 -23.2500 -27.5000 Du        
   1252 ****       -12.0000 -23.0000 -29.2500 Du        
   1253 ****       -12.0000 -23.0000 -29.0000 Du        
   1254 ****       -12.0000 -23.0000 -28.7500 Du        
   1255 ****       -12.0000 -23.0000 -28.5000 Du        
   1256 ****       -12.0000 -23.0000 -28.2500 Du        
   1257 ****       -12.0000 -23.0000 -28.0000 Du        
   1258 ****       -12.0000 -23.0000 -27.7500 Du        
   1259 ****       -12.0000 -23.0000 -27.5000 Du        
   1260 ****       -12.0000 -22.7500 -28.7500 Du        
   1261 ****       -12.0000 -22.7500 -28.5000 Du        
   1262 ****       -12.0000 -22.7500 -28.2500 Du        
   1263 ****       -12.0000 -22.7500 -28.0000 Du        
   1264 ****       -12.0000 -22.7500 -27.7500 Du        
   1265 ****       -12.0000 -22.7500 -27.5000 Du        
   1266 ****       -12.0000 -22.7500 -27.2500 Du        
   1267 ****       -12.0000 -22.5000 -28.5000 Du        
   1268 ****       -12.0000 -22.5000 -28.2500 Du        
   1269 ****       -12.0000 -22.5000 -28.0000 Du        
   1270 ****       -12.0000 -22.5000 -27.7500 Du        
   1271 ****       -12.0000 -22.5000 -27.5000 Du        
   1272 ****       -12.0000 -22.5000 -27.2500 Du        
   1273 ****       -12.0000 -22.2500 -28.2500 Du        
   1274 ****       -12.0000 -22.2500 -28.0000 Du        
   1275 ****       -12.0000 -22.2500 -27.7500 Du        
   1276 ****       -12.0000 -22.2500 -27.5000 Du        
   1277 ****       -12.0000 -22.2500 -27.2500 Du        
   1278 ****       -12.0000 -22.2500 -27.0000 Du        
   1279 ****       -12.0000 -22.0000 -27.7500 Du        
   1280 ****       -12.0000 -22.0000 -27.5000 Du        
   1281 ****       -12.0000 -22.0000 -27.2500 Du        
   1282 ****       -12.0000 -22.0000 -27.0000 Du        
   1283 ****       -12.0000 -22.0000 -26.7500 Du        
   1284 ****       -12.0000 -21.7500 -27.2500 Du        
   1285 ****       -12.0000 -21.7500 -27.0000 Du        
   1286 ****       -12.0000 -21.7500 -26.7500 Du        
   1287 ****       -12.0000 -16.0000 -28.0000 Du        
   1288 ****       -12.0000 -16.0000 -27.7500 Du        
   1289 ****       -12.0000 -15.7500 -28.2500 Du        
   1290 ****       -12.0000 -15.7500 -28.0000 Du        
   1291 ****       -12.0000 -15.7500 -27.7500 Du        
   1292 ****       -12.0000 -15.5000 -28.0000 Du        
   1293 ****       -12.0000 -15.5000 -27.7500 Du        
   1294 ****       -12.0000 -15.2500 -27.7500 Du        
   1295 ****       -11.7500 -27.2500 -30.2500 Du        
   1296 ****       -11.7500 -27.2500 -30.0000 Du        
   1297 ****       -11.7500 -27.2500 -29.7500 Du        
   1298 ****       -11.7500 -27.2500 -29.5000 Du        
   1299 ****       -11.7500 -27.2500 -29.2500 Du        
   1300 ****       -11.7500 -27.2500 -29.0000 Du        
   1301 ****       -11.7500 -27.2500 -28.7500 Du        
   1302 ****       -11.7500 -27.2500 -28.5000 Du        
   1303 ****       -11.7500 -27.0000 -30.2500 Du        
   1304 ****       -11.7500 -27.0000 -30.0000 Du        
   1305 ****       -11.7500 -27.0000 -29.7500 Du        
   1306 ****       -11.7500 -27.0000 -29.5000 Du        
   1307 ****       -11.7500 -27.0000 -29.2500 Du        
   1308 ****       -11.7500 -27.0000 -29.0000 Du        
   1309 ****       -11.7500 -27.0000 -28.7500 Du        
   1310 ****       -11.7500 -27.0000 -28.5000 Du        
   1311 ****       -11.7500 -27.0000 -28.2500 Du        
   1312 ****       -11.7500 -26.7500 -30.5000 Du        
   1313 ****       -11.7500 -26.7500 -30.2500 Du        
   1314 ****       -11.7500 -26.7500 -30.0000 Du        
   1315 ****       -11.7500 -26.7500 -29.7500 Du        
   1316 ****       -11.7500 -26.7500 -29.5000 Du        
   1317 ****       -11.7500 -26.7500 -29.2500 Du        
   1318 ****       -11.7500 -26.7500 -29.0000 Du        
   1319 ****       -11.7500 -26.7500 -28.7500 Du        
   1320 ****       -11.7500 -26.7500 -28.5000 Du        
   1321 ****       -11.7500 -26.7500 -28.2500 Du        
   1322 ****       -11.7500 -26.7500 -28.0000 Du        
   1323 ****       -11.7500 -26.5000 -30.5000 Du        
   1324 ****       -11.7500 -26.5000 -30.2500 Du        
   1325 ****       -11.7500 -26.5000 -30.0000 Du        
   1326 ****       -11.7500 -26.5000 -29.7500 Du        
   1327 ****       -11.7500 -26.5000 -29.5000 Du        
   1328 ****       -11.7500 -26.5000 -29.2500 Du        
   1329 ****       -11.7500 -26.5000 -29.0000 Du        
   1330 ****       -11.7500 -26.5000 -28.7500 Du        
   1331 ****       -11.7500 -26.5000 -28.5000 Du        
   1332 ****       -11.7500 -26.5000 -28.2500 Du        
   1333 ****       -11.7500 -26.5000 -28.0000 Du        
   1334 ****       -11.7500 -26.2500 -30.5000 Du        
   1335 ****       -11.7500 -26.2500 -30.2500 Du        
   1336 ****       -11.7500 -26.2500 -30.0000 Du        
   1337 ****       -11.7500 -26.2500 -29.7500 Du        
   1338 ****       -11.7500 -26.2500 -29.5000 Du        
   1339 ****       -11.7500 -26.2500 -29.2500 Du        
   1340 ****       -11.7500 -26.2500 -29.0000 Du        
   1341 ****       -11.7500 -26.2500 -28.7500 Du        
   1342 ****       -11.7500 -26.2500 -28.5000 Du        
   1343 ****       -11.7500 -26.2500 -28.2500 Du        
   1344 ****       -11.7500 -26.2500 -28.0000 Du        
   1345 ****       -11.7500 -26.0000 -30.7500 Du        
   1346 ****       -11.7500 -26.0000 -30.5000 Du        
   1347 ****       -11.7500 -26.0000 -30.2500 Du        
   1348 ****       -11.7500 -26.0000 -30.0000 Du        
   1349 ****       -11.7500 -26.0000 -29.7500 Du        
   1350 ****       -11.7500 -26.0000 -29.5000 Du        
   1351 ****       -11.7500 -26.0000 -29.2500 Du        
   1352 ****       -11.7500 -26.0000 -29.0000 Du        
   1353 ****       -11.7500 -26.0000 -28.7500 Du        
   1354 ****       -11.7500 -26.0000 -28.5000 Du        
   1355 ****       -11.7500 -26.0000 -28.2500 Du        
   1356 ****       -11.7500 -26.0000 -28.0000 Du        
   1357 ****       -11.7500 -25.7500 -30.7500 Du        
   1358 ****       -11.7500 -25.7500 -30.5000 Du        
   1359 ****       -11.7500 -25.7500 -30.2500 Du        
   1360 ****       -11.7500 -25.7500 -30.0000 Du        
   1361 ****       -11.7500 -25.7500 -29.7500 Du        
   1362 ****       -11.7500 -25.7500 -29.5000 Du        
   1363 ****       -11.7500 -25.7500 -29.2500 Du        
   1364 ****       -11.7500 -25.7500 -29.0000 Du        
   1365 ****       -11.7500 -25.7500 -28.7500 Du        
   1366 ****       -11.7500 -25.7500 -28.5000 Du        
   1367 ****       -11.7500 -25.7500 -28.2500 Du        
   1368 ****       -11.7500 -25.7500 -28.0000 Du        
   1369 ****       -11.7500 -25.5000 -30.7500 Du        
   1370 ****       -11.7500 -25.5000 -30.5000 Du        
   1371 ****       -11.7500 -25.5000 -30.2500 Du        
   1372 ****       -11.7500 -25.5000 -30.0000 Du        
   1373 ****       -11.7500 -25.5000 -29.7500 Du        
   1374 ****       -11.7500 -25.5000 -29.5000 Du        
   1375 ****       -11.7500 -25.5000 -29.2500 Du        
   1376 ****       -11.7500 -25.5000 -29.0000 Du        
   1377 ****       -11.7500 -25.5000 -28.7500 Du        
   1378 ****       -11.7500 -25.5000 -28.5000 Du        
   1379 ****       -11.7500 -25.5000 -28.2500 Du        
   1380 ****       -11.7500 -25.5000 -28.0000 Du        
   1381 ****       -11.7500 -25.2500 -30.5000 Du        
   1382 ****       -11.7500 -25.2500 -30.2500 Du        
   1383 ****       -11.7500 -25.2500 -30.0000 Du        
   1384 ****       -11.7500 -25.2500 -29.7500 Du        
   1385 ****       -11.7500 -25.2500 -29.5000 Du        
   1386 ****       -11.7500 -25.2500 -29.2500 Du        
   1387 ****       -11.7500 -25.2500 -29.0000 Du        
   1388 ****       -11.7500 -25.2500 -28.7500 Du        
   1389 ****       -11.7500 -25.2500 -28.5000 Du        
   1390 ****       -11.7500 -25.2500 -28.2500 Du        
   1391 ****       -11.7500 -25.2500 -28.0000 Du        
   1392 ****       -11.7500 -25.0000 -30.5000 Du        
   1393 ****       -11.7500 -25.0000 -30.2500 Du        
   1394 ****       -11.7500 -25.0000 -30.0000 Du        
   1395 ****       -11.7500 -25.0000 -29.7500 Du        
   1396 ****       -11.7500 -25.0000 -29.5000 Du        
   1397 ****       -11.7500 -25.0000 -29.2500 Du        
   1398 ****       -11.7500 -25.0000 -29.0000 Du        
   1399 ****       -11.7500 -25.0000 -28.7500 Du        
   1400 ****       -11.7500 -25.0000 -28.5000 Du        
   1401 ****       -11.7500 -25.0000 -28.2500 Du        
   1402 ****       -11.7500 -25.0000 -28.0000 Du        
   1403 ****       -11.7500 -24.7500 -30.2500 Du        
   1404 ****       -11.7500 -24.7500 -30.0000 Du        
   1405 ****       -11.7500 -24.7500 -29.7500 Du        
   1406 ****       -11.7500 -24.7500 -29.5000 Du        
   1407 ****       -11.7500 -24.7500 -29.2500 Du        
   1408 ****       -11.7500 -24.7500 -29.0000 Du        
   1409 ****       -11.7500 -24.7500 -28.7500 Du        
   1410 ****       -11.7500 -24.7500 -28.5000 Du        
   1411 ****       -11.7500 -24.7500 -28.2500 Du        
   1412 ****       -11.7500 -24.7500 -28.0000 Du        
   1413 ****       -11.7500 -24.5000 -30.2500 Du        
   1414 ****       -11.7500 -24.5000 -30.0000 Du        
   1415 ****       -11.7500 -24.5000 -29.7500 Du        
   1416 ****       -11.7500 -24.5000 -29.5000 Du        
   1417 ****       -11.7500 -24.5000 -29.2500 Du        
   1418 ****       -11.7500 -24.5000 -29.0000 Du        
   1419 ****       -11.7500 -24.5000 -28.7500 Du        
   1420 ****       -11.7500 -24.5000 -28.5000 Du        
   1421 ****       -11.7500 -24.5000 -28.2500 Du        
   1422 ****       -11.7500 -24.5000 -28.0000 Du        
   1423 ****       -11.7500 -24.2500 -30.0000 Du        
   1424 ****       -11.7500 -24.2500 -29.7500 Du        
   1425 ****       -11.7500 -24.2500 -29.5000 Du        
   1426 ****       -11.7500 -24.2500 -29.2500 Du        
   1427 ****       -11.7500 -24.2500 -29.0000 Du        
   1428 ****       -11.7500 -24.2500 -28.7500 Du        
   1429 ****       -11.7500 -24.2500 -28.5000 Du        
   1430 ****       -11.7500 -24.2500 -28.2500 Du        
   1431 ****       -11.7500 -24.2500 -28.0000 Du        
   1432 ****       -11.7500 -24.0000 -30.0000 Du        
   1433 ****       -11.7500 -24.0000 -29.7500 Du        
   1434 ****       -11.7500 -24.0000 -29.5000 Du        
   1435 ****       -11.7500 -24.0000 -29.2500 Du        
   1436 ****       -11.7500 -24.0000 -29.0000 Du        
   1437 ****       -11.7500 -24.0000 -28.7500 Du        
   1438 ****       -11.7500 -24.0000 -28.5000 Du        
   1439 ****       -11.7500 -24.0000 -28.2500 Du        
   1440 ****       -11.7500 -24.0000 -28.0000 Du        
   1441 ****       -11.7500 -23.7500 -29.7500 Du        
   1442 ****       -11.7500 -23.7500 -29.5000 Du        
   1443 ****       -11.7500 -23.7500 -29.2500 Du        
   1444 ****       -11.7500 -23.7500 -29.0000 Du        
   1445 ****       -11.7500 -23.7500 -28.7500 Du        
   1446 ****       -11.7500 -23.7500 -28.5000 Du        
   1447 ****       -11.7500 -23.7500 -28.2500 Du        
   1448 ****       -11.7500 -23.7500 -28.0000 Du        
   1449 ****       -11.7500 -23.5000 -29.7500 Du        
   1450 ****       -11.7500 -23.5000 -29.5000 Du        
   1451 ****       -11.7500 -23.5000 -29.2500 Du        
   1452 ****       -11.7500 -23.5000 -29.0000 Du        
   1453 ****       -11.7500 -23.5000 -28.7500 Du        
   1454 ****       -11.7500 -23.5000 -28.5000 Du        
   1455 ****       -11.7500 -23.5000 -28.2500 Du        
   1456 ****       -11.7500 -23.5000 -28.0000 Du        
   1457 ****       -11.7500 -23.2500 -29.2500 Du        
   1458 ****       -11.7500 -23.2500 -29.0000 Du        
   1459 ****       -11.7500 -23.2500 -28.7500 Du        
   1460 ****       -11.7500 -23.2500 -28.5000 Du        
   1461 ****       -11.7500 -23.2500 -28.2500 Du        
   1462 ****       -11.7500 -23.2500 -28.0000 Du        
   1463 ****       -11.7500 -23.2500 -27.7500 Du        
   1464 ****       -11.7500 -23.0000 -29.2500 Du        
   1465 ****       -11.7500 -23.0000 -29.0000 Du        
   1466 ****       -11.7500 -23.0000 -28.7500 Du        
   1467 ****       -11.7500 -23.0000 -28.5000 Du        
   1468 ****       -11.7500 -23.0000 -28.2500 Du        
   1469 ****       -11.7500 -23.0000 -28.0000 Du        
   1470 ****       -11.7500 -23.0000 -27.7500 Du        
   1471 ****       -11.7500 -22.7500 -28.7500 Du        
   1472 ****       -11.7500 -22.7500 -28.5000 Du        
   1473 ****       -11.7500 -22.7500 -28.2500 Du        
   1474 ****       -11.7500 -22.7500 -28.0000 Du        
   1475 ****       -11.7500 -22.7500 -27.7500 Du        
   1476 ****       -11.7500 -22.7500 -27.5000 Du        
   1477 ****       -11.7500 -22.5000 -28.2500 Du        
   1478 ****       -11.7500 -22.5000 -28.0000 Du        
   1479 ****       -11.7500 -22.5000 -27.7500 Du        
   1480 ****       -11.7500 -22.5000 -27.5000 Du        
   1481 ****       -11.7500 -22.5000 -27.2500 Du        
   1482 ****       -11.7500 -22.2500 -28.0000 Du        
   1483 ****       -11.7500 -22.2500 -27.7500 Du        
   1484 ****       -11.7500 -22.2500 -27.5000 Du        
   1485 ****       -11.7500 -22.2500 -27.2500 Du        
   1486 ****       -11.7500 -22.2500 -27.0000 Du        
   1487 ****       -11.7500 -22.0000 -27.7500 Du        
   1488 ****       -11.7500 -22.0000 -27.5000 Du        
   1489 ****       -11.7500 -22.0000 -27.2500 Du        
   1490 ****       -11.7500 -22.0000 -27.0000 Du        
   1491 ****       -11.7500 -21.7500 -27.0000 Du        
   1492 ****       -11.7500 -21.7500 -26.7500 Du        
   1493 ****       -11.7500 -15.7500 -28.2500 Du        
   1494 ****       -11.7500 -15.7500 -28.0000 Du        
   1495 ****       -11.7500 -15.7500 -27.7500 Du        
   1496 ****       -11.7500 -15.5000 -28.0000 Du        
   1497 ****       -11.7500 -15.5000 -27.7500 Du        
   1498 ****       -11.7500 -15.2500 -27.7500 Du        
   1499 ****       -11.5000 -27.7500 -30.5000 Du        
   1500 ****       -11.5000 -27.7500 -30.2500 Du        
   1501 ****       -11.5000 -27.5000 -30.5000 Du        
   1502 ****       -11.5000 -27.5000 -30.2500 Du        
   1503 ****       -11.5000 -27.5000 -30.0000 Du        
   1504 ****       -11.5000 -27.5000 -29.7500 Du        
   1505 ****       -11.5000 -27.5000 -29.5000 Du        
   1506 ****       -11.5000 -27.5000 -29.2500 Du        
   1507 ****       -11.5000 -27.2500 -30.5000 Du        
   1508 ****       -11.5000 -27.2500 -30.2500 Du        
   1509 ****       -11.5000 -27.2500 -30.0000 Du        
   1510 ****       -11.5000 -27.2500 -29.7500 Du        
   1511 ****       -11.5000 -27.2500 -29.5000 Du        
   1512 ****       -11.5000 -27.2500 -29.2500 Du        
   1513 ****       -11.5000 -27.2500 -29.0000 Du        
   1514 ****       -11.5000 -27.2500 -28.7500 Du        
   1515 ****       -11.5000 -27.0000 -30.5000 Du        
   1516 ****       -11.5000 -27.0000 -30.2500 Du        
   1517 ****       -11.5000 -27.0000 -30.0000 Du        
   1518 ****       -11.5000 -27.0000 -29.7500 Du        
   1519 ****       -11.5000 -27.0000 -29.5000 Du        
   1520 ****       -11.5000 -27.0000 -29.2500 Du        
   1521 ****       -11.5000 -27.0000 -29.0000 Du        
   1522 ****       -11.5000 -27.0000 -28.7500 Du        
   1523 ****       -11.5000 -27.0000 -28.5000 Du        
   1524 ****       -11.5000 -26.7500 -30.5000 Du        
   1525 ****       -11.5000 -26.7500 -30.2500 Du        
   1526 ****       -11.5000 -26.7500 -30.0000 Du        
   1527 ****       -11.5000 -26.7500 -29.7500 Du        
   1528 ****       -11.5000 -26.7500 -29.5000 Du        
   1529 ****       -11.5000 -26.7500 -29.2500 Du        
   1530 ****       -11.5000 -26.7500 -29.0000 Du        
   1531 ****       -11.5000 -26.7500 -28.7500 Du        
   1532 ****       -11.5000 -26.7500 -28.5000 Du        
   1533 ****       -11.5000 -26.7500 -28.2500 Du        
   1534 ****       -11.5000 -26.5000 -30.5000 Du        
   1535 ****       -11.5000 -26.5000 -30.2500 Du        
   1536 ****       -11.5000 -26.5000 -30.0000 Du        
   1537 ****       -11.5000 -26.5000 -29.7500 Du        
   1538 ****       -11.5000 -26.5000 -29.5000 Du        
   1539 ****       -11.5000 -26.5000 -29.2500 Du        
   1540 ****       -11.5000 -26.5000 -29.0000 Du        
   1541 ****       -11.5000 -26.5000 -28.7500 Du        
   1542 ****       -11.5000 -26.5000 -28.5000 Du        
   1543 ****       -11.5000 -26.5000 -28.2500 Du        
   1544 ****       -11.5000 -26.2500 -30.7500 Du        
   1545 ****       -11.5000 -26.2500 -30.5000 Du        
   1546 ****       -11.5000 -26.2500 -30.2500 Du        
   1547 ****       -11.5000 -26.2500 -30.0000 Du        
   1548 ****       -11.5000 -26.2500 -29.7500 Du        
   1549 ****       -11.5000 -26.2500 -29.5000 Du        
   1550 ****       -11.5000 -26.2500 -29.2500 Du        
   1551 ****       -11.5000 -26.2500 -29.0000 Du        
   1552 ****       -11.5000 -26.2500 -28.7500 Du        
   1553 ****       -11.5000 -26.2500 -28.5000 Du        
   1554 ****       -11.5000 -26.2500 -28.2500 Du        
   1555 ****       -11.5000 -26.0000 -30.7500 Du        
   1556 ****       -11.5000 -26.0000 -30.5000 Du        
   1557 ****       -11.5000 -26.0000 -30.2500 Du        
   1558 ****       -11.5000 -26.0000 -30.0000 Du        
   1559 ****       -11.5000 -26.0000 -29.7500 Du        
   1560 ****       -11.5000 -26.0000 -29.5000 Du        
   1561 ****       -11.5000 -26.0000 -29.2500 Du        
   1562 ****       -11.5000 -26.0000 -29.0000 Du        
   1563 ****       -11.5000 -26.0000 -28.7500 Du        
   1564 ****       -11.5000 -26.0000 -28.5000 Du        
   1565 ****       -11.5000 -26.0000 -28.2500 Du        
   1566 ****       -11.5000 -25.7500 -30.7500 Du        
   1567 ****       -11.5000 -25.7500 -30.5000 Du        
   1568 ****       -11.5000 -25.7500 -30.2500 Du        
   1569 ****       -11.5000 -25.7500 -30.0000 Du        
   1570 ****       -11.5000 -25.7500 -29.7500 Du        
   1571 ****       -11.5000 -25.7500 -29.5000 Du        
   1572 ****       -11.5000 -25.7500 -29.2500 Du        
   1573 ****       -11.5000 -25.7500 -29.0000 Du        
   1574 ****       -11.5000 -25.7500 -28.7500 Du        
   1575 ****       -11.5000 -25.7500 -28.5000 Du        
   1576 ****       -11.5000 -25.7500 -28.2500 Du        
   1577 ****       -11.5000 -25.5000 -30.7500 Du        
   1578 ****       -11.5000 -25.5000 -30.5000 Du        
   1579 ****       -11.5000 -25.5000 -30.2500 Du        
   1580 ****       -11.5000 -25.5000 -30.0000 Du        
   1581 ****       -11.5000 -25.5000 -29.7500 Du        
   1582 ****       -11.5000 -25.5000 -29.5000 Du        
   1583 ****       -11.5000 -25.5000 -29.2500 Du        
   1584 ****       -11.5000 -25.5000 -29.0000 Du        
   1585 ****       -11.5000 -25.5000 -28.7500 Du        
   1586 ****       -11.5000 -25.5000 -28.5000 Du        
   1587 ****       -11.5000 -25.5000 -28.2500 Du        
   1588 ****       -11.5000 -25.2500 -30.5000 Du        
   1589 ****       -11.5000 -25.2500 -30.2500 Du        
   1590 ****       -11.5000 -25.2500 -30.0000 Du        
   1591 ****       -11.5000 -25.2500 -29.7500 Du        
   1592 ****       -11.5000 -25.2500 -29.5000 Du        
   1593 ****       -11.5000 -25.2500 -29.2500 Du        
   1594 ****       -11.5000 -25.2500 -29.0000 Du        
   1595 ****       -11.5000 -25.2500 -28.7500 Du        
   1596 ****       -11.5000 -25.2500 -28.5000 Du        
   1597 ****       -11.5000 -25.2500 -28.2500 Du        
   1598 ****       -11.5000 -25.2500 -28.0000 Du        
   1599 ****       -11.5000 -25.0000 -30.2500 Du        
   1600 ****       -11.5000 -25.0000 -30.0000 Du        
   1601 ****       -11.5000 -25.0000 -29.7500 Du        
   1602 ****       -11.5000 -25.0000 -29.5000 Du        
   1603 ****       -11.5000 -25.0000 -29.2500 Du        
   1604 ****       -11.5000 -25.0000 -29.0000 Du        
   1605 ****       -11.5000 -25.0000 -28.7500 Du        
   1606 ****       -11.5000 -25.0000 -28.5000 Du        
   1607 ****       -11.5000 -25.0000 -28.2500 Du        
   1608 ****       -11.5000 -25.0000 -28.0000 Du        
   1609 ****       -11.5000 -24.7500 -30.2500 Du        
   1610 ****       -11.5000 -24.7500 -30.0000 Du        
   1611 ****       -11.5000 -24.7500 -29.7500 Du        
   1612 ****       -11.5000 -24.7500 -29.5000 Du        
   1613 ****       -11.5000 -24.7500 -29.2500 Du        
   1614 ****       -11.5000 -24.7500 -29.0000 Du        
   1615 ****       -11.5000 -24.7500 -28.7500 Du        
   1616 ****       -11.5000 -24.7500 -28.5000 Du        
   1617 ****       -11.5000 -24.7500 -28.2500 Du        
   1618 ****       -11.5000 -24.5000 -30.0000 Du        
   1619 ****       -11.5000 -24.5000 -29.7500 Du        
   1620 ****       -11.5000 -24.5000 -29.5000 Du        
   1621 ****       -11.5000 -24.5000 -29.2500 Du        
   1622 ****       -11.5000 -24.5000 -29.0000 Du        
   1623 ****       -11.5000 -24.5000 -28.7500 Du        
   1624 ****       -11.5000 -24.5000 -28.5000 Du        
   1625 ****       -11.5000 -24.5000 -28.2500 Du        
   1626 ****       -11.5000 -24.2500 -30.0000 Du        
   1627 ****       -11.5000 -24.2500 -29.7500 Du        
   1628 ****       -11.5000 -24.2500 -29.5000 Du        
   1629 ****       -11.5000 -24.2500 -29.2500 Du        
   1630 ****       -11.5000 -24.2500 -29.0000 Du        
   1631 ****       -11.5000 -24.2500 -28.7500 Du        
   1632 ****       -11.5000 -24.2500 -28.5000 Du        
   1633 ****       -11.5000 -24.2500 -28.2500 Du        
   1634 ****       -11.5000 -24.0000 -30.0000 Du        
   1635 ****       -11.5000 -24.0000 -29.7500 Du        
   1636 ****       -11.5000 -24.0000 -29.5000 Du        
   1637 ****       -11.5000 -24.0000 -29.2500 Du        
   1638 ****       -11.5000 -24.0000 -29.0000 Du        
   1639 ****       -11.5000 -24.0000 -28.7500 Du        
   1640 ****       -11.5000 -24.0000 -28.5000 Du        
   1641 ****       -11.5000 -24.0000 -28.2500 Du        
   1642 ****       -11.5000 -23.7500 -29.7500 Du        
   1643 ****       -11.5000 -23.7500 -29.5000 Du        
   1644 ****       -11.5000 -23.7500 -29.2500 Du        
   1645 ****       -11.5000 -23.7500 -29.0000 Du        
   1646 ****       -11.5000 -23.7500 -28.7500 Du        
   1647 ****       -11.5000 -23.7500 -28.5000 Du        
   1648 ****       -11.5000 -23.7500 -28.2500 Du        
   1649 ****       -11.5000 -23.7500 -28.0000 Du        
   1650 ****       -11.5000 -23.5000 -29.5000 Du        
   1651 ****       -11.5000 -23.5000 -29.2500 Du        
   1652 ****       -11.5000 -23.5000 -29.0000 Du        
   1653 ****       -11.5000 -23.5000 -28.7500 Du        
   1654 ****       -11.5000 -23.5000 -28.5000 Du        
   1655 ****       -11.5000 -23.5000 -28.2500 Du        
   1656 ****       -11.5000 -23.2500 -29.2500 Du        
   1657 ****       -11.5000 -23.2500 -29.0000 Du        
   1658 ****       -11.5000 -23.2500 -28.7500 Du        
   1659 ****       -11.5000 -23.2500 -28.5000 Du        
   1660 ****       -11.5000 -23.2500 -28.2500 Du        
   1661 ****       -11.5000 -23.2500 -28.0000 Du        
   1662 ****       -11.5000 -23.0000 -29.0000 Du        
   1663 ****       -11.5000 -23.0000 -28.7500 Du        
   1664 ****       -11.5000 -23.0000 -28.5000 Du        
   1665 ****       -11.5000 -23.0000 -28.2500 Du        
   1666 ****       -11.5000 -23.0000 -28.0000 Du        
   1667 ****       -11.5000 -22.7500 -28.5000 Du        
   1668 ****       -11.5000 -22.7500 -28.2500 Du        
   1669 ****       -11.5000 -22.7500 -28.0000 Du        
   1670 ****       -11.5000 -22.7500 -27.7500 Du        
   1671 ****       -11.5000 -22.5000 -28.0000 Du        
   1672 ****       -11.5000 -22.5000 -27.7500 Du        
   1673 ****       -11.5000 -21.2500 -26.2500 Du        
   1674 ****       -11.5000 -21.2500 -26.0000 Du        
   1675 ****       -11.5000 -21.2500 -25.2500 Du        
   1676 ****       -11.5000 -21.2500 -24.5000 Du        
   1677 ****       -11.5000 -21.2500 -24.2500 Du        
   1678 ****       -11.5000 -21.0000 -26.0000 Du        
   1679 ****       -11.5000 -21.0000 -25.5000 Du        
   1680 ****       -11.5000 -21.0000 -25.0000 Du        
   1681 ****       -11.5000 -21.0000 -24.7500 Du        
   1682 ****       -11.5000 -21.0000 -24.5000 Du        
   1683 ****       -11.5000 -21.0000 -24.2500 Du        
   1684 ****       -11.5000 -20.7500 -25.0000 Du        
   1685 ****       -11.5000 -20.7500 -24.7500 Du        
   1686 ****       -11.5000 -20.7500 -24.5000 Du        
   1687 ****       -11.5000 -20.7500 -24.2500 Du        
   1688 ****       -11.5000 -20.5000 -24.5000 Du        
   1689 ****       -11.5000 -20.5000 -24.2500 Du        
   1690 ****       -11.5000 -20.2500 -24.5000 Du        
   1691 ****       -11.5000 -20.2500 -24.2500 Du        
   1692 ****       -11.5000 -20.0000 -24.5000 Du        
   1693 ****       -11.5000 -19.7500 -25.0000 Du        
   1694 ****       -11.5000 -19.7500 -24.7500 Du        
   1695 ****       -11.5000 -19.5000 -25.2500 Du        
   1696 ****       -11.5000 -19.5000 -25.0000 Du        
   1697 ****       -11.5000 -19.2500 -25.2500 Du        
   1698 ****       -11.5000 -19.2500 -25.0000 Du        
   1699 ****       -11.5000 -19.2500 -24.7500 Du        
   1700 ****       -11.5000 -19.0000 -25.2500 Du        
   1701 ****       -11.5000 -19.0000 -25.0000 Du        
   1702 ****       -11.5000 -15.7500 -28.0000 Du        
   1703 ****       -11.5000 -15.7500 -27.7500 Du        
   1704 ****       -11.5000 -15.5000 -28.0000 Du        
   1705 ****       -11.5000 -15.5000 -27.7500 Du        
   1706 ****       -11.5000 -15.2500 -27.7500 Du        
   1707 ****       -11.2500 -28.2500 -31.0000 Du        
   1708 ****       -11.2500 -28.2500 -30.7500 Du        
   1709 ****       -11.2500 -28.2500 -30.5000 Du        
   1710 ****       -11.2500 -28.0000 -31.0000 Du        
   1711 ****       -11.2500 -28.0000 -30.7500 Du        
   1712 ****       -11.2500 -28.0000 -30.5000 Du        
   1713 ****       -11.2500 -28.0000 -30.2500 Du        
   1714 ****       -11.2500 -28.0000 -30.0000 Du        
   1715 ****       -11.2500 -27.7500 -31.0000 Du        
   1716 ****       -11.2500 -27.7500 -30.7500 Du        
   1717 ****       -11.2500 -27.7500 -30.5000 Du        
   1718 ****       -11.2500 -27.7500 -30.2500 Du        
   1719 ****       -11.2500 -27.7500 -30.0000 Du        
   1720 ****       -11.2500 -27.7500 -29.7500 Du        
   1721 ****       -11.2500 -27.5000 -30.7500 Du        
   1722 ****       -11.2500 -27.5000 -30.5000 Du        
   1723 ****       -11.2500 -27.5000 -30.2500 Du        
   1724 ****       -11.2500 -27.5000 -30.0000 Du        
   1725 ****       -11.2500 -27.5000 -29.7500 Du        
   1726 ****       -11.2500 -27.5000 -29.5000 Du        
   1727 ****       -11.2500 -27.5000 -29.2500 Du        
   1728 ****       -11.2500 -27.2500 -30.7500 Du        
   1729 ****       -11.2500 -27.2500 -30.5000 Du        
   1730 ****       -11.2500 -27.2500 -30.2500 Du        
   1731 ****       -11.2500 -27.2500 -30.0000 Du        
   1732 ****       -11.2500 -27.2500 -29.7500 Du        
   1733 ****       -11.2500 -27.2500 -29.5000 Du        
   1734 ****       -11.2500 -27.2500 -29.2500 Du        
   1735 ****       -11.2500 -27.2500 -29.0000 Du        
   1736 ****       -11.2500 -27.2500 -28.7500 Du        
   1737 ****       -11.2500 -27.0000 -30.7500 Du        
   1738 ****       -11.2500 -27.0000 -30.5000 Du        
   1739 ****       -11.2500 -27.0000 -30.2500 Du        
   1740 ****       -11.2500 -27.0000 -30.0000 Du        
   1741 ****       -11.2500 -27.0000 -29.7500 Du        
   1742 ****       -11.2500 -27.0000 -29.5000 Du        
   1743 ****       -11.2500 -27.0000 -29.2500 Du        
   1744 ****       -11.2500 -27.0000 -29.0000 Du        
   1745 ****       -11.2500 -27.0000 -28.7500 Du        
   1746 ****       -11.2500 -27.0000 -28.5000 Du        
   1747 ****       -11.2500 -26.7500 -30.7500 Du        
   1748 ****       -11.2500 -26.7500 -30.5000 Du        
   1749 ****       -11.2500 -26.7500 -30.2500 Du        
   1750 ****       -11.2500 -26.7500 -30.0000 Du        
   1751 ****       -11.2500 -26.7500 -29.7500 Du        
   1752 ****       -11.2500 -26.7500 -29.5000 Du        
   1753 ****       -11.2500 -26.7500 -29.2500 Du        
   1754 ****       -11.2500 -26.7500 -29.0000 Du        
   1755 ****       -11.2500 -26.7500 -28.7500 Du        
   1756 ****       -11.2500 -26.7500 -28.5000 Du        
   1757 ****       -11.2500 -26.5000 -30.7500 Du        
   1758 ****       -11.2500 -26.5000 -30.5000 Du        
   1759 ****       -11.2500 -26.5000 -30.2500 Du        
   1760 ****       -11.2500 -26.5000 -30.0000 Du        
   1761 ****       -11.2500 -26.5000 -29.7500 Du        
   1762 ****       -11.2500 -26.5000 -29.5000 Du        
   1763 ****       -11.2500 -26.5000 -29.2500 Du        
   1764 ****       -11.2500 -26.5000 -29.0000 Du        
   1765 ****       -11.2500 -26.5000 -28.7500 Du        
   1766 ****       -11.2500 -26.5000 -28.5000 Du        
   1767 ****       -11.2500 -26.2500 -30.7500 Du        
   1768 ****       -11.2500 -26.2500 -30.5000 Du        
   1769 ****       -11.2500 -26.2500 -30.2500 Du        
   1770 ****       -11.2500 -26.2500 -30.0000 Du        
   1771 ****       -11.2500 -26.2500 -29.7500 Du        
   1772 ****       -11.2500 -26.2500 -29.5000 Du        
   1773 ****       -11.2500 -26.2500 -29.2500 Du        
   1774 ****       -11.2500 -26.2500 -29.0000 Du        
   1775 ****       -11.2500 -26.2500 -28.7500 Du        
   1776 ****       -11.2500 -26.2500 -28.5000 Du        
   1777 ****       -11.2500 -26.0000 -31.0000 Du        
   1778 ****       -11.2500 -26.0000 -30.7500 Du        
   1779 ****       -11.2500 -26.0000 -30.5000 Du        
   1780 ****       -11.2500 -26.0000 -30.2500 Du        
   1781 ****       -11.2500 -26.0000 -30.0000 Du        
   1782 ****       -11.2500 -26.0000 -29.7500 Du        
   1783 ****       -11.2500 -26.0000 -29.5000 Du        
   1784 ****       -11.2500 -26.0000 -29.2500 Du        
   1785 ****       -11.2500 -26.0000 -29.0000 Du        
   1786 ****       -11.2500 -26.0000 -28.7500 Du        
   1787 ****       -11.2500 -26.0000 -28.5000 Du        
   1788 ****       -11.2500 -25.7500 -31.0000 Du        
   1789 ****       -11.2500 -25.7500 -30.7500 Du        
   1790 ****       -11.2500 -25.7500 -30.5000 Du        
   1791 ****       -11.2500 -25.7500 -30.2500 Du        
   1792 ****       -11.2500 -25.7500 -30.0000 Du        
   1793 ****       -11.2500 -25.7500 -29.7500 Du        
   1794 ****       -11.2500 -25.7500 -29.5000 Du        
   1795 ****       -11.2500 -25.7500 -29.2500 Du        
   1796 ****       -11.2500 -25.7500 -29.0000 Du        
   1797 ****       -11.2500 -25.7500 -28.7500 Du        
   1798 ****       -11.2500 -25.7500 -28.5000 Du        
   1799 ****       -11.2500 -25.5000 -30.7500 Du        
   1800 ****       -11.2500 -25.5000 -30.5000 Du        
   1801 ****       -11.2500 -25.5000 -30.2500 Du        
   1802 ****       -11.2500 -25.5000 -30.0000 Du        
   1803 ****       -11.2500 -25.5000 -29.7500 Du        
   1804 ****       -11.2500 -25.5000 -29.5000 Du        
   1805 ****       -11.2500 -25.5000 -29.2500 Du        
   1806 ****       -11.2500 -25.5000 -29.0000 Du        
   1807 ****       -11.2500 -25.5000 -28.7500 Du        
   1808 ****       -11.2500 -25.5000 -28.5000 Du        
   1809 ****       -11.2500 -25.5000 -28.2500 Du        
   1810 ****       -11.2500 -25.2500 -30.5000 Du        
   1811 ****       -11.2500 -25.2500 -30.2500 Du        
   1812 ****       -11.2500 -25.2500 -30.0000 Du        
   1813 ****       -11.2500 -25.2500 -29.7500 Du        
   1814 ****       -11.2500 -25.2500 -29.5000 Du        
   1815 ****       -11.2500 -25.2500 -29.2500 Du        
   1816 ****       -11.2500 -25.2500 -29.0000 Du        
   1817 ****       -11.2500 -25.2500 -28.7500 Du        
   1818 ****       -11.2500 -25.2500 -28.5000 Du        
   1819 ****       -11.2500 -25.2500 -28.2500 Du        
   1820 ****       -11.2500 -25.0000 -30.2500 Du        
   1821 ****       -11.2500 -25.0000 -30.0000 Du        
   1822 ****       -11.2500 -25.0000 -29.7500 Du        
   1823 ****       -11.2500 -25.0000 -29.5000 Du        
   1824 ****       -11.2500 -25.0000 -29.2500 Du        
   1825 ****       -11.2500 -25.0000 -29.0000 Du        
   1826 ****       -11.2500 -25.0000 -28.7500 Du        
   1827 ****       -11.2500 -25.0000 -28.5000 Du        
   1828 ****       -11.2500 -25.0000 -28.2500 Du        
   1829 ****       -11.2500 -24.7500 -30.2500 Du        
   1830 ****       -11.2500 -24.7500 -30.0000 Du        
   1831 ****       -11.2500 -24.7500 -29.7500 Du        
   1832 ****       -11.2500 -24.7500 -29.5000 Du        
   1833 ****       -11.2500 -24.7500 -29.2500 Du        
   1834 ****       -11.2500 -24.7500 -29.0000 Du        
   1835 ****       -11.2500 -24.7500 -28.7500 Du        
   1836 ****       -11.2500 -24.7500 -28.5000 Du        
   1837 ****       -11.2500 -24.7500 -28.2500 Du        
   1838 ****       -11.2500 -24.5000 -30.0000 Du        
   1839 ****       -11.2500 -24.5000 -29.7500 Du        
   1840 ****       -11.2500 -24.5000 -29.5000 Du        
   1841 ****       -11.2500 -24.5000 -29.2500 Du        
   1842 ****       -11.2500 -24.5000 -29.0000 Du        
   1843 ****       -11.2500 -24.5000 -28.7500 Du        
   1844 ****       -11.2500 -24.5000 -28.5000 Du        
   1845 ****       -11.2500 -24.2500 -30.0000 Du        
   1846 ****       -11.2500 -24.2500 -29.7500 Du        
   1847 ****       -11.2500 -24.2500 -29.5000 Du        
   1848 ****       -11.2500 -24.2500 -29.2500 Du        
   1849 ****       -11.2500 -24.2500 -29.0000 Du        
   1850 ****       -11.2500 -24.2500 -28.7500 Du        
   1851 ****       -11.2500 -24.2500 -28.5000 Du        
   1852 ****       -11.2500 -24.2500 -28.2500 Du        
   1853 ****       -11.2500 -24.0000 -29.7500 Du        
   1854 ****       -11.2500 -24.0000 -29.5000 Du        
   1855 ****       -11.2500 -24.0000 -29.2500 Du        
   1856 ****       -11.2500 -24.0000 -29.0000 Du        
   1857 ****       -11.2500 -24.0000 -28.7500 Du        
   1858 ****       -11.2500 -24.0000 -28.5000 Du        
   1859 ****       -11.2500 -24.0000 -28.2500 Du        
   1860 ****       -11.2500 -23.7500 -29.7500 Du        
   1861 ****       -11.2500 -23.7500 -29.5000 Du        
   1862 ****       -11.2500 -23.7500 -29.2500 Du        
   1863 ****       -11.2500 -23.7500 -29.0000 Du        
   1864 ****       -11.2500 -23.7500 -28.7500 Du        
   1865 ****       -11.2500 -23.7500 -28.5000 Du        
   1866 ****       -11.2500 -23.7500 -28.2500 Du        
   1867 ****       -11.2500 -23.5000 -29.5000 Du        
   1868 ****       -11.2500 -23.5000 -29.2500 Du        
   1869 ****       -11.2500 -23.5000 -29.0000 Du        
   1870 ****       -11.2500 -23.5000 -28.7500 Du        
   1871 ****       -11.2500 -23.5000 -28.5000 Du        
   1872 ****       -11.2500 -23.5000 -28.2500 Du        
   1873 ****       -11.2500 -23.2500 -29.2500 Du        
   1874 ****       -11.2500 -23.2500 -29.0000 Du        
   1875 ****       -11.2500 -23.2500 -28.7500 Du        
   1876 ****       -11.2500 -23.2500 -28.5000 Du        
   1877 ****       -11.2500 -23.2500 -28.2500 Du        
   1878 ****       -11.2500 -23.0000 -29.0000 Du        
   1879 ****       -11.2500 -23.0000 -28.7500 Du        
   1880 ****       -11.2500 -23.0000 -28.5000 Du        
   1881 ****       -11.2500 -23.0000 -28.2500 Du        
   1882 ****       -11.2500 -23.0000 -28.0000 Du        
   1883 ****       -11.2500 -22.7500 -28.5000 Du        
   1884 ****       -11.2500 -22.7500 -28.2500 Du        
   1885 ****       -11.2500 -22.7500 -28.0000 Du        
   1886 ****       -11.2500 -21.5000 -26.2500 Du        
   1887 ****       -11.2500 -21.5000 -26.0000 Du        
   1888 ****       -11.2500 -21.5000 -25.5000 Du        
   1889 ****       -11.2500 -21.5000 -25.2500 Du        
   1890 ****       -11.2500 -21.2500 -26.2500 Du        
   1891 ****       -11.2500 -21.2500 -26.0000 Du        
   1892 ****       -11.2500 -21.2500 -25.7500 Du        
   1893 ****       -11.2500 -21.2500 -25.5000 Du        
   1894 ****       -11.2500 -21.2500 -25.2500 Du        
   1895 ****       -11.2500 -21.2500 -25.0000 Du        
   1896 ****       -11.2500 -21.2500 -24.7500 Du        
   1897 ****       -11.2500 -21.2500 -24.5000 Du        
   1898 ****       -11.2500 -21.2500 -24.2500 Du        
   1899 ****       -11.2500 -21.2500 -24.0000 Du        
   1900 ****       -11.2500 -21.0000 -26.2500 Du        
   1901 ****       -11.2500 -21.0000 -26.0000 Du        
   1902 ****       -11.2500 -21.0000 -25.7500 Du        
   1903 ****       -11.2500 -21.0000 -25.5000 Du        
   1904 ****       -11.2500 -21.0000 -25.2500 Du        
   1905 ****       -11.2500 -21.0000 -25.0000 Du        
   1906 ****       -11.2500 -21.0000 -24.7500 Du        
   1907 ****       -11.2500 -21.0000 -24.5000 Du        
   1908 ****       -11.2500 -21.0000 -24.2500 Du        
   1909 ****       -11.2500 -21.0000 -24.0000 Du        
   1910 ****       -11.2500 -20.7500 -26.0000 Du        
   1911 ****       -11.2500 -20.7500 -25.7500 Du        
   1912 ****       -11.2500 -20.7500 -25.5000 Du        
   1913 ****       -11.2500 -20.7500 -25.2500 Du        
   1914 ****       -11.2500 -20.7500 -25.0000 Du        
   1915 ****       -11.2500 -20.7500 -24.7500 Du        
   1916 ****       -11.2500 -20.7500 -24.5000 Du        
   1917 ****       -11.2500 -20.7500 -24.2500 Du        
   1918 ****       -11.2500 -20.7500 -24.0000 Du        
   1919 ****       -11.2500 -20.5000 -25.7500 Du        
   1920 ****       -11.2500 -20.5000 -25.5000 Du        
   1921 ****       -11.2500 -20.5000 -25.2500 Du        
   1922 ****       -11.2500 -20.5000 -25.0000 Du        
   1923 ****       -11.2500 -20.5000 -24.7500 Du        
   1924 ****       -11.2500 -20.5000 -24.5000 Du        
   1925 ****       -11.2500 -20.5000 -24.2500 Du        
   1926 ****       -11.2500 -20.5000 -24.0000 Du        
   1927 ****       -11.2500 -20.2500 -25.7500 Du        
   1928 ****       -11.2500 -20.2500 -25.5000 Du        
   1929 ****       -11.2500 -20.2500 -25.2500 Du        
   1930 ****       -11.2500 -20.2500 -25.0000 Du        
   1931 ****       -11.2500 -20.2500 -24.7500 Du        
   1932 ****       -11.2500 -20.2500 -24.5000 Du        
   1933 ****       -11.2500 -20.2500 -24.2500 Du        
   1934 ****       -11.2500 -20.0000 -25.5000 Du        
   1935 ****       -11.2500 -20.0000 -25.2500 Du        
   1936 ****       -11.2500 -20.0000 -25.0000 Du        
   1937 ****       -11.2500 -20.0000 -24.7500 Du        
   1938 ****       -11.2500 -20.0000 -24.5000 Du        
   1939 ****       -11.2500 -20.0000 -24.2500 Du        
   1940 ****       -11.2500 -19.7500 -25.2500 Du        
   1941 ****       -11.2500 -19.7500 -25.0000 Du        
   1942 ****       -11.2500 -19.7500 -24.7500 Du        
   1943 ****       -11.2500 -19.7500 -24.5000 Du        
   1944 ****       -11.2500 -19.5000 -25.2500 Du        
   1945 ****       -11.2500 -19.5000 -25.0000 Du        
   1946 ****       -11.2500 -19.5000 -24.7500 Du        
   1947 ****       -11.2500 -19.2500 -25.2500 Du        
   1948 ****       -11.2500 -19.2500 -25.0000 Du        
   1949 ****       -11.2500 -19.2500 -24.7500 Du        
   1950 ****       -11.2500 -19.0000 -25.2500 Du        
   1951 ****       -11.2500 -19.0000 -25.0000 Du        
   1952 ****       -11.2500 -15.7500 -28.0000 Du        
   1953 ****       -11.2500 -15.7500 -27.7500 Du        
   1954 ****       -11.2500 -15.2500 -27.7500 Du        
   1955 ****       -11.0000 -28.5000 -31.2500 Du        
   1956 ****       -11.0000 -28.5000 -31.0000 Du        
   1957 ****       -11.0000 -28.5000 -30.7500 Du        
   1958 ****       -11.0000 -28.5000 -30.5000 Du        
   1959 ****       -11.0000 -28.2500 -31.2500 Du        
   1960 ****       -11.0000 -28.2500 -31.0000 Du        
   1961 ****       -11.0000 -28.2500 -30.7500 Du        
   1962 ****       -11.0000 -28.2500 -30.5000 Du        
   1963 ****       -11.0000 -28.2500 -30.2500 Du        
   1964 ****       -11.0000 -28.0000 -31.2500 Du        
   1965 ****       -11.0000 -28.0000 -31.0000 Du        
   1966 ****       -11.0000 -28.0000 -30.7500 Du        
   1967 ****       -11.0000 -28.0000 -30.5000 Du        
   1968 ****       -11.0000 -28.0000 -30.2500 Du        
   1969 ****       -11.0000 -28.0000 -30.0000 Du        
   1970 ****       -11.0000 -27.7500 -31.2500 Du        
   1971 ****       -11.0000 -27.7500 -31.0000 Du        
   1972 ****       -11.0000 -27.7500 -30.7500 Du        
   1973 ****       -11.0000 -27.7500 -30.5000 Du        
   1974 ****       -11.0000 -27.7500 -30.2500 Du        
   1975 ****       -11.0000 -27.7500 -30.0000 Du        
   1976 ****       -11.0000 -27.7500 -29.7500 Du        
   1977 ****       -11.0000 -27.7500 -29.5000 Du        
   1978 ****       -11.0000 -27.5000 -31.0000 Du        
   1979 ****       -11.0000 -27.5000 -30.7500 Du        
   1980 ****       -11.0000 -27.5000 -30.5000 Du        
   1981 ****       -11.0000 -27.5000 -30.2500 Du        
   1982 ****       -11.0000 -27.5000 -30.0000 Du        
   1983 ****       -11.0000 -27.5000 -29.7500 Du        
   1984 ****       -11.0000 -27.5000 -29.5000 Du        
   1985 ****       -11.0000 -27.5000 -29.2500 Du        
   1986 ****       -11.0000 -27.2500 -31.0000 Du        
   1987 ****       -11.0000 -27.2500 -30.7500 Du        
   1988 ****       -11.0000 -27.2500 -30.5000 Du        
   1989 ****       -11.0000 -27.2500 -30.2500 Du        
   1990 ****       -11.0000 -27.2500 -30.0000 Du        
   1991 ****       -11.0000 -27.2500 -29.7500 Du        
   1992 ****       -11.0000 -27.2500 -29.5000 Du        
   1993 ****       -11.0000 -27.2500 -29.2500 Du        
   1994 ****       -11.0000 -27.2500 -29.0000 Du        
   1995 ****       -11.0000 -27.2500 -28.7500 Du        
   1996 ****       -11.0000 -27.0000 -31.0000 Du        
   1997 ****       -11.0000 -27.0000 -30.7500 Du        
   1998 ****       -11.0000 -27.0000 -30.5000 Du        
   1999 ****       -11.0000 -27.0000 -30.2500 Du        
   2000 ****       -11.0000 -27.0000 -30.0000 Du        
   2001 ****       -11.0000 -27.0000 -29.7500 Du        
   2002 ****       -11.0000 -27.0000 -29.5000 Du        
   2003 ****       -11.0000 -27.0000 -29.2500 Du        
   2004 ****       -11.0000 -27.0000 -29.0000 Du        
   2005 ****       -11.0000 -27.0000 -28.7500 Du        
   2006 ****       -11.0000 -26.7500 -31.0000 Du        
   2007 ****       -11.0000 -26.7500 -30.7500 Du        
   2008 ****       -11.0000 -26.7500 -30.5000 Du        
   2009 ****       -11.0000 -26.7500 -30.2500 Du        
   2010 ****       -11.0000 -26.7500 -30.0000 Du        
   2011 ****       -11.0000 -26.7500 -29.7500 Du        
   2012 ****       -11.0000 -26.7500 -29.5000 Du        
   2013 ****       -11.0000 -26.7500 -29.2500 Du        
   2014 ****       -11.0000 -26.7500 -29.0000 Du        
   2015 ****       -11.0000 -26.7500 -28.7500 Du        
   2016 ****       -11.0000 -26.5000 -31.0000 Du        
   2017 ****       -11.0000 -26.5000 -30.7500 Du        
   2018 ****       -11.0000 -26.5000 -30.5000 Du        
   2019 ****       -11.0000 -26.5000 -30.2500 Du        
   2020 ****       -11.0000 -26.5000 -30.0000 Du        
   2021 ****       -11.0000 -26.5000 -29.7500 Du        
   2022 ****       -11.0000 -26.5000 -29.5000 Du        
   2023 ****       -11.0000 -26.5000 -29.2500 Du        
   2024 ****       -11.0000 -26.5000 -29.0000 Du        
   2025 ****       -11.0000 -26.5000 -28.7500 Du        
   2026 ****       -11.0000 -26.2500 -31.0000 Du        
   2027 ****       -11.0000 -26.2500 -30.7500 Du        
   2028 ****       -11.0000 -26.2500 -30.5000 Du        
   2029 ****       -11.0000 -26.2500 -30.2500 Du        
   2030 ****       -11.0000 -26.2500 -30.0000 Du        
   2031 ****       -11.0000 -26.2500 -29.7500 Du        
   2032 ****       -11.0000 -26.2500 -29.5000 Du        
   2033 ****       -11.0000 -26.2500 -29.2500 Du        
   2034 ****       -11.0000 -26.2500 -29.0000 Du        
   2035 ****       -11.0000 -26.2500 -28.7500 Du        
   2036 ****       -11.0000 -26.2500 -28.5000 Du        
   2037 ****       -11.0000 -26.0000 -31.0000 Du        
   2038 ****       -11.0000 -26.0000 -30.7500 Du        
   2039 ****       -11.0000 -26.0000 -30.5000 Du        
   2040 ****       -11.0000 -26.0000 -30.2500 Du        
   2041 ****       -11.0000 -26.0000 -30.0000 Du        
   2042 ****       -11.0000 -26.0000 -29.7500 Du        
   2043 ****       -11.0000 -26.0000 -29.5000 Du        
   2044 ****       -11.0000 -26.0000 -29.2500 Du        
   2045 ****       -11.0000 -26.0000 -29.0000 Du        
   2046 ****       -11.0000 -26.0000 -28.7500 Du        
   2047 ****       -11.0000 -25.7500 -30.7500 Du        
   2048 ****       -11.0000 -25.7500 -30.5000 Du        
   2049 ****       -11.0000 -25.7500 -30.2500 Du        
   2050 ****       -11.0000 -25.7500 -30.0000 Du        
   2051 ****       -11.0000 -25.7500 -29.7500 Du        
   2052 ****       -11.0000 -25.7500 -29.5000 Du        
   2053 ****       -11.0000 -25.7500 -29.2500 Du        
   2054 ****       -11.0000 -25.7500 -29.0000 Du        
   2055 ****       -11.0000 -25.7500 -28.7500 Du        
   2056 ****       -11.0000 -25.7500 -28.5000 Du        
   2057 ****       -11.0000 -25.5000 -30.5000 Du        
   2058 ****       -11.0000 -25.5000 -30.2500 Du        
   2059 ****       -11.0000 -25.5000 -30.0000 Du        
   2060 ****       -11.0000 -25.5000 -29.7500 Du        
   2061 ****       -11.0000 -25.5000 -29.5000 Du        
   2062 ****       -11.0000 -25.5000 -29.2500 Du        
   2063 ****       -11.0000 -25.5000 -29.0000 Du        
   2064 ****       -11.0000 -25.5000 -28.7500 Du        
   2065 ****       -11.0000 -25.5000 -28.5000 Du        
   2066 ****       -11.0000 -25.2500 -30.5000 Du        
   2067 ****       -11.0000 -25.2500 -30.2500 Du        
   2068 ****       -11.0000 -25.2500 -30.0000 Du        
   2069 ****       -11.0000 -25.2500 -29.7500 Du        
   2070 ****       -11.0000 -25.2500 -29.5000 Du        
   2071 ****       -11.0000 -25.2500 -29.2500 Du        
   2072 ****       -11.0000 -25.2500 -29.0000 Du        
   2073 ****       -11.0000 -25.2500 -28.7500 Du        
   2074 ****       -11.0000 -25.2500 -28.5000 Du        
   2075 ****       -11.0000 -25.0000 -30.2500 Du        
   2076 ****       -11.0000 -25.0000 -30.0000 Du        
   2077 ****       -11.0000 -25.0000 -29.7500 Du        
   2078 ****       -11.0000 -25.0000 -29.5000 Du        
   2079 ****       -11.0000 -25.0000 -29.2500 Du        
   2080 ****       -11.0000 -25.0000 -29.0000 Du        
   2081 ****       -11.0000 -25.0000 -28.7500 Du        
   2082 ****       -11.0000 -25.0000 -28.5000 Du        
   2083 ****       -11.0000 -24.7500 -30.0000 Du        
   2084 ****       -11.0000 -24.7500 -29.7500 Du        
   2085 ****       -11.0000 -24.7500 -29.5000 Du        
   2086 ****       -11.0000 -24.7500 -29.2500 Du        
   2087 ****       -11.0000 -24.7500 -29.0000 Du        
   2088 ****       -11.0000 -24.7500 -28.7500 Du        
   2089 ****       -11.0000 -24.7500 -28.5000 Du        
   2090 ****       -11.0000 -24.5000 -30.0000 Du        
   2091 ****       -11.0000 -24.5000 -29.7500 Du        
   2092 ****       -11.0000 -24.5000 -29.5000 Du        
   2093 ****       -11.0000 -24.5000 -29.2500 Du        
   2094 ****       -11.0000 -24.5000 -29.0000 Du        
   2095 ****       -11.0000 -24.5000 -28.7500 Du        
   2096 ****       -11.0000 -24.5000 -28.5000 Du        
   2097 ****       -11.0000 -24.2500 -30.0000 Du        
   2098 ****       -11.0000 -24.2500 -29.7500 Du        
   2099 ****       -11.0000 -24.2500 -29.5000 Du        
   2100 ****       -11.0000 -24.2500 -29.2500 Du        
   2101 ****       -11.0000 -24.2500 -29.0000 Du        
   2102 ****       -11.0000 -24.2500 -28.7500 Du        
   2103 ****       -11.0000 -24.2500 -28.5000 Du        
   2104 ****       -11.0000 -24.0000 -29.7500 Du        
   2105 ****       -11.0000 -24.0000 -29.5000 Du        
   2106 ****       -11.0000 -24.0000 -29.2500 Du        
   2107 ****       -11.0000 -24.0000 -29.0000 Du        
   2108 ****       -11.0000 -24.0000 -28.7500 Du        
   2109 ****       -11.0000 -24.0000 -28.5000 Du        
   2110 ****       -11.0000 -23.7500 -29.7500 Du        
   2111 ****       -11.0000 -23.7500 -29.5000 Du        
   2112 ****       -11.0000 -23.7500 -29.2500 Du        
   2113 ****       -11.0000 -23.7500 -29.0000 Du        
   2114 ****       -11.0000 -23.7500 -28.7500 Du        
   2115 ****       -11.0000 -23.7500 -28.5000 Du        
   2116 ****       -11.0000 -23.5000 -29.2500 Du        
   2117 ****       -11.0000 -23.5000 -29.0000 Du        
   2118 ****       -11.0000 -23.5000 -28.7500 Du        
   2119 ****       -11.0000 -23.5000 -28.5000 Du        
   2120 ****       -11.0000 -23.2500 -29.2500 Du        
   2121 ****       -11.0000 -23.2500 -29.0000 Du        
   2122 ****       -11.0000 -23.2500 -28.7500 Du        
   2123 ****       -11.0000 -23.2500 -28.5000 Du        
   2124 ****       -11.0000 -23.2500 -28.2500 Du        
   2125 ****       -11.0000 -23.0000 -28.7500 Du        
   2126 ****       -11.0000 -23.0000 -28.5000 Du        
   2127 ****       -11.0000 -23.0000 -28.2500 Du        
   2128 ****       -11.0000 -22.7500 -28.2500 Du        
   2129 ****       -11.0000 -21.5000 -26.2500 Du        
   2130 ****       -11.0000 -21.5000 -26.0000 Du        
   2131 ****       -11.0000 -21.5000 -25.5000 Du        
   2132 ****       -11.0000 -21.5000 -25.2500 Du        
   2133 ****       -11.0000 -21.2500 -26.2500 Du        
   2134 ****       -11.0000 -21.2500 -26.0000 Du        
   2135 ****       -11.0000 -21.2500 -25.7500 Du        
   2136 ****       -11.0000 -21.2500 -25.5000 Du        
   2137 ****       -11.0000 -21.2500 -25.2500 Du        
   2138 ****       -11.0000 -21.2500 -25.0000 Du        
   2139 ****       -11.0000 -21.2500 -24.7500 Du        
   2140 ****       -11.0000 -21.2500 -24.5000 Du        
   2141 ****       -11.0000 -21.2500 -24.2500 Du        
   2142 ****       -11.0000 -21.2500 -24.0000 Du        
   2143 ****       -11.0000 -21.2500 -23.7500 Du        
   2144 ****       -11.0000 -21.0000 -26.2500 Du        
   2145 ****       -11.0000 -21.0000 -26.0000 Du        
   2146 ****       -11.0000 -21.0000 -25.7500 Du        
   2147 ****       -11.0000 -21.0000 -25.5000 Du        
   2148 ****       -11.0000 -21.0000 -25.2500 Du        
   2149 ****       -11.0000 -21.0000 -25.0000 Du        
   2150 ****       -11.0000 -21.0000 -24.7500 Du        
   2151 ****       -11.0000 -21.0000 -24.5000 Du        
   2152 ****       -11.0000 -21.0000 -24.2500 Du        
   2153 ****       -11.0000 -21.0000 -24.0000 Du        
   2154 ****       -11.0000 -21.0000 -23.7500 Du        
   2155 ****       -11.0000 -20.7500 -26.0000 Du        
   2156 ****       -11.0000 -20.7500 -25.7500 Du        
   2157 ****       -11.0000 -20.7500 -25.5000 Du        
   2158 ****       -11.0000 -20.7500 -25.2500 Du        
   2159 ****       -11.0000 -20.7500 -25.0000 Du        
   2160 ****       -11.0000 -20.7500 -24.7500 Du        
   2161 ****       -11.0000 -20.7500 -24.5000 Du        
   2162 ****       -11.0000 -20.7500 -24.2500 Du        
   2163 ****       -11.0000 -20.7500 -24.0000 Du        
   2164 ****       -11.0000 -20.5000 -25.7500 Du        
   2165 ****       -11.0000 -20.5000 -25.5000 Du        
   2166 ****       -11.0000 -20.5000 -25.2500 Du        
   2167 ****       -11.0000 -20.5000 -25.0000 Du        
   2168 ****       -11.0000 -20.5000 -24.7500 Du        
   2169 ****       -11.0000 -20.5000 -24.5000 Du        
   2170 ****       -11.0000 -20.5000 -24.2500 Du        
   2171 ****       -11.0000 -20.5000 -24.0000 Du        
   2172 ****       -11.0000 -20.2500 -25.7500 Du        
   2173 ****       -11.0000 -20.2500 -25.5000 Du        
   2174 ****       -11.0000 -20.2500 -25.2500 Du        
   2175 ****       -11.0000 -20.2500 -25.0000 Du        
   2176 ****       -11.0000 -20.2500 -24.7500 Du        
   2177 ****       -11.0000 -20.2500 -24.5000 Du        
   2178 ****       -11.0000 -20.2500 -24.2500 Du        
   2179 ****       -11.0000 -20.0000 -25.5000 Du        
   2180 ****       -11.0000 -20.0000 -25.2500 Du        
   2181 ****       -11.0000 -20.0000 -25.0000 Du        
   2182 ****       -11.0000 -20.0000 -24.7500 Du        
   2183 ****       -11.0000 -20.0000 -24.5000 Du        
   2184 ****       -11.0000 -20.0000 -24.2500 Du        
   2185 ****       -11.0000 -19.7500 -25.5000 Du        
   2186 ****       -11.0000 -19.7500 -25.2500 Du        
   2187 ****       -11.0000 -19.7500 -25.0000 Du        
   2188 ****       -11.0000 -19.7500 -24.7500 Du        
   2189 ****       -11.0000 -19.7500 -24.5000 Du        
   2190 ****       -11.0000 -19.5000 -25.2500 Du        
   2191 ****       -11.0000 -19.5000 -25.0000 Du        
   2192 ****       -11.0000 -19.5000 -24.7500 Du        
   2193 ****       -11.0000 -19.2500 -25.2500 Du        
   2194 ****       -11.0000 -19.2500 -25.0000 Du        
   2195 ****       -10.7500 -28.7500 -31.0000 Du        
   2196 ****       -10.7500 -28.7500 -30.7500 Du        
   2197 ****       -10.7500 -28.5000 -31.2500 Du        
   2198 ****       -10.7500 -28.5000 -31.0000 Du        
   2199 ****       -10.7500 -28.5000 -30.7500 Du        
   2200 ****       -10.7500 -28.5000 -30.5000 Du        
   2201 ****       -10.7500 -28.2500 -31.5000 Du        
   2202 ****       -10.7500 -28.2500 -31.2500 Du        
   2203 ****       -10.7500 -28.2500 -31.0000 Du        
   2204 ****       -10.7500 -28.2500 -30.7500 Du        
   2205 ****       -10.7500 -28.2500 -30.5000 Du        
   2206 ****       -10.7500 -28.2500 -30.2500 Du        
   2207 ****       -10.7500 -28.0000 -31.5000 Du        
   2208 ****       -10.7500 -28.0000 -31.2500 Du        
   2209 ****       -10.7500 -28.0000 -31.0000 Du        
   2210 ****       -10.7500 -28.0000 -30.7500 Du        
   2211 ****       -10.7500 -28.0000 -30.5000 Du        
   2212 ****       -10.7500 -28.0000 -30.2500 Du        
   2213 ****       -10.7500 -28.0000 -30.0000 Du        
   2214 ****       -10.7500 -28.0000 -29.7500 Du        
   2215 ****       -10.7500 -27.7500 -31.5000 Du        
   2216 ****       -10.7500 -27.7500 -31.2500 Du        
   2217 ****       -10.7500 -27.7500 -31.0000 Du        
   2218 ****       -10.7500 -27.7500 -30.7500 Du        
   2219 ****       -10.7500 -27.7500 -30.5000 Du        
   2220 ****       -10.7500 -27.7500 -30.2500 Du        
   2221 ****       -10.7500 -27.7500 -30.0000 Du        
   2222 ****       -10.7500 -27.7500 -29.7500 Du        
   2223 ****       -10.7500 -27.7500 -29.5000 Du        
   2224 ****       -10.7500 -27.5000 -31.2500 Du        
   2225 ****       -10.7500 -27.5000 -31.0000 Du        
   2226 ****       -10.7500 -27.5000 -30.7500 Du        
   2227 ****       -10.7500 -27.5000 -30.5000 Du        
   2228 ****       -10.7500 -27.5000 -30.2500 Du        
   2229 ****       -10.7500 -27.5000 -30.0000 Du        
   2230 ****       -10.7500 -27.5000 -29.7500 Du        
   2231 ****       -10.7500 -27.5000 -29.5000 Du        
   2232 ****       -10.7500 -27.5000 -29.2500 Du        
   2233 ****       -10.7500 -27.2500 -31.2500 Du        
   2234 ****       -10.7500 -27.2500 -31.0000 Du        
   2235 ****       -10.7500 -27.2500 -30.7500 Du        
   2236 ****       -10.7500 -27.2500 -30.5000 Du        
   2237 ****       -10.7500 -27.2500 -30.2500 Du        
   2238 ****       -10.7500 -27.2500 -30.0000 Du        
   2239 ****       -10.7500 -27.2500 -29.7500 Du        
   2240 ****       -10.7500 -27.2500 -29.5000 Du        
   2241 ****       -10.7500 -27.2500 -29.2500 Du        
   2242 ****       -10.7500 -27.2500 -29.0000 Du        
   2243 ****       -10.7500 -27.0000 -31.2500 Du        
   2244 ****       -10.7500 -27.0000 -31.0000 Du        
   2245 ****       -10.7500 -27.0000 -30.7500 Du        
   2246 ****       -10.7500 -27.0000 -30.5000 Du        
   2247 ****       -10.7500 -27.0000 -30.2500 Du        
   2248 ****       -10.7500 -27.0000 -30.0000 Du        
   2249 ****       -10.7500 -27.0000 -29.7500 Du        
   2250 ****       -10.7500 -27.0000 -29.5000 Du        
   2251 ****       -10.7500 -27.0000 -29.2500 Du        
   2252 ****       -10.7500 -27.0000 -29.0000 Du        
   2253 ****       -10.7500 -27.0000 -28.7500 Du        
   2254 ****       -10.7500 -26.7500 -31.2500 Du        
   2255 ****       -10.7500 -26.7500 -31.0000 Du        
   2256 ****       -10.7500 -26.7500 -30.7500 Du        
   2257 ****       -10.7500 -26.7500 -30.5000 Du        
   2258 ****       -10.7500 -26.7500 -30.2500 Du        
   2259 ****       -10.7500 -26.7500 -30.0000 Du        
   2260 ****       -10.7500 -26.7500 -29.7500 Du        
   2261 ****       -10.7500 -26.7500 -29.5000 Du        
   2262 ****       -10.7500 -26.7500 -29.2500 Du        
   2263 ****       -10.7500 -26.7500 -29.0000 Du        
   2264 ****       -10.7500 -26.7500 -28.7500 Du        
   2265 ****       -10.7500 -26.5000 -31.0000 Du        
   2266 ****       -10.7500 -26.5000 -30.7500 Du        
   2267 ****       -10.7500 -26.5000 -30.5000 Du        
   2268 ****       -10.7500 -26.5000 -30.2500 Du        
   2269 ****       -10.7500 -26.5000 -30.0000 Du        
   2270 ****       -10.7500 -26.5000 -29.7500 Du        
   2271 ****       -10.7500 -26.5000 -29.5000 Du        
   2272 ****       -10.7500 -26.5000 -29.2500 Du        
   2273 ****       -10.7500 -26.5000 -29.0000 Du        
   2274 ****       -10.7500 -26.5000 -28.7500 Du        
   2275 ****       -10.7500 -26.2500 -31.0000 Du        
   2276 ****       -10.7500 -26.2500 -30.7500 Du        
   2277 ****       -10.7500 -26.2500 -30.5000 Du        
   2278 ****       -10.7500 -26.2500 -30.2500 Du        
   2279 ****       -10.7500 -26.2500 -30.0000 Du        
   2280 ****       -10.7500 -26.2500 -29.7500 Du        
   2281 ****       -10.7500 -26.2500 -29.5000 Du        
   2282 ****       -10.7500 -26.2500 -29.2500 Du        
   2283 ****       -10.7500 -26.2500 -29.0000 Du        
   2284 ****       -10.7500 -26.2500 -28.7500 Du        
   2285 ****       -10.7500 -26.0000 -31.0000 Du        
   2286 ****       -10.7500 -26.0000 -30.7500 Du        
   2287 ****       -10.7500 -26.0000 -30.5000 Du        
   2288 ****       -10.7500 -26.0000 -30.2500 Du        
   2289 ****       -10.7500 -26.0000 -30.0000 Du        
   2290 ****       -10.7500 -26.0000 -29.7500 Du        
   2291 ****       -10.7500 -26.0000 -29.5000 Du        
   2292 ****       -10.7500 -26.0000 -29.2500 Du        
   2293 ****       -10.7500 -26.0000 -29.0000 Du        
   2294 ****       -10.7500 -26.0000 -28.7500 Du        
   2295 ****       -10.7500 -25.7500 -30.7500 Du        
   2296 ****       -10.7500 -25.7500 -30.5000 Du        
   2297 ****       -10.7500 -25.7500 -30.2500 Du        
   2298 ****       -10.7500 -25.7500 -30.0000 Du        
   2299 ****       -10.7500 -25.7500 -29.7500 Du        
   2300 ****       -10.7500 -25.7500 -29.5000 Du        
   2301 ****       -10.7500 -25.7500 -29.2500 Du        
   2302 ****       -10.7500 -25.7500 -29.0000 Du        
   2303 ****       -10.7500 -25.7500 -28.7500 Du        
   2304 ****       -10.7500 -25.5000 -30.5000 Du        
   2305 ****       -10.7500 -25.5000 -30.2500 Du        
   2306 ****       -10.7500 -25.5000 -30.0000 Du        
   2307 ****       -10.7500 -25.5000 -29.7500 Du        
   2308 ****       -10.7500 -25.5000 -29.5000 Du        
   2309 ****       -10.7500 -25.5000 -29.2500 Du        
   2310 ****       -10.7500 -25.5000 -29.0000 Du        
   2311 ****       -10.7500 -25.5000 -28.7500 Du        
   2312 ****       -10.7500 -25.2500 -30.2500 Du        
   2313 ****       -10.7500 -25.2500 -30.0000 Du        
   2314 ****       -10.7500 -25.2500 -29.7500 Du        
   2315 ****       -10.7500 -25.2500 -29.5000 Du        
   2316 ****       -10.7500 -25.2500 -29.2500 Du        
   2317 ****       -10.7500 -25.2500 -29.0000 Du        
   2318 ****       -10.7500 -25.2500 -28.7500 Du        
   2319 ****       -10.7500 -25.0000 -30.2500 Du        
   2320 ****       -10.7500 -25.0000 -30.0000 Du        
   2321 ****       -10.7500 -25.0000 -29.7500 Du        
   2322 ****       -10.7500 -25.0000 -29.5000 Du        
   2323 ****       -10.7500 -25.0000 -29.2500 Du        
   2324 ****       -10.7500 -25.0000 -29.0000 Du        
   2325 ****       -10.7500 -25.0000 -28.7500 Du        
   2326 ****       -10.7500 -24.7500 -30.0000 Du        
   2327 ****       -10.7500 -24.7500 -29.7500 Du        
   2328 ****       -10.7500 -24.7500 -29.5000 Du        
   2329 ****       -10.7500 -24.7500 -29.2500 Du        
   2330 ****       -10.7500 -24.7500 -29.0000 Du        
   2331 ****       -10.7500 -24.7500 -28.7500 Du        
   2332 ****       -10.7500 -24.5000 -30.0000 Du        
   2333 ****       -10.7500 -24.5000 -29.7500 Du        
   2334 ****       -10.7500 -24.5000 -29.5000 Du        
   2335 ****       -10.7500 -24.5000 -29.2500 Du        
   2336 ****       -10.7500 -24.5000 -29.0000 Du        
   2337 ****       -10.7500 -24.5000 -28.7500 Du        
   2338 ****       -10.7500 -24.2500 -30.0000 Du        
   2339 ****       -10.7500 -24.2500 -29.7500 Du        
   2340 ****       -10.7500 -24.2500 -29.5000 Du        
   2341 ****       -10.7500 -24.2500 -29.2500 Du        
   2342 ****       -10.7500 -24.2500 -29.0000 Du        
   2343 ****       -10.7500 -24.2500 -28.7500 Du        
   2344 ****       -10.7500 -24.0000 -29.7500 Du        
   2345 ****       -10.7500 -24.0000 -29.5000 Du        
   2346 ****       -10.7500 -24.0000 -29.2500 Du        
   2347 ****       -10.7500 -24.0000 -29.0000 Du        
   2348 ****       -10.7500 -24.0000 -28.7500 Du        
   2349 ****       -10.7500 -23.7500 -29.7500 Du        
   2350 ****       -10.7500 -23.7500 -29.5000 Du        
   2351 ****       -10.7500 -23.7500 -29.2500 Du        
   2352 ****       -10.7500 -23.7500 -29.0000 Du        
   2353 ****       -10.7500 -23.7500 -28.7500 Du        
   2354 ****       -10.7500 -23.7500 -28.5000 Du        
   2355 ****       -10.7500 -23.5000 -29.2500 Du        
   2356 ****       -10.7500 -23.5000 -29.0000 Du        
   2357 ****       -10.7500 -23.5000 -28.7500 Du        
   2358 ****       -10.7500 -23.2500 -29.0000 Du        
   2359 ****       -10.7500 -23.2500 -28.7500 Du        
   2360 ****       -10.7500 -21.5000 -26.2500 Du        
   2361 ****       -10.7500 -21.2500 -26.5000 Du        
   2362 ****       -10.7500 -21.2500 -26.2500 Du        
   2363 ****       -10.7500 -21.2500 -26.0000 Du        
   2364 ****       -10.7500 -21.2500 -25.7500 Du        
   2365 ****       -10.7500 -21.2500 -25.5000 Du        
   2366 ****       -10.7500 -21.2500 -25.2500 Du        
   2367 ****       -10.7500 -21.2500 -25.0000 Du        
   2368 ****       -10.7500 -21.2500 -24.7500 Du        
   2369 ****       -10.7500 -21.2500 -24.5000 Du        
   2370 ****       -10.7500 -21.2500 -24.2500 Du        
   2371 ****       -10.7500 -21.2500 -24.0000 Du        
   2372 ****       -10.7500 -21.0000 -26.2500 Du        
   2373 ****       -10.7500 -21.0000 -26.0000 Du        
   2374 ****       -10.7500 -21.0000 -25.7500 Du        
   2375 ****       -10.7500 -21.0000 -25.5000 Du        
   2376 ****       -10.7500 -21.0000 -25.2500 Du        
   2377 ****       -10.7500 -21.0000 -25.0000 Du        
   2378 ****       -10.7500 -21.0000 -24.7500 Du        
   2379 ****       -10.7500 -21.0000 -24.5000 Du        
   2380 ****       -10.7500 -21.0000 -24.2500 Du        
   2381 ****       -10.7500 -21.0000 -24.0000 Du        
   2382 ****       -10.7500 -20.7500 -26.0000 Du        
   2383 ****       -10.7500 -20.7500 -25.7500 Du        
   2384 ****       -10.7500 -20.7500 -25.5000 Du        
   2385 ****       -10.7500 -20.7500 -25.2500 Du        
   2386 ****       -10.7500 -20.7500 -25.0000 Du        
   2387 ****       -10.7500 -20.7500 -24.7500 Du        
   2388 ****       -10.7500 -20.7500 -24.5000 Du        
   2389 ****       -10.7500 -20.7500 -24.2500 Du        
   2390 ****       -10.7500 -20.7500 -24.0000 Du        
   2391 ****       -10.7500 -20.5000 -25.7500 Du        
   2392 ****       -10.7500 -20.5000 -25.5000 Du        
   2393 ****       -10.7500 -20.5000 -25.2500 Du        
   2394 ****       -10.7500 -20.5000 -25.0000 Du        
   2395 ****       -10.7500 -20.5000 -24.7500 Du        
   2396 ****       -10.7500 -20.5000 -24.5000 Du        
   2397 ****       -10.7500 -20.5000 -24.2500 Du        
   2398 ****       -10.7500 -20.2500 -25.7500 Du        
   2399 ****       -10.7500 -20.2500 -25.5000 Du        
   2400 ****       -10.7500 -20.2500 -25.2500 Du        
   2401 ****       -10.7500 -20.2500 -25.0000 Du        
   2402 ****       -10.7500 -20.2500 -24.7500 Du        
   2403 ****       -10.7500 -20.2500 -24.5000 Du        
   2404 ****       -10.7500 -20.2500 -24.2500 Du        
   2405 ****       -10.7500 -20.0000 -25.5000 Du        
   2406 ****       -10.7500 -20.0000 -25.2500 Du        
   2407 ****       -10.7500 -20.0000 -25.0000 Du        
   2408 ****       -10.7500 -20.0000 -24.7500 Du        
   2409 ****       -10.7500 -20.0000 -24.5000 Du        
   2410 ****       -10.7500 -19.7500 -25.5000 Du        
   2411 ****       -10.7500 -19.7500 -25.2500 Du        
   2412 ****       -10.7500 -19.7500 -25.0000 Du        
   2413 ****       -10.7500 -19.7500 -24.7500 Du        
   2414 ****       -10.7500 -19.5000 -25.0000 Du        
   2415 ****       -10.5000 -28.7500 -31.0000 Du        
   2416 ****       -10.5000 -28.7500 -30.7500 Du        
   2417 ****       -10.5000 -28.7500 -30.5000 Du        
   2418 ****       -10.5000 -28.5000 -31.2500 Du        
   2419 ****       -10.5000 -28.5000 -31.0000 Du        
   2420 ****       -10.5000 -28.5000 -30.7500 Du        
   2421 ****       -10.5000 -28.5000 -30.5000 Du        
   2422 ****       -10.5000 -28.5000 -30.2500 Du        
   2423 ****       -10.5000 -28.2500 -31.5000 Du        
   2424 ****       -10.5000 -28.2500 -31.2500 Du        
   2425 ****       -10.5000 -28.2500 -31.0000 Du        
   2426 ****       -10.5000 -28.2500 -30.7500 Du        
   2427 ****       -10.5000 -28.2500 -30.5000 Du        
   2428 ****       -10.5000 -28.2500 -30.2500 Du        
   2429 ****       -10.5000 -28.2500 -30.0000 Du        
   2430 ****       -10.5000 -28.0000 -31.5000 Du        
   2431 ****       -10.5000 -28.0000 -31.2500 Du        
   2432 ****       -10.5000 -28.0000 -31.0000 Du        
   2433 ****       -10.5000 -28.0000 -30.7500 Du        
   2434 ****       -10.5000 -28.0000 -30.5000 Du        
   2435 ****       -10.5000 -28.0000 -30.2500 Du        
   2436 ****       -10.5000 -28.0000 -30.0000 Du        
   2437 ****       -10.5000 -28.0000 -29.7500 Du        
   2438 ****       -10.5000 -27.7500 -31.5000 Du        
   2439 ****       -10.5000 -27.7500 -31.2500 Du        
   2440 ****       -10.5000 -27.7500 -31.0000 Du        
   2441 ****       -10.5000 -27.7500 -30.7500 Du        
   2442 ****       -10.5000 -27.7500 -30.5000 Du        
   2443 ****       -10.5000 -27.7500 -30.2500 Du        
   2444 ****       -10.5000 -27.7500 -30.0000 Du        
   2445 ****       -10.5000 -27.7500 -29.7500 Du        
   2446 ****       -10.5000 -27.7500 -29.5000 Du        
   2447 ****       -10.5000 -27.5000 -31.5000 Du        
   2448 ****       -10.5000 -27.5000 -31.2500 Du        
   2449 ****       -10.5000 -27.5000 -31.0000 Du        
   2450 ****       -10.5000 -27.5000 -30.7500 Du        
   2451 ****       -10.5000 -27.5000 -30.5000 Du        
   2452 ****       -10.5000 -27.5000 -30.2500 Du        
   2453 ****       -10.5000 -27.5000 -30.0000 Du        
   2454 ****       -10.5000 -27.5000 -29.7500 Du        
   2455 ****       -10.5000 -27.5000 -29.5000 Du        
   2456 ****       -10.5000 -27.2500 -31.2500 Du        
   2457 ****       -10.5000 -27.2500 -31.0000 Du        
   2458 ****       -10.5000 -27.2500 -30.7500 Du        
   2459 ****       -10.5000 -27.2500 -30.5000 Du        
   2460 ****       -10.5000 -27.2500 -30.2500 Du        
   2461 ****       -10.5000 -27.2500 -30.0000 Du        
   2462 ****       -10.5000 -27.2500 -29.7500 Du        
   2463 ****       -10.5000 -27.2500 -29.5000 Du        
   2464 ****       -10.5000 -27.2500 -29.2500 Du        
   2465 ****       -10.5000 -27.2500 -29.0000 Du        
   2466 ****       -10.5000 -27.0000 -31.2500 Du        
   2467 ****       -10.5000 -27.0000 -31.0000 Du        
   2468 ****       -10.5000 -27.0000 -30.7500 Du        
   2469 ****       -10.5000 -27.0000 -30.5000 Du        
   2470 ****       -10.5000 -27.0000 -30.2500 Du        
   2471 ****       -10.5000 -27.0000 -30.0000 Du        
   2472 ****       -10.5000 -27.0000 -29.7500 Du        
   2473 ****       -10.5000 -27.0000 -29.5000 Du        
   2474 ****       -10.5000 -27.0000 -29.2500 Du        
   2475 ****       -10.5000 -27.0000 -29.0000 Du        
   2476 ****       -10.5000 -26.7500 -31.2500 Du        
   2477 ****       -10.5000 -26.7500 -31.0000 Du        
   2478 ****       -10.5000 -26.7500 -30.7500 Du        
   2479 ****       -10.5000 -26.7500 -30.5000 Du        
   2480 ****       -10.5000 -26.7500 -30.2500 Du        
   2481 ****       -10.5000 -26.7500 -30.0000 Du        
   2482 ****       -10.5000 -26.7500 -29.7500 Du        
   2483 ****       -10.5000 -26.7500 -29.5000 Du        
   2484 ****       -10.5000 -26.7500 -29.2500 Du        
   2485 ****       -10.5000 -26.7500 -29.0000 Du        
   2486 ****       -10.5000 -26.5000 -31.0000 Du        
   2487 ****       -10.5000 -26.5000 -30.7500 Du        
   2488 ****       -10.5000 -26.5000 -30.5000 Du        
   2489 ****       -10.5000 -26.5000 -30.2500 Du        
   2490 ****       -10.5000 -26.5000 -30.0000 Du        
   2491 ****       -10.5000 -26.5000 -29.7500 Du        
   2492 ****       -10.5000 -26.5000 -29.5000 Du        
   2493 ****       -10.5000 -26.5000 -29.2500 Du        
   2494 ****       -10.5000 -26.5000 -29.0000 Du        
   2495 ****       -10.5000 -26.2500 -30.7500 Du        
   2496 ****       -10.5000 -26.2500 -30.5000 Du        
   2497 ****       -10.5000 -26.2500 -30.2500 Du        
   2498 ****       -10.5000 -26.2500 -30.0000 Du        
   2499 ****       -10.5000 -26.2500 -29.7500 Du        
   2500 ****       -10.5000 -26.2500 -29.5000 Du        
   2501 ****       -10.5000 -26.2500 -29.2500 Du        
   2502 ****       -10.5000 -26.2500 -29.0000 Du        
   2503 ****       -10.5000 -26.0000 -30.7500 Du        
   2504 ****       -10.5000 -26.0000 -30.5000 Du        
   2505 ****       -10.5000 -26.0000 -30.2500 Du        
   2506 ****       -10.5000 -26.0000 -30.0000 Du        
   2507 ****       -10.5000 -26.0000 -29.7500 Du        
   2508 ****       -10.5000 -26.0000 -29.5000 Du        
   2509 ****       -10.5000 -26.0000 -29.2500 Du        
   2510 ****       -10.5000 -26.0000 -29.0000 Du        
   2511 ****       -10.5000 -25.7500 -30.5000 Du        
   2512 ****       -10.5000 -25.7500 -30.2500 Du        
   2513 ****       -10.5000 -25.7500 -30.0000 Du        
   2514 ****       -10.5000 -25.7500 -29.7500 Du        
   2515 ****       -10.5000 -25.7500 -29.5000 Du        
   2516 ****       -10.5000 -25.7500 -29.2500 Du        
   2517 ****       -10.5000 -25.7500 -29.0000 Du        
   2518 ****       -10.5000 -25.5000 -30.2500 Du        
   2519 ****       -10.5000 -25.5000 -30.0000 Du        
   2520 ****       -10.5000 -25.5000 -29.7500 Du        
   2521 ****       -10.5000 -25.5000 -29.5000 Du        
   2522 ****       -10.5000 -25.5000 -29.2500 Du        
   2523 ****       -10.5000 -25.5000 -29.0000 Du        
   2524 ****       -10.5000 -25.2500 -30.2500 Du        
   2525 ****       -10.5000 -25.2500 -30.0000 Du        
   2526 ****       -10.5000 -25.2500 -29.7500 Du        
   2527 ****       -10.5000 -25.2500 -29.5000 Du        
   2528 ****       -10.5000 -25.2500 -29.2500 Du        
   2529 ****       -10.5000 -25.2500 -29.0000 Du        
   2530 ****       -10.5000 -25.0000 -30.0000 Du        
   2531 ****       -10.5000 -25.0000 -29.7500 Du        
   2532 ****       -10.5000 -25.0000 -29.5000 Du        
   2533 ****       -10.5000 -25.0000 -29.2500 Du        
   2534 ****       -10.5000 -25.0000 -29.0000 Du        
   2535 ****       -10.5000 -24.7500 -30.0000 Du        
   2536 ****       -10.5000 -24.7500 -29.7500 Du        
   2537 ****       -10.5000 -24.7500 -29.5000 Du        
   2538 ****       -10.5000 -24.7500 -29.2500 Du        
   2539 ****       -10.5000 -24.7500 -29.0000 Du        
   2540 ****       -10.5000 -24.5000 -29.5000 Du        
   2541 ****       -10.5000 -24.5000 -29.2500 Du        
   2542 ****       -10.5000 -24.2500 -29.5000 Du        
   2543 ****       -10.5000 -24.2500 -29.2500 Du        
   2544 ****       -10.5000 -24.2500 -29.0000 Du        
   2545 ****       -10.5000 -24.0000 -29.5000 Du        
   2546 ****       -10.5000 -24.0000 -29.2500 Du        
   2547 ****       -10.5000 -24.0000 -29.0000 Du        
   2548 ****       -10.5000 -23.7500 -29.5000 Du        
   2549 ****       -10.5000 -23.7500 -29.2500 Du        
   2550 ****       -10.5000 -23.7500 -29.0000 Du        
   2551 ****       -10.5000 -21.2500 -26.2500 Du        
   2552 ****       -10.5000 -21.2500 -26.0000 Du        
   2553 ****       -10.5000 -21.2500 -25.7500 Du        
   2554 ****       -10.5000 -21.2500 -25.5000 Du        
   2555 ****       -10.5000 -21.2500 -25.2500 Du        
   2556 ****       -10.5000 -21.2500 -25.0000 Du        
   2557 ****       -10.5000 -21.2500 -24.7500 Du        
   2558 ****       -10.5000 -21.2500 -24.5000 Du        
   2559 ****       -10.5000 -21.2500 -24.2500 Du        
   2560 ****       -10.5000 -21.0000 -26.0000 Du        
   2561 ****       -10.5000 -21.0000 -25.7500 Du        
   2562 ****       -10.5000 -21.0000 -25.5000 Du        
   2563 ****       -10.5000 -21.0000 -25.2500 Du        
   2564 ****       -10.5000 -21.0000 -25.0000 Du        
   2565 ****       -10.5000 -21.0000 -24.7500 Du        
   2566 ****       -10.5000 -21.0000 -24.5000 Du        
   2567 ****       -10.5000 -21.0000 -24.2500 Du        
   2568 ****       -10.5000 -20.7500 -26.0000 Du        
   2569 ****       -10.5000 -20.7500 -25.7500 Du        
   2570 ****       -10.5000 -20.7500 -25.5000 Du        
   2571 ****       -10.5000 -20.7500 -25.2500 Du        
   2572 ****       -10.5000 -20.7500 -25.0000 Du        
   2573 ****       -10.5000 -20.7500 -24.7500 Du        
   2574 ****       -10.5000 -20.7500 -24.5000 Du        
   2575 ****       -10.5000 -20.7500 -24.2500 Du        
   2576 ****       -10.5000 -20.5000 -25.7500 Du        
   2577 ****       -10.5000 -20.5000 -25.5000 Du        
   2578 ****       -10.5000 -20.5000 -25.2500 Du        
   2579 ****       -10.5000 -20.5000 -25.0000 Du        
   2580 ****       -10.5000 -20.5000 -24.7500 Du        
   2581 ****       -10.5000 -20.5000 -24.5000 Du        
   2582 ****       -10.5000 -20.2500 -25.7500 Du        
   2583 ****       -10.5000 -20.2500 -25.5000 Du        
   2584 ****       -10.5000 -20.2500 -25.2500 Du        
   2585 ****       -10.5000 -20.2500 -25.0000 Du        
   2586 ****       -10.5000 -20.2500 -24.7500 Du        
   2587 ****       -10.5000 -20.2500 -24.5000 Du        
   2588 ****       -10.5000 -20.0000 -25.5000 Du        
   2589 ****       -10.5000 -20.0000 -25.2500 Du        
   2590 ****       -10.5000 -20.0000 -25.0000 Du        
   2591 ****       -10.5000 -20.0000 -24.7500 Du        
   2592 ****       -10.5000 -19.7500 -25.2500 Du        
   2593 ****       -10.5000 -19.7500 -25.0000 Du        
   2594 ****       -10.2500 -29.0000 -30.7500 Du        
   2595 ****       -10.2500 -28.7500 -31.0000 Du        
   2596 ****       -10.2500 -28.7500 -30.7500 Du        
   2597 ****       -10.2500 -28.7500 -30.5000 Du        
   2598 ****       -10.2500 -28.7500 -30.2500 Du        
   2599 ****       -10.2500 -28.5000 -31.2500 Du        
   2600 ****       -10.2500 -28.5000 -31.0000 Du        
   2601 ****       -10.2500 -28.5000 -30.7500 Du        
   2602 ****       -10.2500 -28.5000 -30.5000 Du        
   2603 ****       -10.2500 -28.5000 -30.2500 Du        
   2604 ****       -10.2500 -28.2500 -31.5000 Du        
   2605 ****       -10.2500 -28.2500 -31.2500 Du        
   2606 ****       -10.2500 -28.2500 -31.0000 Du        
   2607 ****       -10.2500 -28.2500 -30.7500 Du        
   2608 ****       -10.2500 -28.2500 -30.5000 Du        
   2609 ****       -10.2500 -28.2500 -30.2500 Du        
   2610 ****       -10.2500 -28.2500 -30.0000 Du        
   2611 ****       -10.2500 -28.0000 -31.5000 Du        
   2612 ****       -10.2500 -28.0000 -31.2500 Du        
   2613 ****       -10.2500 -28.0000 -31.0000 Du        
   2614 ****       -10.2500 -28.0000 -30.7500 Du        
   2615 ****       -10.2500 -28.0000 -30.5000 Du        
   2616 ****       -10.2500 -28.0000 -30.2500 Du        
   2617 ****       -10.2500 -28.0000 -30.0000 Du        
   2618 ****       -10.2500 -28.0000 -29.7500 Du        
   2619 ****       -10.2500 -27.7500 -31.5000 Du        
   2620 ****       -10.2500 -27.7500 -31.2500 Du        
   2621 ****       -10.2500 -27.7500 -31.0000 Du        
   2622 ****       -10.2500 -27.7500 -30.7500 Du        
   2623 ****       -10.2500 -27.7500 -30.5000 Du        
   2624 ****       -10.2500 -27.7500 -30.2500 Du        
   2625 ****       -10.2500 -27.7500 -30.0000 Du        
   2626 ****       -10.2500 -27.7500 -29.7500 Du        
   2627 ****       -10.2500 -27.7500 -29.5000 Du        
   2628 ****       -10.2500 -27.5000 -31.5000 Du        
   2629 ****       -10.2500 -27.5000 -31.2500 Du        
   2630 ****       -10.2500 -27.5000 -31.0000 Du        
   2631 ****       -10.2500 -27.5000 -30.7500 Du        
   2632 ****       -10.2500 -27.5000 -30.5000 Du        
   2633 ****       -10.2500 -27.5000 -30.2500 Du        
   2634 ****       -10.2500 -27.5000 -30.0000 Du        
   2635 ****       -10.2500 -27.5000 -29.7500 Du        
   2636 ****       -10.2500 -27.5000 -29.5000 Du        
   2637 ****       -10.2500 -27.5000 -29.2500 Du        
   2638 ****       -10.2500 -27.2500 -31.2500 Du        
   2639 ****       -10.2500 -27.2500 -31.0000 Du        
   2640 ****       -10.2500 -27.2500 -30.7500 Du        
   2641 ****       -10.2500 -27.2500 -30.5000 Du        
   2642 ****       -10.2500 -27.2500 -30.2500 Du        
   2643 ****       -10.2500 -27.2500 -30.0000 Du        
   2644 ****       -10.2500 -27.2500 -29.7500 Du        
   2645 ****       -10.2500 -27.2500 -29.5000 Du        
   2646 ****       -10.2500 -27.2500 -29.2500 Du        
   2647 ****       -10.2500 -27.2500 -29.0000 Du        
   2648 ****       -10.2500 -27.0000 -31.2500 Du        
   2649 ****       -10.2500 -27.0000 -31.0000 Du        
   2650 ****       -10.2500 -27.0000 -30.7500 Du        
   2651 ****       -10.2500 -27.0000 -30.5000 Du        
   2652 ****       -10.2500 -27.0000 -30.2500 Du        
   2653 ****       -10.2500 -27.0000 -30.0000 Du        
   2654 ****       -10.2500 -27.0000 -29.7500 Du        
   2655 ****       -10.2500 -27.0000 -29.5000 Du        
   2656 ****       -10.2500 -27.0000 -29.2500 Du        
   2657 ****       -10.2500 -27.0000 -29.0000 Du        
   2658 ****       -10.2500 -26.7500 -31.0000 Du        
   2659 ****       -10.2500 -26.7500 -30.7500 Du        
   2660 ****       -10.2500 -26.7500 -30.5000 Du        
   2661 ****       -10.2500 -26.7500 -30.2500 Du        
   2662 ****       -10.2500 -26.7500 -30.0000 Du        
   2663 ****       -10.2500 -26.7500 -29.7500 Du        
   2664 ****       -10.2500 -26.7500 -29.5000 Du        
   2665 ****       -10.2500 -26.7500 -29.2500 Du        
   2666 ****       -10.2500 -26.7500 -29.0000 Du        
   2667 ****       -10.2500 -26.5000 -30.7500 Du        
   2668 ****       -10.2500 -26.5000 -30.5000 Du        
   2669 ****       -10.2500 -26.5000 -30.2500 Du        
   2670 ****       -10.2500 -26.5000 -30.0000 Du        
   2671 ****       -10.2500 -26.5000 -29.7500 Du        
   2672 ****       -10.2500 -26.5000 -29.5000 Du        
   2673 ****       -10.2500 -26.5000 -29.2500 Du        
   2674 ****       -10.2500 -26.5000 -29.0000 Du        
   2675 ****       -10.2500 -26.2500 -30.7500 Du        
   2676 ****       -10.2500 -26.2500 -30.5000 Du        
   2677 ****       -10.2500 -26.2500 -30.2500 Du        
   2678 ****       -10.2500 -26.2500 -30.0000 Du        
   2679 ****       -10.2500 -26.2500 -29.7500 Du        
   2680 ****       -10.2500 -26.2500 -29.5000 Du        
   2681 ****       -10.2500 -26.2500 -29.2500 Du        
   2682 ****       -10.2500 -26.2500 -29.0000 Du        
   2683 ****       -10.2500 -26.0000 -30.5000 Du        
   2684 ****       -10.2500 -26.0000 -30.2500 Du        
   2685 ****       -10.2500 -26.0000 -30.0000 Du        
   2686 ****       -10.2500 -26.0000 -29.7500 Du        
   2687 ****       -10.2500 -26.0000 -29.5000 Du        
   2688 ****       -10.2500 -26.0000 -29.2500 Du        
   2689 ****       -10.2500 -26.0000 -29.0000 Du        
   2690 ****       -10.2500 -25.7500 -30.2500 Du        
   2691 ****       -10.2500 -25.7500 -30.0000 Du        
   2692 ****       -10.2500 -25.7500 -29.7500 Du        
   2693 ****       -10.2500 -25.7500 -29.5000 Du        
   2694 ****       -10.2500 -25.7500 -29.2500 Du        
   2695 ****       -10.2500 -25.7500 -29.0000 Du        
   2696 ****       -10.2500 -25.5000 -30.2500 Du        
   2697 ****       -10.2500 -25.5000 -30.0000 Du        
   2698 ****       -10.2500 -25.5000 -29.7500 Du        
   2699 ****       -10.2500 -25.5000 -29.5000 Du        
   2700 ****       -10.2500 -25.5000 -29.2500 Du        
   2701 ****       -10.2500 -25.5000 -29.0000 Du        
   2702 ****       -10.2500 -25.2500 -30.0000 Du        
   2703 ****       -10.2500 -25.2500 -29.7500 Du        
   2704 ****       -10.2500 -25.2500 -29.5000 Du        
   2705 ****       -10.2500 -25.2500 -29.2500 Du        
   2706 ****       -10.2500 -25.2500 -29.0000 Du        
   2707 ****       -10.2500 -25.0000 -30.0000 Du        
   2708 ****       -10.2500 -25.0000 -29.7500 Du        
   2709 ****       -10.2500 -25.0000 -29.5000 Du        
   2710 ****       -10.2500 -25.0000 -29.2500 Du        
   2711 ****       -10.2500 -25.0000 -29.0000 Du        
   2712 ****       -10.2500 -24.7500 -30.0000 Du        
   2713 ****       -10.2500 -24.7500 -29.7500 Du        
   2714 ****       -10.2500 -24.7500 -29.5000 Du        
   2715 ****       -10.2500 -24.7500 -29.2500 Du        
   2716 ****       -10.2500 -24.7500 -29.0000 Du        
   2717 ****       -10.2500 -24.5000 -29.2500 Du        
   2718 ****       -10.2500 -24.2500 -29.2500 Du        
   2719 ****       -10.2500 -24.0000 -29.5000 Du        
   2720 ****       -10.2500 -24.0000 -29.2500 Du        
   2721 ****       -10.2500 -24.0000 -29.0000 Du        
   2722 ****       -10.2500 -23.7500 -29.2500 Du        
   2723 ****       -10.2500 -23.7500 -29.0000 Du        
   2724 ****       -10.2500 -21.2500 -26.0000 Du        
   2725 ****       -10.2500 -21.2500 -25.7500 Du        
   2726 ****       -10.2500 -21.2500 -25.5000 Du        
   2727 ****       -10.2500 -21.2500 -25.2500 Du        
   2728 ****       -10.2500 -21.2500 -25.0000 Du        
   2729 ****       -10.2500 -21.2500 -24.7500 Du        
   2730 ****       -10.2500 -21.2500 -24.5000 Du        
   2731 ****       -10.2500 -21.0000 -26.0000 Du        
   2732 ****       -10.2500 -21.0000 -25.7500 Du        
   2733 ****       -10.2500 -21.0000 -25.5000 Du        
   2734 ****       -10.2500 -21.0000 -25.2500 Du        
   2735 ****       -10.2500 -21.0000 -25.0000 Du        
   2736 ****       -10.2500 -21.0000 -24.7500 Du        
   2737 ****       -10.2500 -21.0000 -24.5000 Du        
   2738 ****       -10.2500 -21.0000 -24.2500 Du        
   2739 ****       -10.2500 -20.7500 -26.0000 Du        
   2740 ****       -10.2500 -20.7500 -25.7500 Du        
   2741 ****       -10.2500 -20.7500 -25.5000 Du        
   2742 ****       -10.2500 -20.7500 -25.2500 Du        
   2743 ****       -10.2500 -20.7500 -25.0000 Du        
   2744 ****       -10.2500 -20.7500 -24.7500 Du        
   2745 ****       -10.2500 -20.7500 -24.5000 Du        
   2746 ****       -10.2500 -20.5000 -25.7500 Du        
   2747 ****       -10.2500 -20.5000 -25.5000 Du        
   2748 ****       -10.2500 -20.5000 -25.2500 Du        
   2749 ****       -10.2500 -20.5000 -25.0000 Du        
   2750 ****       -10.2500 -20.5000 -24.7500 Du        
   2751 ****       -10.2500 -20.2500 -25.5000 Du        
   2752 ****       -10.2500 -20.2500 -25.2500 Du        
   2753 ****       -10.2500 -20.2500 -25.0000 Du        
   2754 ****       -10.2500 -20.0000 -25.5000 Du        
   2755 ****       -10.2500 -20.0000 -25.2500 Du        
   2756 ****       -10.2500 -20.0000 -25.0000 Du        
   2757 ****       -10.0000 -29.0000 -30.7500 Du        
   2758 ****       -10.0000 -29.0000 -30.5000 Du        
   2759 ****       -10.0000 -28.7500 -31.0000 Du        
   2760 ****       -10.0000 -28.7500 -30.7500 Du        
   2761 ****       -10.0000 -28.7500 -30.5000 Du        
   2762 ****       -10.0000 -28.7500 -30.2500 Du        
   2763 ****       -10.0000 -28.5000 -31.2500 Du        
   2764 ****       -10.0000 -28.5000 -31.0000 Du        
   2765 ****       -10.0000 -28.5000 -30.7500 Du        
   2766 ****       -10.0000 -28.5000 -30.5000 Du        
   2767 ****       -10.0000 -28.5000 -30.2500 Du        
   2768 ****       -10.0000 -28.5000 -30.0000 Du        
   2769 ****       -10.0000 -28.2500 -31.5000 Du        
   2770 ****       -10.0000 -28.2500 -31.2500 Du        
   2771 ****       -10.0000 -28.2500 -31.0000 Du        
   2772 ****       -10.0000 -28.2500 -30.7500 Du        
   2773 ****       -10.0000 -28.2500 -30.5000 Du        
   2774 ****       -10.0000 -28.2500 -30.2500 Du        
   2775 ****       -10.0000 -28.2500 -30.0000 Du        
   2776 ****       -10.0000 -28.2500 -29.7500 Du        
   2777 ****       -10.0000 -28.0000 -31.5000 Du        
   2778 ****       -10.0000 -28.0000 -31.2500 Du        
   2779 ****       -10.0000 -28.0000 -31.0000 Du        
   2780 ****       -10.0000 -28.0000 -30.7500 Du        
   2781 ****       -10.0000 -28.0000 -30.5000 Du        
   2782 ****       -10.0000 -28.0000 -30.2500 Du        
   2783 ****       -10.0000 -28.0000 -30.0000 Du        
   2784 ****       -10.0000 -28.0000 -29.7500 Du        
   2785 ****       -10.0000 -27.7500 -31.5000 Du        
   2786 ****       -10.0000 -27.7500 -31.2500 Du        
   2787 ****       -10.0000 -27.7500 -31.0000 Du        
   2788 ****       -10.0000 -27.7500 -30.7500 Du        
   2789 ****       -10.0000 -27.7500 -30.5000 Du        
   2790 ****       -10.0000 -27.7500 -30.2500 Du        
   2791 ****       -10.0000 -27.7500 -30.0000 Du        
   2792 ****       -10.0000 -27.7500 -29.7500 Du        
   2793 ****       -10.0000 -27.7500 -29.5000 Du        
   2794 ****       -10.0000 -27.7500 -29.2500 Du        
   2795 ****       -10.0000 -27.5000 -31.2500 Du        
   2796 ****       -10.0000 -27.5000 -31.0000 Du        
   2797 ****       -10.0000 -27.5000 -30.7500 Du        
   2798 ****       -10.0000 -27.5000 -30.5000 Du        
   2799 ****       -10.0000 -27.5000 -30.2500 Du        
   2800 ****       -10.0000 -27.5000 -30.0000 Du        
   2801 ****       -10.0000 -27.5000 -29.7500 Du        
   2802 ****       -10.0000 -27.5000 -29.5000 Du        
   2803 ****       -10.0000 -27.5000 -29.2500 Du        
   2804 ****       -10.0000 -27.2500 -31.2500 Du        
   2805 ****       -10.0000 -27.2500 -31.0000 Du        
   2806 ****       -10.0000 -27.2500 -30.7500 Du        
   2807 ****       -10.0000 -27.2500 -30.5000 Du        
   2808 ****       -10.0000 -27.2500 -30.2500 Du        
   2809 ****       -10.0000 -27.2500 -30.0000 Du        
   2810 ****       -10.0000 -27.2500 -29.7500 Du        
   2811 ****       -10.0000 -27.2500 -29.5000 Du        
   2812 ****       -10.0000 -27.2500 -29.2500 Du        
   2813 ****       -10.0000 -27.2500 -29.0000 Du        
   2814 ****       -10.0000 -27.0000 -31.0000 Du        
   2815 ****       -10.0000 -27.0000 -30.7500 Du        
   2816 ****       -10.0000 -27.0000 -30.5000 Du        
   2817 ****       -10.0000 -27.0000 -30.2500 Du        
   2818 ****       -10.0000 -27.0000 -30.0000 Du        
   2819 ****       -10.0000 -27.0000 -29.7500 Du        
   2820 ****       -10.0000 -27.0000 -29.5000 Du        
   2821 ****       -10.0000 -27.0000 -29.2500 Du        
   2822 ****       -10.0000 -27.0000 -29.0000 Du        
   2823 ****       -10.0000 -26.7500 -30.7500 Du        
   2824 ****       -10.0000 -26.7500 -30.5000 Du        
   2825 ****       -10.0000 -26.7500 -30.2500 Du        
   2826 ****       -10.0000 -26.7500 -30.0000 Du        
   2827 ****       -10.0000 -26.7500 -29.7500 Du        
   2828 ****       -10.0000 -26.7500 -29.5000 Du        
   2829 ****       -10.0000 -26.7500 -29.2500 Du        
   2830 ****       -10.0000 -26.7500 -29.0000 Du        
   2831 ****       -10.0000 -26.5000 -30.5000 Du        
   2832 ****       -10.0000 -26.5000 -30.2500 Du        
   2833 ****       -10.0000 -26.5000 -30.0000 Du        
   2834 ****       -10.0000 -26.5000 -29.7500 Du        
   2835 ****       -10.0000 -26.5000 -29.5000 Du        
   2836 ****       -10.0000 -26.5000 -29.2500 Du        
   2837 ****       -10.0000 -26.5000 -29.0000 Du        
   2838 ****       -10.0000 -26.2500 -30.2500 Du        
   2839 ****       -10.0000 -26.2500 -30.0000 Du        
   2840 ****       -10.0000 -26.2500 -29.7500 Du        
   2841 ****       -10.0000 -26.2500 -29.5000 Du        
   2842 ****       -10.0000 -26.2500 -29.2500 Du        
   2843 ****       -10.0000 -26.2500 -29.0000 Du        
   2844 ****       -10.0000 -26.0000 -30.2500 Du        
   2845 ****       -10.0000 -26.0000 -30.0000 Du        
   2846 ****       -10.0000 -26.0000 -29.7500 Du        
   2847 ****       -10.0000 -26.0000 -29.5000 Du        
   2848 ****       -10.0000 -26.0000 -29.2500 Du        
   2849 ****       -10.0000 -26.0000 -29.0000 Du        
   2850 ****       -10.0000 -25.7500 -30.0000 Du        
   2851 ****       -10.0000 -25.7500 -29.7500 Du        
   2852 ****       -10.0000 -25.7500 -29.5000 Du        
   2853 ****       -10.0000 -25.7500 -29.2500 Du        
   2854 ****       -10.0000 -25.5000 -30.0000 Du        
   2855 ****       -10.0000 -25.5000 -29.7500 Du        
   2856 ****       -10.0000 -25.5000 -29.5000 Du        
   2857 ****       -10.0000 -25.5000 -29.2500 Du        
   2858 ****       -10.0000 -25.2500 -30.0000 Du        
   2859 ****       -10.0000 -25.2500 -29.7500 Du        
   2860 ****       -10.0000 -25.2500 -29.5000 Du        
   2861 ****       -10.0000 -25.2500 -29.2500 Du        
   2862 ****       -10.0000 -25.0000 -29.7500 Du        
   2863 ****       -10.0000 -25.0000 -29.5000 Du        
   2864 ****       -10.0000 -25.0000 -29.2500 Du        
   2865 ****       -10.0000 -25.0000 -29.0000 Du        
   2866 ****       -10.0000 -24.7500 -29.5000 Du        
   2867 ****       -10.0000 -24.7500 -29.2500 Du        
   2868 ****       -10.0000 -24.0000 -29.2500 Du        
   2869 ****       -10.0000 -24.0000 -29.0000 Du        
   2870 ****       -10.0000 -21.2500 -26.0000 Du        
   2871 ****       -10.0000 -21.2500 -25.7500 Du        
   2872 ****       -10.0000 -21.2500 -25.5000 Du        
   2873 ****       -10.0000 -21.2500 -25.2500 Du        
   2874 ****       -10.0000 -21.2500 -25.0000 Du        
   2875 ****       -10.0000 -21.2500 -24.7500 Du        
   2876 ****       -10.0000 -21.2500 -24.5000 Du        
   2877 ****       -10.0000 -21.0000 -26.0000 Du        
   2878 ****       -10.0000 -21.0000 -25.7500 Du        
   2879 ****       -10.0000 -21.0000 -25.5000 Du        
   2880 ****       -10.0000 -21.0000 -25.2500 Du        
   2881 ****       -10.0000 -21.0000 -25.0000 Du        
   2882 ****       -10.0000 -21.0000 -24.7500 Du        
   2883 ****       -10.0000 -21.0000 -24.5000 Du        
   2884 ****       -10.0000 -20.7500 -25.7500 Du        
   2885 ****       -10.0000 -20.7500 -25.5000 Du        
   2886 ****       -10.0000 -20.7500 -25.2500 Du        
   2887 ****       -10.0000 -20.7500 -25.0000 Du        
   2888 ****       -10.0000 -20.7500 -24.7500 Du        
   2889 ****       -10.0000 -20.5000 -25.2500 Du        
   2890 ****       -10.0000 -20.5000 -25.0000 Du        
   2891 ****       -10.0000 -20.2500 -25.2500 Du        
   2892 ****        -9.7500 -29.0000 -30.7500 Du        
   2893 ****        -9.7500 -29.0000 -30.5000 Du        
   2894 ****        -9.7500 -29.0000 -30.2500 Du        
   2895 ****        -9.7500 -28.7500 -31.0000 Du        
   2896 ****        -9.7500 -28.7500 -30.7500 Du        
   2897 ****        -9.7500 -28.7500 -30.5000 Du        
   2898 ****        -9.7500 -28.7500 -30.2500 Du        
   2899 ****        -9.7500 -28.7500 -30.0000 Du        
   2900 ****        -9.7500 -28.5000 -31.2500 Du        
   2901 ****        -9.7500 -28.5000 -31.0000 Du        
   2902 ****        -9.7500 -28.5000 -30.7500 Du        
   2903 ****        -9.7500 -28.5000 -30.5000 Du        
   2904 ****        -9.7500 -28.5000 -30.2500 Du        
   2905 ****        -9.7500 -28.5000 -30.0000 Du        
   2906 ****        -9.7500 -28.2500 -31.2500 Du        
   2907 ****        -9.7500 -28.2500 -31.0000 Du        
   2908 ****        -9.7500 -28.2500 -30.7500 Du        
   2909 ****        -9.7500 -28.2500 -30.5000 Du        
   2910 ****        -9.7500 -28.2500 -30.2500 Du        
   2911 ****        -9.7500 -28.2500 -30.0000 Du        
   2912 ****        -9.7500 -28.2500 -29.7500 Du        
   2913 ****        -9.7500 -28.0000 -31.2500 Du        
   2914 ****        -9.7500 -28.0000 -31.0000 Du        
   2915 ****        -9.7500 -28.0000 -30.7500 Du        
   2916 ****        -9.7500 -28.0000 -30.5000 Du        
   2917 ****        -9.7500 -28.0000 -30.2500 Du        
   2918 ****        -9.7500 -28.0000 -30.0000 Du        
   2919 ****        -9.7500 -28.0000 -29.7500 Du        
   2920 ****        -9.7500 -28.0000 -29.5000 Du        
   2921 ****        -9.7500 -27.7500 -31.2500 Du        
   2922 ****        -9.7500 -27.7500 -31.0000 Du        
   2923 ****        -9.7500 -27.7500 -30.7500 Du        
   2924 ****        -9.7500 -27.7500 -30.5000 Du        
   2925 ****        -9.7500 -27.7500 -30.2500 Du        
   2926 ****        -9.7500 -27.7500 -30.0000 Du        
   2927 ****        -9.7500 -27.7500 -29.7500 Du        
   2928 ****        -9.7500 -27.7500 -29.5000 Du        
   2929 ****        -9.7500 -27.7500 -29.2500 Du        
   2930 ****        -9.7500 -27.5000 -31.0000 Du        
   2931 ****        -9.7500 -27.5000 -30.7500 Du        
   2932 ****        -9.7500 -27.5000 -30.5000 Du        
   2933 ****        -9.7500 -27.5000 -30.2500 Du        
   2934 ****        -9.7500 -27.5000 -30.0000 Du        
   2935 ****        -9.7500 -27.5000 -29.7500 Du        
   2936 ****        -9.7500 -27.5000 -29.5000 Du        
   2937 ****        -9.7500 -27.5000 -29.2500 Du        
   2938 ****        -9.7500 -27.2500 -31.0000 Du        
   2939 ****        -9.7500 -27.2500 -30.7500 Du        
   2940 ****        -9.7500 -27.2500 -30.5000 Du        
   2941 ****        -9.7500 -27.2500 -30.2500 Du        
   2942 ****        -9.7500 -27.2500 -30.0000 Du        
   2943 ****        -9.7500 -27.2500 -29.7500 Du        
   2944 ****        -9.7500 -27.2500 -29.5000 Du        
   2945 ****        -9.7500 -27.2500 -29.2500 Du        
   2946 ****        -9.7500 -27.2500 -29.0000 Du        
   2947 ****        -9.7500 -27.0000 -30.7500 Du        
   2948 ****        -9.7500 -27.0000 -30.5000 Du        
   2949 ****        -9.7500 -27.0000 -30.2500 Du        
   2950 ****        -9.7500 -27.0000 -30.0000 Du        
   2951 ****        -9.7500 -27.0000 -29.7500 Du        
   2952 ****        -9.7500 -27.0000 -29.5000 Du        
   2953 ****        -9.7500 -27.0000 -29.2500 Du        
   2954 ****        -9.7500 -27.0000 -29.0000 Du        
   2955 ****        -9.7500 -26.7500 -30.2500 Du        
   2956 ****        -9.7500 -26.7500 -30.0000 Du        
   2957 ****        -9.7500 -26.7500 -29.7500 Du        
   2958 ****        -9.7500 -26.7500 -29.5000 Du        
   2959 ****        -9.7500 -26.7500 -29.2500 Du        
   2960 ****        -9.7500 -26.7500 -29.0000 Du        
   2961 ****        -9.7500 -26.5000 -30.2500 Du        
   2962 ****        -9.7500 -26.5000 -30.0000 Du        
   2963 ****        -9.7500 -26.5000 -29.7500 Du        
   2964 ****        -9.7500 -26.5000 -29.5000 Du        
   2965 ****        -9.7500 -26.5000 -29.2500 Du        
   2966 ****        -9.7500 -26.5000 -29.0000 Du        
   2967 ****        -9.7500 -26.2500 -30.0000 Du        
   2968 ****        -9.7500 -26.2500 -29.7500 Du        
   2969 ****        -9.7500 -26.2500 -29.5000 Du        
   2970 ****        -9.7500 -26.2500 -29.2500 Du        
   2971 ****        -9.7500 -26.2500 -29.0000 Du        
   2972 ****        -9.7500 -26.0000 -30.0000 Du        
   2973 ****        -9.7500 -26.0000 -29.7500 Du        
   2974 ****        -9.7500 -26.0000 -29.5000 Du        
   2975 ****        -9.7500 -26.0000 -29.2500 Du        
   2976 ****        -9.7500 -25.7500 -29.7500 Du        
   2977 ****        -9.7500 -25.2500 -29.5000 Du        
   2978 ****        -9.7500 -25.0000 -29.2500 Du        
   2979 ****        -9.7500 -21.5000 -25.5000 Du        
   2980 ****        -9.7500 -21.5000 -25.2500 Du        
   2981 ****        -9.7500 -21.2500 -26.0000 Du        
   2982 ****        -9.7500 -21.2500 -25.7500 Du        
   2983 ****        -9.7500 -21.2500 -25.5000 Du        
   2984 ****        -9.7500 -21.2500 -25.2500 Du        
   2985 ****        -9.7500 -21.2500 -25.0000 Du        
   2986 ****        -9.7500 -21.2500 -24.7500 Du        
   2987 ****        -9.7500 -21.0000 -25.7500 Du        
   2988 ****        -9.7500 -21.0000 -25.5000 Du        
   2989 ****        -9.7500 -21.0000 -25.2500 Du        
   2990 ****        -9.7500 -21.0000 -25.0000 Du        
   2991 ****        -9.7500 -21.0000 -24.7500 Du        
   2992 ****        -9.7500 -20.7500 -25.5000 Du        
   2993 ****        -9.7500 -20.7500 -25.2500 Du        
   2994 ****        -9.7500 -20.7500 -25.0000 Du        
   2995 ****        -9.5000 -29.0000 -30.5000 Du        
   2996 ****        -9.5000 -29.0000 -30.2500 Du        
   2997 ****        -9.5000 -28.7500 -31.0000 Du        
   2998 ****        -9.5000 -28.7500 -30.7500 Du        
   2999 ****        -9.5000 -28.7500 -30.5000 Du        
   3000 ****        -9.5000 -28.7500 -30.2500 Du        
   3001 ****        -9.5000 -28.7500 -30.0000 Du        
   3002 ****        -9.5000 -28.5000 -31.0000 Du        
   3003 ****        -9.5000 -28.5000 -30.7500 Du        
   3004 ****        -9.5000 -28.5000 -30.5000 Du        
   3005 ****        -9.5000 -28.5000 -30.2500 Du        
   3006 ****        -9.5000 -28.5000 -30.0000 Du        
   3007 ****        -9.5000 -28.5000 -29.7500 Du        
   3008 ****        -9.5000 -28.2500 -31.0000 Du        
   3009 ****        -9.5000 -28.2500 -30.7500 Du        
   3010 ****        -9.5000 -28.2500 -30.5000 Du        
   3011 ****        -9.5000 -28.2500 -30.2500 Du        
   3012 ****        -9.5000 -28.2500 -30.0000 Du        
   3013 ****        -9.5000 -28.2500 -29.7500 Du        
   3014 ****        -9.5000 -28.0000 -31.2500 Du        
   3015 ****        -9.5000 -28.0000 -31.0000 Du        
   3016 ****        -9.5000 -28.0000 -30.7500 Du        
   3017 ****        -9.5000 -28.0000 -30.5000 Du        
   3018 ****        -9.5000 -28.0000 -30.2500 Du        
   3019 ****        -9.5000 -28.0000 -30.0000 Du        
   3020 ****        -9.5000 -28.0000 -29.7500 Du        
   3021 ****        -9.5000 -28.0000 -29.5000 Du        
   3022 ****        -9.5000 -27.7500 -31.0000 Du        
   3023 ****        -9.5000 -27.7500 -30.7500 Du        
   3024 ****        -9.5000 -27.7500 -30.5000 Du        
   3025 ****        -9.5000 -27.7500 -30.2500 Du        
   3026 ****        -9.5000 -27.7500 -30.0000 Du        
   3027 ****        -9.5000 -27.7500 -29.7500 Du        
   3028 ****        -9.5000 -27.7500 -29.5000 Du        
   3029 ****        -9.5000 -27.7500 -29.2500 Du        
   3030 ****        -9.5000 -27.5000 -30.7500 Du        
   3031 ****        -9.5000 -27.5000 -30.5000 Du        
   3032 ****        -9.5000 -27.5000 -30.2500 Du        
   3033 ****        -9.5000 -27.5000 -30.0000 Du        
   3034 ****        -9.5000 -27.5000 -29.7500 Du        
   3035 ****        -9.5000 -27.5000 -29.5000 Du        
   3036 ****        -9.5000 -27.5000 -29.2500 Du        
   3037 ****        -9.5000 -27.5000 -29.0000 Du        
   3038 ****        -9.5000 -27.2500 -30.5000 Du        
   3039 ****        -9.5000 -27.2500 -30.2500 Du        
   3040 ****        -9.5000 -27.2500 -30.0000 Du        
   3041 ****        -9.5000 -27.2500 -29.7500 Du        
   3042 ****        -9.5000 -27.2500 -29.5000 Du        
   3043 ****        -9.5000 -27.2500 -29.2500 Du        
   3044 ****        -9.5000 -27.2500 -29.0000 Du        
   3045 ****        -9.5000 -27.0000 -30.2500 Du        
   3046 ****        -9.5000 -27.0000 -30.0000 Du        
   3047 ****        -9.5000 -27.0000 -29.7500 Du        
   3048 ****        -9.5000 -27.0000 -29.5000 Du        
   3049 ****        -9.5000 -27.0000 -29.2500 Du        
   3050 ****        -9.5000 -27.0000 -29.0000 Du        
   3051 ****        -9.5000 -26.7500 -30.2500 Du        
   3052 ****        -9.5000 -26.7500 -30.0000 Du        
   3053 ****        -9.5000 -26.7500 -29.7500 Du        
   3054 ****        -9.5000 -26.7500 -29.5000 Du        
   3055 ****        -9.5000 -26.7500 -29.2500 Du        
   3056 ****        -9.5000 -26.7500 -29.0000 Du        
   3057 ****        -9.5000 -26.5000 -29.7500 Du        
   3058 ****        -9.5000 -21.2500 -25.5000 Du        
   3059 ****        -9.5000 -21.2500 -25.2500 Du        
   3060 ****        -9.5000 -21.0000 -25.5000 Du        
   3061 ****        -9.5000 -21.0000 -25.2500 Du        
   3062 ****        -9.2500 -29.0000 -30.5000 Du        
   3063 ****        -9.2500 -29.0000 -30.2500 Du        
   3064 ****        -9.2500 -29.0000 -30.0000 Du        
   3065 ****        -9.2500 -28.7500 -30.7500 Du        
   3066 ****        -9.2500 -28.7500 -30.5000 Du        
   3067 ****        -9.2500 -28.7500 -30.2500 Du        
   3068 ****        -9.2500 -28.7500 -30.0000 Du        
   3069 ****        -9.2500 -28.7500 -29.7500 Du        
   3070 ****        -9.2500 -28.5000 -31.0000 Du        
   3071 ****        -9.2500 -28.5000 -30.7500 Du        
   3072 ****        -9.2500 -28.5000 -30.5000 Du        
   3073 ****        -9.2500 -28.5000 -30.2500 Du        
   3074 ****        -9.2500 -28.5000 -30.0000 Du        
   3075 ****        -9.2500 -28.5000 -29.7500 Du        
   3076 ****        -9.2500 -28.2500 -31.0000 Du        
   3077 ****        -9.2500 -28.2500 -30.7500 Du        
   3078 ****        -9.2500 -28.2500 -30.5000 Du        
   3079 ****        -9.2500 -28.2500 -30.2500 Du        
   3080 ****        -9.2500 -28.2500 -30.0000 Du        
   3081 ****        -9.2500 -28.2500 -29.7500 Du        
   3082 ****        -9.2500 -28.2500 -29.5000 Du        
   3083 ****        -9.2500 -28.0000 -31.0000 Du        
   3084 ****        -9.2500 -28.0000 -30.7500 Du        
   3085 ****        -9.2500 -28.0000 -30.5000 Du        
   3086 ****        -9.2500 -28.0000 -30.2500 Du        
   3087 ****        -9.2500 -28.0000 -30.0000 Du        
   3088 ****        -9.2500 -28.0000 -29.7500 Du        
   3089 ****        -9.2500 -28.0000 -29.5000 Du        
   3090 ****        -9.2500 -28.0000 -29.2500 Du        
   3091 ****        -9.2500 -27.7500 -30.7500 Du        
   3092 ****        -9.2500 -27.7500 -30.5000 Du        
   3093 ****        -9.2500 -27.7500 -30.2500 Du        
   3094 ****        -9.2500 -27.7500 -30.0000 Du        
   3095 ****        -9.2500 -27.7500 -29.7500 Du        
   3096 ****        -9.2500 -27.7500 -29.5000 Du        
   3097 ****        -9.2500 -27.7500 -29.2500 Du        
   3098 ****        -9.2500 -27.7500 -29.0000 Du        
   3099 ****        -9.2500 -27.5000 -30.5000 Du        
   3100 ****        -9.2500 -27.5000 -30.2500 Du        
   3101 ****        -9.2500 -27.5000 -30.0000 Du        
   3102 ****        -9.2500 -27.5000 -29.7500 Du        
   3103 ****        -9.2500 -27.5000 -29.5000 Du        
   3104 ****        -9.2500 -27.5000 -29.2500 Du        
   3105 ****        -9.2500 -27.5000 -29.0000 Du        
   3106 ****        -9.2500 -27.2500 -30.2500 Du        
   3107 ****        -9.2500 -27.2500 -30.0000 Du        
   3108 ****        -9.2500 -27.2500 -29.7500 Du        
   3109 ****        -9.2500 -27.2500 -29.5000 Du        
   3110 ****        -9.2500 -27.2500 -29.2500 Du        
   3111 ****        -9.2500 -27.2500 -29.0000 Du        
   3112 ****        -9.2500 -27.0000 -30.2500 Du        
   3113 ****        -9.2500 -27.0000 -30.0000 Du        
   3114 ****        -9.2500 -27.0000 -29.7500 Du        
   3115 ****        -9.2500 -27.0000 -29.5000 Du        
   3116 ****        -9.2500 -27.0000 -29.2500 Du        
   3117 ****        -9.2500 -27.0000 -29.0000 Du        
   3118 ****        -9.2500 -26.7500 -30.0000 Du        
   3119 ****        -9.2500 -26.7500 -29.7500 Du        
   3120 ****        -9.2500 -26.7500 -29.5000 Du        
   3121 ****        -9.2500 -26.7500 -29.2500 Du        
   3122 ****        -9.2500 -26.7500 -29.0000 Du        
   3123 ****        -9.2500 -23.0000 -29.7500 Du        
   3124 ****        -9.2500 -21.5000 -25.5000 Du        
   3125 ****        -9.2500 -21.5000 -25.2500 Du        
   3126 ****        -9.2500 -21.2500 -25.7500 Du        
   3127 ****        -9.2500 -21.2500 -25.5000 Du        
   3128 ****        -9.2500 -21.2500 -25.2500 Du        
   3129 ****        -9.2500 -21.0000 -25.7500 Du        
   3130 ****        -9.2500 -21.0000 -25.5000 Du        
   3131 ****        -9.2500 -21.0000 -25.2500 Du        
   3132 ****        -9.0000 -29.0000 -30.2500 Du        
   3133 ****        -9.0000 -29.0000 -30.0000 Du        
   3134 ****        -9.0000 -28.7500 -30.7500 Du        
   3135 ****        -9.0000 -28.7500 -30.5000 Du        
   3136 ****        -9.0000 -28.7500 -30.2500 Du        
   3137 ****        -9.0000 -28.7500 -30.0000 Du        
   3138 ****        -9.0000 -28.7500 -29.7500 Du        
   3139 ****        -9.0000 -28.5000 -30.7500 Du        
   3140 ****        -9.0000 -28.5000 -30.5000 Du        
   3141 ****        -9.0000 -28.5000 -30.2500 Du        
   3142 ****        -9.0000 -28.5000 -30.0000 Du        
   3143 ****        -9.0000 -28.5000 -29.7500 Du        
   3144 ****        -9.0000 -28.5000 -29.5000 Du        
   3145 ****        -9.0000 -28.2500 -30.7500 Du        
   3146 ****        -9.0000 -28.2500 -30.5000 Du        
   3147 ****        -9.0000 -28.2500 -30.2500 Du        
   3148 ****        -9.0000 -28.2500 -30.0000 Du        
   3149 ****        -9.0000 -28.2500 -29.7500 Du        
   3150 ****        -9.0000 -28.2500 -29.5000 Du        
   3151 ****        -9.0000 -28.2500 -29.2500 Du        
   3152 ****        -9.0000 -28.0000 -30.7500 Du        
   3153 ****        -9.0000 -28.0000 -30.5000 Du        
   3154 ****        -9.0000 -28.0000 -30.2500 Du        
   3155 ****        -9.0000 -28.0000 -30.0000 Du        
   3156 ****        -9.0000 -28.0000 -29.7500 Du        
   3157 ****        -9.0000 -28.0000 -29.5000 Du        
   3158 ****        -9.0000 -28.0000 -29.2500 Du        
   3159 ****        -9.0000 -28.0000 -29.0000 Du        
   3160 ****        -9.0000 -27.7500 -30.5000 Du        
   3161 ****        -9.0000 -27.7500 -30.2500 Du        
   3162 ****        -9.0000 -27.7500 -30.0000 Du        
   3163 ****        -9.0000 -27.7500 -29.7500 Du        
   3164 ****        -9.0000 -27.7500 -29.5000 Du        
   3165 ****        -9.0000 -27.7500 -29.2500 Du        
   3166 ****        -9.0000 -27.7500 -29.0000 Du        
   3167 ****        -9.0000 -27.5000 -30.2500 Du        
   3168 ****        -9.0000 -27.5000 -30.0000 Du        
   3169 ****        -9.0000 -27.5000 -29.7500 Du        
   3170 ****        -9.0000 -27.5000 -29.5000 Du        
   3171 ****        -9.0000 -27.5000 -29.2500 Du        
   3172 ****        -9.0000 -27.5000 -29.0000 Du        
   3173 ****        -9.0000 -27.2500 -30.2500 Du        
   3174 ****        -9.0000 -27.2500 -30.0000 Du        
   3175 ****        -9.0000 -27.2500 -29.7500 Du        
   3176 ****        -9.0000 -27.2500 -29.5000 Du        
   3177 ****        -9.0000 -27.2500 -29.2500 Du        
   3178 ****        -9.0000 -27.2500 -29.0000 Du        
   3179 ****        -9.0000 -27.0000 -30.0000 Du        
   3180 ****        -9.0000 -27.0000 -29.7500 Du        
   3181 ****        -9.0000 -27.0000 -29.5000 Du        
   3182 ****        -9.0000 -27.0000 -29.2500 Du        
   3183 ****        -9.0000 -27.0000 -29.0000 Du        
   3184 ****        -9.0000 -26.7500 -29.7500 Du        
   3185 ****        -9.0000 -26.7500 -29.5000 Du        
   3186 ****        -9.0000 -26.7500 -29.2500 Du        
   3187 ****        -9.0000 -26.7500 -29.0000 Du        
   3188 ****        -9.0000 -23.0000 -30.0000 Du        
   3189 ****        -9.0000 -23.0000 -29.7500 Du        
   3190 ****        -9.0000 -22.7500 -30.0000 Du        
   3191 ****        -9.0000 -22.7500 -29.7500 Du        
   3192 ****        -9.0000 -21.7500 -25.7500 Du        
   3193 ****        -9.0000 -21.5000 -25.7500 Du        
   3194 ****        -9.0000 -21.5000 -25.5000 Du        
   3195 ****        -9.0000 -21.5000 -25.2500 Du        
   3196 ****        -9.0000 -21.2500 -25.7500 Du        
   3197 ****        -9.0000 -21.2500 -25.5000 Du        
   3198 ****        -9.0000 -21.2500 -25.2500 Du        
   3199 ****        -9.0000 -21.0000 -25.7500 Du        
   3200 ****        -9.0000 -21.0000 -25.5000 Du        
   3201 ****        -8.7500 -29.0000 -30.2500 Du        
   3202 ****        -8.7500 -29.0000 -30.0000 Du        
   3203 ****        -8.7500 -29.0000 -29.7500 Du        
   3204 ****        -8.7500 -28.7500 -30.5000 Du        
   3205 ****        -8.7500 -28.7500 -30.2500 Du        
   3206 ****        -8.7500 -28.7500 -30.0000 Du        
   3207 ****        -8.7500 -28.7500 -29.7500 Du        
   3208 ****        -8.7500 -28.7500 -29.5000 Du        
   3209 ****        -8.7500 -28.5000 -30.7500 Du        
   3210 ****        -8.7500 -28.5000 -30.5000 Du        
   3211 ****        -8.7500 -28.5000 -30.2500 Du        
   3212 ****        -8.7500 -28.5000 -30.0000 Du        
   3213 ****        -8.7500 -28.5000 -29.7500 Du        
   3214 ****        -8.7500 -28.5000 -29.5000 Du        
   3215 ****        -8.7500 -28.2500 -30.7500 Du        
   3216 ****        -8.7500 -28.2500 -30.5000 Du        
   3217 ****        -8.7500 -28.2500 -30.2500 Du        
   3218 ****        -8.7500 -28.2500 -30.0000 Du        
   3219 ****        -8.7500 -28.2500 -29.7500 Du        
   3220 ****        -8.7500 -28.2500 -29.5000 Du        
   3221 ****        -8.7500 -28.2500 -29.2500 Du        
   3222 ****        -8.7500 -28.0000 -30.5000 Du        
   3223 ****        -8.7500 -28.0000 -30.2500 Du        
   3224 ****        -8.7500 -28.0000 -30.0000 Du        
   3225 ****        -8.7500 -28.0000 -29.7500 Du        
   3226 ****        -8.7500 -28.0000 -29.5000 Du        
   3227 ****        -8.7500 -28.0000 -29.2500 Du        
   3228 ****        -8.7500 -28.0000 -29.0000 Du        
   3229 ****        -8.7500 -27.7500 -30.2500 Du        
   3230 ****        -8.7500 -27.7500 -30.0000 Du        
   3231 ****        -8.7500 -27.7500 -29.7500 Du        
   3232 ****        -8.7500 -27.7500 -29.5000 Du        
   3233 ****        -8.7500 -27.7500 -29.2500 Du        
   3234 ****        -8.7500 -27.7500 -29.0000 Du        
   3235 ****        -8.7500 -27.7500 -28.7500 Du        
   3236 ****        -8.7500 -27.5000 -30.2500 Du        
   3237 ****        -8.7500 -27.5000 -30.0000 Du        
   3238 ****        -8.7500 -27.5000 -29.7500 Du        
   3239 ****        -8.7500 -27.5000 -29.5000 Du        
   3240 ****        -8.7500 -27.5000 -29.2500 Du        
   3241 ****        -8.7500 -27.5000 -29.0000 Du        
   3242 ****        -8.7500 -27.2500 -30.0000 Du        
   3243 ****        -8.7500 -27.2500 -29.7500 Du        
   3244 ****        -8.7500 -27.2500 -29.5000 Du        
   3245 ****        -8.7500 -27.2500 -29.2500 Du        
   3246 ****        -8.7500 -27.2500 -29.0000 Du        
   3247 ****        -8.7500 -27.0000 -29.7500 Du        
   3248 ****        -8.7500 -27.0000 -29.5000 Du        
   3249 ****        -8.7500 -27.0000 -29.2500 Du        
   3250 ****        -8.7500 -27.0000 -29.0000 Du        
   3251 ****        -8.7500 -26.7500 -29.7500 Du        
   3252 ****        -8.7500 -26.7500 -29.5000 Du        
   3253 ****        -8.7500 -26.7500 -29.2500 Du        
   3254 ****        -8.7500 -26.7500 -29.0000 Du        
   3255 ****        -8.7500 -23.0000 -30.0000 Du        
   3256 ****        -8.7500 -23.0000 -29.7500 Du        
   3257 ****        -8.7500 -22.7500 -30.2500 Du        
   3258 ****        -8.7500 -22.7500 -30.0000 Du        
   3259 ****        -8.7500 -22.7500 -29.7500 Du        
   3260 ****        -8.7500 -22.5000 -30.5000 Du        
   3261 ****        -8.7500 -22.5000 -30.2500 Du        
   3262 ****        -8.7500 -22.5000 -30.0000 Du        
   3263 ****        -8.7500 -22.5000 -29.7500 Du        
   3264 ****        -8.7500 -22.2500 -30.2500 Du        
   3265 ****        -8.7500 -22.2500 -30.0000 Du        
   3266 ****        -8.7500 -21.5000 -25.5000 Du        
   3267 ****        -8.7500 -21.2500 -25.5000 Du        
   3268 ****        -8.5000 -29.0000 -30.0000 Du        
   3269 ****        -8.5000 -29.0000 -29.7500 Du        
   3270 ****        -8.5000 -28.7500 -30.5000 Du        
   3271 ****        -8.5000 -28.7500 -30.2500 Du        
   3272 ****        -8.5000 -28.7500 -30.0000 Du        
   3273 ****        -8.5000 -28.7500 -29.7500 Du        
   3274 ****        -8.5000 -28.7500 -29.5000 Du        
   3275 ****        -8.5000 -28.5000 -30.5000 Du        
   3276 ****        -8.5000 -28.5000 -30.2500 Du        
   3277 ****        -8.5000 -28.5000 -30.0000 Du        
   3278 ****        -8.5000 -28.5000 -29.7500 Du        
   3279 ****        -8.5000 -28.5000 -29.5000 Du        
   3280 ****        -8.5000 -28.5000 -29.2500 Du        
   3281 ****        -8.5000 -28.2500 -30.5000 Du        
   3282 ****        -8.5000 -28.2500 -30.2500 Du        
   3283 ****        -8.5000 -28.2500 -30.0000 Du        
   3284 ****        -8.5000 -28.2500 -29.7500 Du        
   3285 ****        -8.5000 -28.2500 -29.5000 Du        
   3286 ****        -8.5000 -28.2500 -29.2500 Du        
   3287 ****        -8.5000 -28.2500 -29.0000 Du        
   3288 ****        -8.5000 -28.0000 -30.2500 Du        
   3289 ****        -8.5000 -28.0000 -30.0000 Du        
   3290 ****        -8.5000 -28.0000 -29.7500 Du        
   3291 ****        -8.5000 -28.0000 -29.5000 Du        
   3292 ****        -8.5000 -28.0000 -29.2500 Du        
   3293 ****        -8.5000 -28.0000 -29.0000 Du        
   3294 ****        -8.5000 -28.0000 -28.7500 Du        
   3295 ****        -8.5000 -27.7500 -30.2500 Du        
   3296 ****        -8.5000 -27.7500 -30.0000 Du        
   3297 ****        -8.5000 -27.7500 -29.7500 Du        
   3298 ****        -8.5000 -27.7500 -29.5000 Du        
   3299 ****        -8.5000 -27.7500 -29.2500 Du        
   3300 ****        -8.5000 -27.7500 -29.0000 Du        
   3301 ****        -8.5000 -27.7500 -28.7500 Du        
   3302 ****        -8.5000 -27.5000 -30.0000 Du        
   3303 ****        -8.5000 -27.5000 -29.7500 Du        
   3304 ****        -8.5000 -27.5000 -29.5000 Du        
   3305 ****        -8.5000 -27.5000 -29.2500 Du        
   3306 ****        -8.5000 -27.5000 -29.0000 Du        
   3307 ****        -8.5000 -27.5000 -28.7500 Du        
   3308 ****        -8.5000 -27.2500 -29.7500 Du        
   3309 ****        -8.5000 -27.2500 -29.5000 Du        
   3310 ****        -8.5000 -27.2500 -29.2500 Du        
   3311 ****        -8.5000 -27.2500 -29.0000 Du        
   3312 ****        -8.5000 -27.2500 -28.7500 Du        
   3313 ****        -8.5000 -27.0000 -29.7500 Du        
   3314 ****        -8.5000 -27.0000 -29.5000 Du        
   3315 ****        -8.5000 -27.0000 -29.2500 Du        
   3316 ****        -8.5000 -27.0000 -29.0000 Du        
   3317 ****        -8.5000 -27.0000 -28.7500 Du        
   3318 ****        -8.5000 -26.7500 -29.2500 Du        
   3319 ****        -8.5000 -23.0000 -30.0000 Du        
   3320 ****        -8.5000 -22.7500 -30.2500 Du        
   3321 ****        -8.5000 -22.7500 -30.0000 Du        
   3322 ****        -8.5000 -22.7500 -29.7500 Du        
   3323 ****        -8.5000 -22.5000 -30.7500 Du        
   3324 ****        -8.5000 -22.5000 -30.5000 Du        
   3325 ****        -8.5000 -22.5000 -30.2500 Du        
   3326 ****        -8.5000 -22.5000 -30.0000 Du        
   3327 ****        -8.5000 -22.5000 -29.7500 Du        
   3328 ****        -8.5000 -22.5000 -29.5000 Du        
   3329 ****        -8.5000 -22.2500 -30.7500 Du        
   3330 ****        -8.5000 -22.2500 -30.5000 Du        
   3331 ****        -8.5000 -22.2500 -30.2500 Du        
   3332 ****        -8.5000 -22.2500 -30.0000 Du        
   3333 ****        -8.5000 -22.2500 -29.7500 Du        
   3334 ****        -8.5000 -22.2500 -29.5000 Du        
   3335 ****        -8.5000 -22.0000 -30.7500 Du        
   3336 ****        -8.5000 -22.0000 -30.5000 Du        
   3337 ****        -8.5000 -22.0000 -30.2500 Du        
   3338 ****        -8.5000 -22.0000 -30.0000 Du        
   3339 ****        -8.5000 -22.0000 -29.7500 Du        
   3340 ****        -8.2500 -29.2500 -29.7500 Du        
   3341 ****        -8.2500 -29.0000 -30.2500 Du        
   3342 ****        -8.2500 -29.0000 -30.0000 Du        
   3343 ****        -8.2500 -29.0000 -29.7500 Du        
   3344 ****        -8.2500 -29.0000 -29.5000 Du        
   3345 ****        -8.2500 -28.7500 -30.2500 Du        
   3346 ****        -8.2500 -28.7500 -30.0000 Du        
   3347 ****        -8.2500 -28.7500 -29.7500 Du        
   3348 ****        -8.2500 -28.7500 -29.5000 Du        
   3349 ****        -8.2500 -28.7500 -29.2500 Du        
   3350 ****        -8.2500 -28.5000 -30.5000 Du        
   3351 ****        -8.2500 -28.5000 -30.2500 Du        
   3352 ****        -8.2500 -28.5000 -30.0000 Du        
   3353 ****        -8.2500 -28.5000 -29.7500 Du        
   3354 ****        -8.2500 -28.5000 -29.5000 Du        
   3355 ****        -8.2500 -28.5000 -29.2500 Du        
   3356 ****        -8.2500 -28.2500 -30.5000 Du        
   3357 ****        -8.2500 -28.2500 -30.2500 Du        
   3358 ****        -8.2500 -28.2500 -30.0000 Du        
   3359 ****        -8.2500 -28.2500 -29.7500 Du        
   3360 ****        -8.2500 -28.2500 -29.5000 Du        
   3361 ****        -8.2500 -28.2500 -29.2500 Du        
   3362 ****        -8.2500 -28.2500 -29.0000 Du        
   3363 ****        -8.2500 -28.0000 -30.2500 Du        
   3364 ****        -8.2500 -28.0000 -30.0000 Du        
   3365 ****        -8.2500 -28.0000 -29.7500 Du        
   3366 ****        -8.2500 -28.0000 -29.5000 Du        
   3367 ****        -8.2500 -28.0000 -29.2500 Du        
   3368 ****        -8.2500 -28.0000 -29.0000 Du        
   3369 ****        -8.2500 -28.0000 -28.7500 Du        
   3370 ****        -8.2500 -27.7500 -30.0000 Du        
   3371 ****        -8.2500 -27.7500 -29.7500 Du        
   3372 ****        -8.2500 -27.7500 -29.5000 Du        
   3373 ****        -8.2500 -27.7500 -29.2500 Du        
   3374 ****        -8.2500 -27.7500 -29.0000 Du        
   3375 ****        -8.2500 -27.7500 -28.7500 Du        
   3376 ****        -8.2500 -27.5000 -29.7500 Du        
   3377 ****        -8.2500 -27.5000 -29.5000 Du        
   3378 ****        -8.2500 -27.5000 -29.2500 Du        
   3379 ****        -8.2500 -27.5000 -29.0000 Du        
   3380 ****        -8.2500 -27.5000 -28.7500 Du        
   3381 ****        -8.2500 -27.2500 -29.7500 Du        
   3382 ****        -8.2500 -27.2500 -29.5000 Du        
   3383 ****        -8.2500 -27.2500 -29.2500 Du        
   3384 ****        -8.2500 -27.2500 -29.0000 Du        
   3385 ****        -8.2500 -27.2500 -28.7500 Du        
   3386 ****        -8.2500 -27.0000 -29.5000 Du        
   3387 ****        -8.2500 -27.0000 -29.2500 Du        
   3388 ****        -8.2500 -27.0000 -29.0000 Du        
   3389 ****        -8.2500 -27.0000 -28.7500 Du        
   3390 ****        -8.2500 -26.7500 -29.2500 Du        
   3391 ****        -8.2500 -26.7500 -29.0000 Du        
   3392 ****        -8.2500 -26.5000 -29.0000 Du        
   3393 ****        -8.2500 -23.0000 -30.0000 Du        
   3394 ****        -8.2500 -23.0000 -29.7500 Du        
   3395 ****        -8.2500 -22.7500 -30.2500 Du        
   3396 ****        -8.2500 -22.7500 -30.0000 Du        
   3397 ****        -8.2500 -22.7500 -29.7500 Du        
   3398 ****        -8.2500 -22.5000 -30.7500 Du        
   3399 ****        -8.2500 -22.5000 -30.5000 Du        
   3400 ****        -8.2500 -22.5000 -30.2500 Du        
   3401 ****        -8.2500 -22.5000 -30.0000 Du        
   3402 ****        -8.2500 -22.5000 -29.7500 Du        
   3403 ****        -8.2500 -22.5000 -29.5000 Du        
   3404 ****        -8.2500 -22.2500 -31.0000 Du        
   3405 ****        -8.2500 -22.2500 -30.7500 Du        
   3406 ****        -8.2500 -22.2500 -30.5000 Du        
   3407 ****        -8.2500 -22.2500 -30.2500 Du        
   3408 ****        -8.2500 -22.2500 -30.0000 Du        
   3409 ****        -8.2500 -22.2500 -29.7500 Du        
   3410 ****        -8.2500 -22.2500 -29.5000 Du        
   3411 ****        -8.2500 -22.2500 -29.2500 Du        
   3412 ****        -8.2500 -22.0000 -31.0000 Du        
   3413 ****        -8.2500 -22.0000 -30.7500 Du        
   3414 ****        -8.2500 -22.0000 -30.5000 Du        
   3415 ****        -8.2500 -22.0000 -30.2500 Du        
   3416 ****        -8.2500 -22.0000 -30.0000 Du        
   3417 ****        -8.2500 -22.0000 -29.7500 Du        
   3418 ****        -8.2500 -22.0000 -29.5000 Du        
   3419 ****        -8.2500 -22.0000 -29.2500 Du        
   3420 ****        -8.2500 -21.7500 -31.0000 Du        
   3421 ****        -8.2500 -21.7500 -30.7500 Du        
   3422 ****        -8.2500 -21.7500 -30.5000 Du        
   3423 ****        -8.2500 -21.7500 -30.2500 Du        
   3424 ****        -8.2500 -21.7500 -30.0000 Du        
   3425 ****        -8.2500 -21.7500 -29.7500 Du        
   3426 ****        -8.2500 -21.7500 -29.5000 Du        
   3427 ****        -8.2500 -21.7500 -29.2500 Du        
   3428 ****        -8.2500 -21.5000 -30.7500 Du        
   3429 ****        -8.2500 -21.5000 -30.5000 Du        
   3430 ****        -8.2500 -21.5000 -30.2500 Du        
   3431 ****        -8.2500 -21.5000 -30.0000 Du        
   3432 ****        -8.2500 -21.5000 -29.7500 Du        
   3433 ****        -8.2500 -21.2500 -30.2500 Du        
   3434 ****        -8.2500 -21.2500 -30.0000 Du        
   3435 ****        -8.2500 -21.2500 -29.7500 Du        
   3436 ****        -8.2500 -21.0000 -29.7500 Du        
   3437 ****        -8.0000 -29.2500 -29.7500 Du        
   3438 ****        -8.0000 -29.2500 -29.5000 Du        
   3439 ****        -8.0000 -29.0000 -30.2500 Du        
   3440 ****        -8.0000 -29.0000 -30.0000 Du        
   3441 ****        -8.0000 -29.0000 -29.7500 Du        
   3442 ****        -8.0000 -29.0000 -29.5000 Du        
   3443 ****        -8.0000 -29.0000 -29.2500 Du        
   3444 ****        -8.0000 -28.7500 -30.2500 Du        
   3445 ****        -8.0000 -28.7500 -30.0000 Du        
   3446 ****        -8.0000 -28.7500 -29.7500 Du        
   3447 ****        -8.0000 -28.7500 -29.5000 Du        
   3448 ****        -8.0000 -28.7500 -29.2500 Du        
   3449 ****        -8.0000 -28.5000 -30.2500 Du        
   3450 ****        -8.0000 -28.5000 -30.0000 Du        
   3451 ****        -8.0000 -28.5000 -29.7500 Du        
   3452 ****        -8.0000 -28.5000 -29.5000 Du        
   3453 ****        -8.0000 -28.5000 -29.2500 Du        
   3454 ****        -8.0000 -28.5000 -29.0000 Du        
   3455 ****        -8.0000 -28.2500 -30.2500 Du        
   3456 ****        -8.0000 -28.2500 -30.0000 Du        
   3457 ****        -8.0000 -28.2500 -29.7500 Du        
   3458 ****        -8.0000 -28.2500 -29.5000 Du        
   3459 ****        -8.0000 -28.2500 -29.2500 Du        
   3460 ****        -8.0000 -28.2500 -29.0000 Du        
   3461 ****        -8.0000 -28.0000 -30.2500 Du        
   3462 ****        -8.0000 -28.0000 -30.0000 Du        
   3463 ****        -8.0000 -28.0000 -29.7500 Du        
   3464 ****        -8.0000 -28.0000 -29.5000 Du        
   3465 ****        -8.0000 -28.0000 -29.2500 Du        
   3466 ****        -8.0000 -28.0000 -29.0000 Du        
   3467 ****        -8.0000 -28.0000 -28.7500 Du        
   3468 ****        -8.0000 -27.7500 -30.0000 Du        
   3469 ****        -8.0000 -27.7500 -29.7500 Du        
   3470 ****        -8.0000 -27.7500 -29.5000 Du        
   3471 ****        -8.0000 -27.7500 -29.2500 Du        
   3472 ****        -8.0000 -27.7500 -29.0000 Du        
   3473 ****        -8.0000 -27.7500 -28.7500 Du        
   3474 ****        -8.0000 -27.5000 -29.7500 Du        
   3475 ****        -8.0000 -27.5000 -29.5000 Du        
   3476 ****        -8.0000 -27.5000 -29.2500 Du        
   3477 ****        -8.0000 -27.5000 -29.0000 Du        
   3478 ****        -8.0000 -27.5000 -28.7500 Du        
   3479 ****        -8.0000 -27.2500 -29.7500 Du        
   3480 ****        -8.0000 -27.2500 -29.5000 Du        
   3481 ****        -8.0000 -27.2500 -29.2500 Du        
   3482 ****        -8.0000 -27.2500 -29.0000 Du        
   3483 ****        -8.0000 -27.2500 -28.7500 Du        
   3484 ****        -8.0000 -27.0000 -29.5000 Du        
   3485 ****        -8.0000 -27.0000 -29.2500 Du        
   3486 ****        -8.0000 -27.0000 -29.0000 Du        
   3487 ****        -8.0000 -27.0000 -28.7500 Du        
   3488 ****        -8.0000 -27.0000 -28.5000 Du        
   3489 ****        -8.0000 -26.7500 -29.2500 Du        
   3490 ****        -8.0000 -26.7500 -29.0000 Du        
   3491 ****        -8.0000 -26.7500 -28.7500 Du        
   3492 ****        -8.0000 -26.5000 -29.0000 Du        
   3493 ****        -8.0000 -26.2500 -29.0000 Du        
   3494 ****        -8.0000 -23.0000 -30.0000 Du        
   3495 ****        -8.0000 -23.0000 -29.7500 Du        
   3496 ****        -8.0000 -22.7500 -30.2500 Du        
   3497 ****        -8.0000 -22.7500 -30.0000 Du        
   3498 ****        -8.0000 -22.7500 -29.7500 Du        
   3499 ****        -8.0000 -22.5000 -30.7500 Du        
   3500 ****        -8.0000 -22.5000 -30.5000 Du        
   3501 ****        -8.0000 -22.5000 -30.2500 Du        
   3502 ****        -8.0000 -22.5000 -30.0000 Du        
   3503 ****        -8.0000 -22.5000 -29.7500 Du        
   3504 ****        -8.0000 -22.5000 -29.5000 Du        
   3505 ****        -8.0000 -22.2500 -31.0000 Du        
   3506 ****        -8.0000 -22.2500 -30.7500 Du        
   3507 ****        -8.0000 -22.2500 -30.5000 Du        
   3508 ****        -8.0000 -22.2500 -30.2500 Du        
   3509 ****        -8.0000 -22.2500 -30.0000 Du        
   3510 ****        -8.0000 -22.2500 -29.7500 Du        
   3511 ****        -8.0000 -22.2500 -29.5000 Du        
   3512 ****        -8.0000 -22.2500 -29.2500 Du        
   3513 ****        -8.0000 -22.0000 -31.0000 Du        
   3514 ****        -8.0000 -22.0000 -30.7500 Du        
   3515 ****        -8.0000 -22.0000 -30.5000 Du        
   3516 ****        -8.0000 -22.0000 -30.2500 Du        
   3517 ****        -8.0000 -22.0000 -30.0000 Du        
   3518 ****        -8.0000 -22.0000 -29.7500 Du        
   3519 ****        -8.0000 -22.0000 -29.5000 Du        
   3520 ****        -8.0000 -22.0000 -29.2500 Du        
   3521 ****        -8.0000 -21.7500 -31.0000 Du        
   3522 ****        -8.0000 -21.7500 -30.7500 Du        
   3523 ****        -8.0000 -21.7500 -30.5000 Du        
   3524 ****        -8.0000 -21.7500 -30.2500 Du        
   3525 ****        -8.0000 -21.7500 -30.0000 Du        
   3526 ****        -8.0000 -21.7500 -29.7500 Du        
   3527 ****        -8.0000 -21.7500 -29.5000 Du        
   3528 ****        -8.0000 -21.7500 -29.2500 Du        
   3529 ****        -8.0000 -21.7500 -29.0000 Du        
   3530 ****        -8.0000 -21.5000 -30.7500 Du        
   3531 ****        -8.0000 -21.5000 -30.5000 Du        
   3532 ****        -8.0000 -21.5000 -30.2500 Du        
   3533 ****        -8.0000 -21.5000 -30.0000 Du        
   3534 ****        -8.0000 -21.5000 -29.7500 Du        
   3535 ****        -8.0000 -21.5000 -29.5000 Du        
   3536 ****        -8.0000 -21.5000 -29.2500 Du        
   3537 ****        -8.0000 -21.2500 -30.5000 Du        
   3538 ****        -8.0000 -21.2500 -30.2500 Du        
   3539 ****        -8.0000 -21.2500 -30.0000 Du        
   3540 ****        -8.0000 -21.2500 -29.7500 Du        
   3541 ****        -8.0000 -21.2500 -29.5000 Du        
   3542 ****        -8.0000 -21.2500 -29.2500 Du        
   3543 ****        -8.0000 -21.0000 -30.2500 Du        
   3544 ****        -8.0000 -21.0000 -30.0000 Du        
   3545 ****        -8.0000 -21.0000 -29.7500 Du        
   3546 ****        -8.0000 -21.0000 -29.5000 Du        
   3547 ****        -8.0000 -21.0000 -29.2500 Du        
   3548 ****        -8.0000 -20.7500 -30.0000 Du        
   3549 ****        -8.0000 -20.7500 -29.7500 Du        
   3550 ****        -8.0000 -20.7500 -29.5000 Du        
   3551 ****        -8.0000 -20.7500 -29.2500 Du        
   3552 ****        -8.0000 -17.0000 -28.7500 Du        
   3553 ****        -7.7500 -29.2500 -29.7500 Du        
   3554 ****        -7.7500 -29.2500 -29.5000 Du        
   3555 ****        -7.7500 -29.0000 -30.0000 Du        
   3556 ****        -7.7500 -29.0000 -29.7500 Du        
   3557 ****        -7.7500 -29.0000 -29.5000 Du        
   3558 ****        -7.7500 -29.0000 -29.2500 Du        
   3559 ****        -7.7500 -28.7500 -30.2500 Du        
   3560 ****        -7.7500 -28.7500 -30.0000 Du        
   3561 ****        -7.7500 -28.7500 -29.7500 Du        
   3562 ****        -7.7500 -28.7500 -29.5000 Du        
   3563 ****        -7.7500 -28.7500 -29.2500 Du        
   3564 ****        -7.7500 -28.5000 -30.2500 Du        
   3565 ****        -7.7500 -28.5000 -30.0000 Du        
   3566 ****        -7.7500 -28.5000 -29.7500 Du        
   3567 ****        -7.7500 -28.5000 -29.5000 Du        
   3568 ****        -7.7500 -28.5000 -29.2500 Du        
   3569 ****        -7.7500 -28.2500 -30.2500 Du        
   3570 ****        -7.7500 -28.2500 -30.0000 Du        
   3571 ****        -7.7500 -28.2500 -29.7500 Du        
   3572 ****        -7.7500 -28.2500 -29.5000 Du        
   3573 ****        -7.7500 -28.2500 -29.2500 Du        
   3574 ****        -7.7500 -28.2500 -29.0000 Du        
   3575 ****        -7.7500 -28.0000 -30.2500 Du        
   3576 ****        -7.7500 -28.0000 -30.0000 Du        
   3577 ****        -7.7500 -28.0000 -29.7500 Du        
   3578 ****        -7.7500 -28.0000 -29.5000 Du        
   3579 ****        -7.7500 -28.0000 -29.2500 Du        
   3580 ****        -7.7500 -28.0000 -29.0000 Du        
   3581 ****        -7.7500 -28.0000 -28.7500 Du        
   3582 ****        -7.7500 -27.7500 -30.0000 Du        
   3583 ****        -7.7500 -27.7500 -29.7500 Du        
   3584 ****        -7.7500 -27.7500 -29.5000 Du        
   3585 ****        -7.7500 -27.7500 -29.2500 Du        
   3586 ****        -7.7500 -27.7500 -29.0000 Du        
   3587 ****        -7.7500 -27.7500 -28.7500 Du        
   3588 ****        -7.7500 -27.5000 -29.7500 Du        
   3589 ****        -7.7500 -27.5000 -29.5000 Du        
   3590 ****        -7.7500 -27.5000 -29.2500 Du        
   3591 ****        -7.7500 -27.5000 -29.0000 Du        
   3592 ****        -7.7500 -27.5000 -28.7500 Du        
   3593 ****        -7.7500 -27.2500 -29.5000 Du        
   3594 ****        -7.7500 -27.2500 -29.2500 Du        
   3595 ****        -7.7500 -27.2500 -29.0000 Du        
   3596 ****        -7.7500 -27.2500 -28.7500 Du        
   3597 ****        -7.7500 -27.2500 -28.5000 Du        
   3598 ****        -7.7500 -27.0000 -29.2500 Du        
   3599 ****        -7.7500 -27.0000 -29.0000 Du        
   3600 ****        -7.7500 -27.0000 -28.7500 Du        
   3601 ****        -7.7500 -27.0000 -28.5000 Du        
   3602 ****        -7.7500 -27.0000 -28.2500 Du        
   3603 ****        -7.7500 -26.7500 -29.2500 Du        
   3604 ****        -7.7500 -26.7500 -29.0000 Du        
   3605 ****        -7.7500 -26.7500 -28.7500 Du        
   3606 ****        -7.7500 -26.7500 -28.5000 Du        
   3607 ****        -7.7500 -26.7500 -28.2500 Du        
   3608 ****        -7.7500 -26.5000 -29.0000 Du        
   3609 ****        -7.7500 -26.5000 -28.2500 Du        
   3610 ****        -7.7500 -26.2500 -29.0000 Du        
   3611 ****        -7.7500 -26.2500 -28.2500 Du        
   3612 ****        -7.7500 -26.0000 -28.2500 Du        
   3613 ****        -7.7500 -25.7500 -28.2500 Du        
   3614 ****        -7.7500 -25.0000 -28.0000 Du        
   3615 ****        -7.7500 -25.0000 -27.7500 Du        
   3616 ****        -7.7500 -25.0000 -27.5000 Du        
   3617 ****        -7.7500 -24.7500 -27.7500 Du        
   3618 ****        -7.7500 -24.7500 -27.2500 Du        
   3619 ****        -7.7500 -24.7500 -27.0000 Du        
   3620 ****        -7.7500 -22.7500 -30.0000 Du        
   3621 ****        -7.7500 -22.7500 -29.7500 Du        
   3622 ****        -7.7500 -22.5000 -30.2500 Du        
   3623 ****        -7.7500 -22.5000 -30.0000 Du        
   3624 ****        -7.7500 -22.5000 -29.7500 Du        
   3625 ****        -7.7500 -22.5000 -29.5000 Du        
   3626 ****        -7.7500 -22.5000 -29.2500 Du        
   3627 ****        -7.7500 -22.2500 -30.7500 Du        
   3628 ****        -7.7500 -22.2500 -30.5000 Du        
   3629 ****        -7.7500 -22.2500 -30.2500 Du        
   3630 ****        -7.7500 -22.2500 -30.0000 Du        
   3631 ****        -7.7500 -22.2500 -29.7500 Du        
   3632 ****        -7.7500 -22.2500 -29.5000 Du        
   3633 ****        -7.7500 -22.2500 -29.2500 Du        
   3634 ****        -7.7500 -22.0000 -31.0000 Du        
   3635 ****        -7.7500 -22.0000 -30.7500 Du        
   3636 ****        -7.7500 -22.0000 -30.5000 Du        
   3637 ****        -7.7500 -22.0000 -30.2500 Du        
   3638 ****        -7.7500 -22.0000 -30.0000 Du        
   3639 ****        -7.7500 -22.0000 -29.7500 Du        
   3640 ****        -7.7500 -22.0000 -29.5000 Du        
   3641 ****        -7.7500 -22.0000 -29.2500 Du        
   3642 ****        -7.7500 -22.0000 -29.0000 Du        
   3643 ****        -7.7500 -21.7500 -31.0000 Du        
   3644 ****        -7.7500 -21.7500 -30.7500 Du        
   3645 ****        -7.7500 -21.7500 -30.5000 Du        
   3646 ****        -7.7500 -21.7500 -30.2500 Du        
   3647 ****        -7.7500 -21.7500 -30.0000 Du        
   3648 ****        -7.7500 -21.7500 -29.7500 Du        
   3649 ****        -7.7500 -21.7500 -29.5000 Du        
   3650 ****        -7.7500 -21.7500 -29.2500 Du        
   3651 ****        -7.7500 -21.7500 -29.0000 Du        
   3652 ****        -7.7500 -21.5000 -30.7500 Du        
   3653 ****        -7.7500 -21.5000 -30.5000 Du        
   3654 ****        -7.7500 -21.5000 -30.2500 Du        
   3655 ****        -7.7500 -21.5000 -30.0000 Du        
   3656 ****        -7.7500 -21.5000 -29.7500 Du        
   3657 ****        -7.7500 -21.5000 -29.5000 Du        
   3658 ****        -7.7500 -21.5000 -29.2500 Du        
   3659 ****        -7.7500 -21.5000 -29.0000 Du        
   3660 ****        -7.7500 -21.2500 -30.5000 Du        
   3661 ****        -7.7500 -21.2500 -30.2500 Du        
   3662 ****        -7.7500 -21.2500 -30.0000 Du        
   3663 ****        -7.7500 -21.2500 -29.7500 Du        
   3664 ****        -7.7500 -21.2500 -29.5000 Du        
   3665 ****        -7.7500 -21.2500 -29.2500 Du        
   3666 ****        -7.7500 -21.2500 -29.0000 Du        
   3667 ****        -7.7500 -21.0000 -30.2500 Du        
   3668 ****        -7.7500 -21.0000 -30.0000 Du        
   3669 ****        -7.7500 -21.0000 -29.7500 Du        
   3670 ****        -7.7500 -21.0000 -29.5000 Du        
   3671 ****        -7.7500 -21.0000 -29.2500 Du        
   3672 ****        -7.7500 -21.0000 -29.0000 Du        
   3673 ****        -7.7500 -20.7500 -30.2500 Du        
   3674 ****        -7.7500 -20.7500 -30.0000 Du        
   3675 ****        -7.7500 -20.7500 -29.7500 Du        
   3676 ****        -7.7500 -20.7500 -29.5000 Du        
   3677 ****        -7.7500 -20.7500 -29.2500 Du        
   3678 ****        -7.7500 -20.7500 -29.0000 Du        
   3679 ****        -7.7500 -20.5000 -29.7500 Du        
   3680 ****        -7.7500 -20.5000 -29.2500 Du        
   3681 ****        -7.7500 -17.2500 -28.7500 Du        
   3682 ****        -7.7500 -17.0000 -28.7500 Du        
   3683 ****        -7.5000 -29.5000 -29.5000 Du        
   3684 ****        -7.5000 -29.2500 -29.7500 Du        
   3685 ****        -7.5000 -29.2500 -29.5000 Du        
   3686 ****        -7.5000 -29.0000 -30.0000 Du        
   3687 ****        -7.5000 -29.0000 -29.7500 Du        
   3688 ****        -7.5000 -29.0000 -29.5000 Du        
   3689 ****        -7.5000 -29.0000 -29.2500 Du        
   3690 ****        -7.5000 -28.7500 -30.2500 Du        
   3691 ****        -7.5000 -28.7500 -30.0000 Du        
   3692 ****        -7.5000 -28.7500 -29.7500 Du        
   3693 ****        -7.5000 -28.7500 -29.5000 Du        
   3694 ****        -7.5000 -28.7500 -29.2500 Du        
   3695 ****        -7.5000 -28.5000 -30.2500 Du        
   3696 ****        -7.5000 -28.5000 -30.0000 Du        
   3697 ****        -7.5000 -28.5000 -29.7500 Du        
   3698 ****        -7.5000 -28.5000 -29.5000 Du        
   3699 ****        -7.5000 -28.5000 -29.2500 Du        
   3700 ****        -7.5000 -28.2500 -30.2500 Du        
   3701 ****        -7.5000 -28.2500 -30.0000 Du        
   3702 ****        -7.5000 -28.2500 -29.7500 Du        
   3703 ****        -7.5000 -28.2500 -29.5000 Du        
   3704 ****        -7.5000 -28.2500 -29.2500 Du        
   3705 ****        -7.5000 -28.2500 -29.0000 Du        
   3706 ****        -7.5000 -28.0000 -30.0000 Du        
   3707 ****        -7.5000 -28.0000 -29.7500 Du        
   3708 ****        -7.5000 -28.0000 -29.5000 Du        
   3709 ****        -7.5000 -28.0000 -29.2500 Du        
   3710 ****        -7.5000 -28.0000 -29.0000 Du        
   3711 ****        -7.5000 -27.7500 -30.0000 Du        
   3712 ****        -7.5000 -27.7500 -29.7500 Du        
   3713 ****        -7.5000 -27.7500 -29.5000 Du        
   3714 ****        -7.5000 -27.7500 -29.2500 Du        
   3715 ****        -7.5000 -27.7500 -29.0000 Du        
   3716 ****        -7.5000 -27.7500 -28.7500 Du        
   3717 ****        -7.5000 -27.5000 -29.5000 Du        
   3718 ****        -7.5000 -27.5000 -29.2500 Du        
   3719 ****        -7.5000 -27.5000 -29.0000 Du        
   3720 ****        -7.5000 -27.5000 -28.7500 Du        
   3721 ****        -7.5000 -27.2500 -29.5000 Du        
   3722 ****        -7.5000 -27.2500 -29.2500 Du        
   3723 ****        -7.5000 -27.2500 -29.0000 Du        
   3724 ****        -7.5000 -27.2500 -28.7500 Du        
   3725 ****        -7.5000 -27.0000 -29.2500 Du        
   3726 ****        -7.5000 -27.0000 -29.0000 Du        
   3727 ****        -7.5000 -27.0000 -28.7500 Du        
   3728 ****        -7.5000 -27.0000 -28.5000 Du        
   3729 ****        -7.5000 -26.7500 -29.2500 Du        
   3730 ****        -7.5000 -26.7500 -29.0000 Du        
   3731 ****        -7.5000 -26.7500 -28.7500 Du        
   3732 ****        -7.5000 -26.7500 -28.5000 Du        
   3733 ****        -7.5000 -26.7500 -28.2500 Du        
   3734 ****        -7.5000 -26.5000 -28.7500 Du        
   3735 ****        -7.5000 -26.5000 -28.2500 Du        
   3736 ****        -7.5000 -26.2500 -28.7500 Du        
   3737 ****        -7.5000 -26.0000 -28.7500 Du        
   3738 ****        -7.5000 -26.0000 -28.2500 Du        
   3739 ****        -7.5000 -26.0000 -28.0000 Du        
   3740 ****        -7.5000 -25.7500 -28.2500 Du        
   3741 ****        -7.5000 -25.7500 -28.0000 Du        
   3742 ****        -7.5000 -25.7500 -27.5000 Du        
   3743 ****        -7.5000 -25.5000 -27.5000 Du        
   3744 ****        -7.5000 -25.2500 -28.0000 Du        
   3745 ****        -7.5000 -25.2500 -27.7500 Du        
   3746 ****        -7.5000 -25.2500 -27.5000 Du        
   3747 ****        -7.5000 -25.2500 -27.2500 Du        
   3748 ****        -7.5000 -25.2500 -27.0000 Du        
   3749 ****        -7.5000 -25.0000 -28.0000 Du        
   3750 ****        -7.5000 -25.0000 -27.7500 Du        
   3751 ****        -7.5000 -25.0000 -27.5000 Du        
   3752 ****        -7.5000 -25.0000 -27.2500 Du        
   3753 ****        -7.5000 -25.0000 -27.0000 Du        
   3754 ****        -7.5000 -24.7500 -28.0000 Du        
   3755 ****        -7.5000 -24.7500 -27.7500 Du        
   3756 ****        -7.5000 -24.7500 -27.5000 Du        
   3757 ****        -7.5000 -24.7500 -27.2500 Du        
   3758 ****        -7.5000 -24.7500 -27.0000 Du        
   3759 ****        -7.5000 -24.5000 -27.5000 Du        
   3760 ****        -7.5000 -24.5000 -27.2500 Du        
   3761 ****        -7.5000 -24.5000 -27.0000 Du        
   3762 ****        -7.5000 -24.2500 -27.5000 Du        
   3763 ****        -7.5000 -24.2500 -27.2500 Du        
   3764 ****        -7.5000 -24.2500 -27.0000 Du        
   3765 ****        -7.5000 -24.0000 -27.5000 Du        
   3766 ****        -7.5000 -24.0000 -27.2500 Du        
   3767 ****        -7.5000 -22.7500 -29.7500 Du        
   3768 ****        -7.5000 -22.5000 -30.2500 Du        
   3769 ****        -7.5000 -22.5000 -30.0000 Du        
   3770 ****        -7.5000 -22.5000 -29.7500 Du        
   3771 ****        -7.5000 -22.2500 -30.5000 Du        
   3772 ****        -7.5000 -22.2500 -30.2500 Du        
   3773 ****        -7.5000 -22.2500 -30.0000 Du        
   3774 ****        -7.5000 -22.2500 -29.7500 Du        
   3775 ****        -7.5000 -22.2500 -29.5000 Du        
   3776 ****        -7.5000 -22.2500 -29.2500 Du        
   3777 ****        -7.5000 -22.0000 -30.7500 Du        
   3778 ****        -7.5000 -22.0000 -30.5000 Du        
   3779 ****        -7.5000 -22.0000 -30.2500 Du        
   3780 ****        -7.5000 -22.0000 -30.0000 Du        
   3781 ****        -7.5000 -22.0000 -29.7500 Du        
   3782 ****        -7.5000 -22.0000 -29.5000 Du        
   3783 ****        -7.5000 -22.0000 -29.2500 Du        
   3784 ****        -7.5000 -21.7500 -30.7500 Du        
   3785 ****        -7.5000 -21.7500 -30.5000 Du        
   3786 ****        -7.5000 -21.7500 -30.2500 Du        
   3787 ****        -7.5000 -21.7500 -30.0000 Du        
   3788 ****        -7.5000 -21.7500 -29.7500 Du        
   3789 ****        -7.5000 -21.7500 -29.5000 Du        
   3790 ****        -7.5000 -21.7500 -29.2500 Du        
   3791 ****        -7.5000 -21.7500 -29.0000 Du        
   3792 ****        -7.5000 -21.5000 -30.7500 Du        
   3793 ****        -7.5000 -21.5000 -30.5000 Du        
   3794 ****        -7.5000 -21.5000 -30.2500 Du        
   3795 ****        -7.5000 -21.5000 -30.0000 Du        
   3796 ****        -7.5000 -21.5000 -29.7500 Du        
   3797 ****        -7.5000 -21.5000 -29.5000 Du        
   3798 ****        -7.5000 -21.5000 -29.2500 Du        
   3799 ****        -7.5000 -21.5000 -29.0000 Du        
   3800 ****        -7.5000 -21.2500 -30.5000 Du        
   3801 ****        -7.5000 -21.2500 -30.2500 Du        
   3802 ****        -7.5000 -21.2500 -30.0000 Du        
   3803 ****        -7.5000 -21.2500 -29.7500 Du        
   3804 ****        -7.5000 -21.2500 -29.5000 Du        
   3805 ****        -7.5000 -21.2500 -29.2500 Du        
   3806 ****        -7.5000 -21.2500 -29.0000 Du        
   3807 ****        -7.5000 -21.0000 -30.2500 Du        
   3808 ****        -7.5000 -21.0000 -30.0000 Du        
   3809 ****        -7.5000 -21.0000 -29.7500 Du        
   3810 ****        -7.5000 -21.0000 -29.5000 Du        
   3811 ****        -7.5000 -21.0000 -29.2500 Du        
   3812 ****        -7.5000 -21.0000 -29.0000 Du        
   3813 ****        -7.5000 -20.7500 -30.0000 Du        
   3814 ****        -7.5000 -20.7500 -29.7500 Du        
   3815 ****        -7.5000 -20.7500 -29.5000 Du        
   3816 ****        -7.5000 -20.7500 -29.2500 Du        
   3817 ****        -7.5000 -20.5000 -30.0000 Du        
   3818 ****        -7.5000 -20.5000 -29.7500 Du        
   3819 ****        -7.5000 -20.5000 -29.2500 Du        
   3820 ****        -7.5000 -20.2500 -29.7500 Du        
   3821 ****        -7.5000 -17.7500 -28.7500 Du        
   3822 ****        -7.5000 -17.5000 -29.0000 Du        
   3823 ****        -7.5000 -17.5000 -28.7500 Du        
   3824 ****        -7.5000 -17.2500 -29.0000 Du        
   3825 ****        -7.5000 -17.2500 -28.7500 Du        
   3826 ****        -7.5000 -17.0000 -28.7500 Du        
   3827 ****        -7.2500 -29.5000 -29.5000 Du        
   3828 ****        -7.2500 -29.2500 -29.7500 Du        
   3829 ****        -7.2500 -29.2500 -29.5000 Du        
   3830 ****        -7.2500 -29.2500 -29.2500 Du        
   3831 ****        -7.2500 -29.0000 -30.0000 Du        
   3832 ****        -7.2500 -29.0000 -29.7500 Du        
   3833 ****        -7.2500 -29.0000 -29.5000 Du        
   3834 ****        -7.2500 -29.0000 -29.2500 Du        
   3835 ****        -7.2500 -28.7500 -30.2500 Du        
   3836 ****        -7.2500 -28.7500 -30.0000 Du        
   3837 ****        -7.2500 -28.7500 -29.7500 Du        
   3838 ****        -7.2500 -28.7500 -29.5000 Du        
   3839 ****        -7.2500 -28.7500 -29.2500 Du        
   3840 ****        -7.2500 -28.5000 -30.2500 Du        
   3841 ****        -7.2500 -28.5000 -30.0000 Du        
   3842 ****        -7.2500 -28.5000 -29.7500 Du        
   3843 ****        -7.2500 -28.5000 -29.5000 Du        
   3844 ****        -7.2500 -28.5000 -29.2500 Du        
   3845 ****        -7.2500 -28.2500 -30.2500 Du        
   3846 ****        -7.2500 -28.2500 -30.0000 Du        
   3847 ****        -7.2500 -28.2500 -29.7500 Du        
   3848 ****        -7.2500 -28.2500 -29.5000 Du        
   3849 ****        -7.2500 -28.2500 -29.2500 Du        
   3850 ****        -7.2500 -28.2500 -29.0000 Du        
   3851 ****        -7.2500 -28.0000 -30.0000 Du        
   3852 ****        -7.2500 -28.0000 -29.7500 Du        
   3853 ****        -7.2500 -28.0000 -29.5000 Du        
   3854 ****        -7.2500 -28.0000 -29.2500 Du        
   3855 ****        -7.2500 -28.0000 -29.0000 Du        
   3856 ****        -7.2500 -27.7500 -30.0000 Du        
   3857 ****        -7.2500 -27.7500 -29.7500 Du        
   3858 ****        -7.2500 -27.7500 -29.5000 Du        
   3859 ****        -7.2500 -27.7500 -29.2500 Du        
   3860 ****        -7.2500 -27.7500 -29.0000 Du        
   3861 ****        -7.2500 -27.7500 -28.7500 Du        
   3862 ****        -7.2500 -27.5000 -29.5000 Du        
   3863 ****        -7.2500 -27.5000 -29.2500 Du        
   3864 ****        -7.2500 -27.5000 -29.0000 Du        
   3865 ****        -7.2500 -27.5000 -28.7500 Du        
   3866 ****        -7.2500 -27.2500 -29.5000 Du        
   3867 ****        -7.2500 -27.2500 -29.2500 Du        
   3868 ****        -7.2500 -27.2500 -29.0000 Du        
   3869 ****        -7.2500 -27.2500 -28.7500 Du        
   3870 ****        -7.2500 -27.0000 -29.2500 Du        
   3871 ****        -7.2500 -27.0000 -29.0000 Du        
   3872 ****        -7.2500 -27.0000 -28.7500 Du        
   3873 ****        -7.2500 -27.0000 -28.5000 Du        
   3874 ****        -7.2500 -26.7500 -29.2500 Du        
   3875 ****        -7.2500 -26.7500 -29.0000 Du        
   3876 ****        -7.2500 -26.7500 -28.7500 Du        
   3877 ****        -7.2500 -26.7500 -28.5000 Du        
   3878 ****        -7.2500 -26.7500 -28.2500 Du        
   3879 ****        -7.2500 -26.5000 -29.0000 Du        
   3880 ****        -7.2500 -26.5000 -28.7500 Du        
   3881 ****        -7.2500 -26.5000 -28.5000 Du        
   3882 ****        -7.2500 -26.5000 -28.2500 Du        
   3883 ****        -7.2500 -26.2500 -28.7500 Du        
   3884 ****        -7.2500 -26.2500 -28.2500 Du        
   3885 ****        -7.2500 -26.2500 -28.0000 Du        
   3886 ****        -7.2500 -26.0000 -28.7500 Du        
   3887 ****        -7.2500 -26.0000 -28.2500 Du        
   3888 ****        -7.2500 -26.0000 -28.0000 Du        
   3889 ****        -7.2500 -25.7500 -28.2500 Du        
   3890 ****        -7.2500 -25.7500 -28.0000 Du        
   3891 ****        -7.2500 -25.7500 -27.7500 Du        
   3892 ****        -7.2500 -25.7500 -27.5000 Du        
   3893 ****        -7.2500 -25.5000 -28.2500 Du        
   3894 ****        -7.2500 -25.5000 -28.0000 Du        
   3895 ****        -7.2500 -25.5000 -27.7500 Du        
   3896 ****        -7.2500 -25.5000 -27.5000 Du        
   3897 ****        -7.2500 -25.5000 -27.2500 Du        
   3898 ****        -7.2500 -25.2500 -28.2500 Du        
   3899 ****        -7.2500 -25.2500 -28.0000 Du        
   3900 ****        -7.2500 -25.2500 -27.7500 Du        
   3901 ****        -7.2500 -25.2500 -27.5000 Du        
   3902 ****        -7.2500 -25.2500 -27.2500 Du        
   3903 ****        -7.2500 -25.2500 -27.0000 Du        
   3904 ****        -7.2500 -25.0000 -28.2500 Du        
   3905 ****        -7.2500 -25.0000 -28.0000 Du        
   3906 ****        -7.2500 -25.0000 -27.7500 Du        
   3907 ****        -7.2500 -25.0000 -27.5000 Du        
   3908 ****        -7.2500 -25.0000 -27.2500 Du        
   3909 ****        -7.2500 -25.0000 -27.0000 Du        
   3910 ****        -7.2500 -24.7500 -28.2500 Du        
   3911 ****        -7.2500 -24.7500 -28.0000 Du        
   3912 ****        -7.2500 -24.7500 -27.7500 Du        
   3913 ****        -7.2500 -24.7500 -27.5000 Du        
   3914 ****        -7.2500 -24.7500 -27.2500 Du        
   3915 ****        -7.2500 -24.7500 -27.0000 Du        
   3916 ****        -7.2500 -24.7500 -26.7500 Du        
   3917 ****        -7.2500 -24.5000 -27.7500 Du        
   3918 ****        -7.2500 -24.5000 -27.5000 Du        
   3919 ****        -7.2500 -24.5000 -27.2500 Du        
   3920 ****        -7.2500 -24.5000 -27.0000 Du        
   3921 ****        -7.2500 -24.2500 -28.0000 Du        
   3922 ****        -7.2500 -24.2500 -27.7500 Du        
   3923 ****        -7.2500 -24.2500 -27.5000 Du        
   3924 ****        -7.2500 -24.2500 -27.2500 Du        
   3925 ****        -7.2500 -24.2500 -27.0000 Du        
   3926 ****        -7.2500 -24.0000 -28.0000 Du        
   3927 ****        -7.2500 -24.0000 -27.5000 Du        
   3928 ****        -7.2500 -24.0000 -27.2500 Du        
   3929 ****        -7.2500 -24.0000 -27.0000 Du        
   3930 ****        -7.2500 -23.7500 -27.2500 Du        
   3931 ****        -7.2500 -22.5000 -30.0000 Du        
   3932 ****        -7.2500 -22.5000 -29.7500 Du        
   3933 ****        -7.2500 -22.5000 -29.5000 Du        
   3934 ****        -7.2500 -22.2500 -30.2500 Du        
   3935 ****        -7.2500 -22.2500 -30.0000 Du        
   3936 ****        -7.2500 -22.2500 -29.7500 Du        
   3937 ****        -7.2500 -22.2500 -29.5000 Du        
   3938 ****        -7.2500 -22.2500 -29.2500 Du        
   3939 ****        -7.2500 -22.0000 -30.5000 Du        
   3940 ****        -7.2500 -22.0000 -30.2500 Du        
   3941 ****        -7.2500 -22.0000 -30.0000 Du        
   3942 ****        -7.2500 -22.0000 -29.7500 Du        
   3943 ****        -7.2500 -22.0000 -29.5000 Du        
   3944 ****        -7.2500 -22.0000 -29.2500 Du        
   3945 ****        -7.2500 -22.0000 -29.0000 Du        
   3946 ****        -7.2500 -21.7500 -30.5000 Du        
   3947 ****        -7.2500 -21.7500 -30.2500 Du        
   3948 ****        -7.2500 -21.7500 -30.0000 Du        
   3949 ****        -7.2500 -21.7500 -29.7500 Du        
   3950 ****        -7.2500 -21.7500 -29.5000 Du        
   3951 ****        -7.2500 -21.7500 -29.2500 Du        
   3952 ****        -7.2500 -21.7500 -29.0000 Du        
   3953 ****        -7.2500 -21.7500 -28.7500 Du        
   3954 ****        -7.2500 -21.5000 -30.5000 Du        
   3955 ****        -7.2500 -21.5000 -30.2500 Du        
   3956 ****        -7.2500 -21.5000 -30.0000 Du        
   3957 ****        -7.2500 -21.5000 -29.7500 Du        
   3958 ****        -7.2500 -21.5000 -29.5000 Du        
   3959 ****        -7.2500 -21.5000 -29.2500 Du        
   3960 ****        -7.2500 -21.5000 -29.0000 Du        
   3961 ****        -7.2500 -21.5000 -28.7500 Du        
   3962 ****        -7.2500 -21.2500 -30.2500 Du        
   3963 ****        -7.2500 -21.2500 -30.0000 Du        
   3964 ****        -7.2500 -21.2500 -29.7500 Du        
   3965 ****        -7.2500 -21.2500 -29.5000 Du        
   3966 ****        -7.2500 -21.2500 -29.2500 Du        
   3967 ****        -7.2500 -21.2500 -29.0000 Du        
   3968 ****        -7.2500 -21.2500 -28.7500 Du        
   3969 ****        -7.2500 -21.0000 -30.2500 Du        
   3970 ****        -7.2500 -21.0000 -30.0000 Du        
   3971 ****        -7.2500 -21.0000 -29.7500 Du        
   3972 ****        -7.2500 -21.0000 -29.5000 Du        
   3973 ****        -7.2500 -21.0000 -29.2500 Du        
   3974 ****        -7.2500 -21.0000 -29.0000 Du        
   3975 ****        -7.2500 -20.7500 -30.2500 Du        
   3976 ****        -7.2500 -20.7500 -30.0000 Du        
   3977 ****        -7.2500 -20.7500 -29.7500 Du        
   3978 ****        -7.2500 -20.7500 -29.5000 Du        
   3979 ****        -7.2500 -20.7500 -29.2500 Du        
   3980 ****        -7.2500 -20.7500 -29.0000 Du        
   3981 ****        -7.2500 -20.5000 -30.0000 Du        
   3982 ****        -7.2500 -20.5000 -29.7500 Du        
   3983 ****        -7.2500 -20.5000 -29.5000 Du        
   3984 ****        -7.2500 -20.5000 -29.2500 Du        
   3985 ****        -7.2500 -20.5000 -29.0000 Du        
   3986 ****        -7.2500 -20.2500 -29.7500 Du        
   3987 ****        -7.2500 -20.2500 -29.5000 Du        
   3988 ****        -7.2500 -20.2500 -29.2500 Du        
   3989 ****        -7.2500 -20.2500 -29.0000 Du        
   3990 ****        -7.2500 -20.0000 -29.5000 Du        
   3991 ****        -7.2500 -20.0000 -29.2500 Du        
   3992 ****        -7.2500 -20.0000 -29.0000 Du        
   3993 ****        -7.2500 -20.0000 -28.7500 Du        
   3994 ****        -7.2500 -19.7500 -29.2500 Du        
   3995 ****        -7.2500 -19.7500 -29.0000 Du        
   3996 ****        -7.2500 -19.7500 -28.7500 Du        
   3997 ****        -7.2500 -19.5000 -29.0000 Du        
   3998 ****        -7.2500 -19.5000 -28.7500 Du        
   3999 ****        -7.2500 -19.2500 -29.0000 Du        
   4000 ****        -7.2500 -19.2500 -28.7500 Du        
   4001 ****        -7.2500 -19.0000 -28.7500 Du        
   4002 ****        -7.2500 -18.7500 -28.7500 Du        
   4003 ****        -7.2500 -18.2500 -29.0000 Du        
   4004 ****        -7.2500 -18.2500 -28.7500 Du        
   4005 ****        -7.2500 -18.0000 -29.0000 Du        
   4006 ****        -7.2500 -18.0000 -28.7500 Du        
   4007 ****        -7.2500 -17.7500 -29.0000 Du        
   4008 ****        -7.2500 -17.7500 -28.7500 Du        
   4009 ****        -7.2500 -17.5000 -29.0000 Du        
   4010 ****        -7.2500 -17.5000 -28.7500 Du        
   4011 ****        -7.2500 -17.2500 -29.0000 Du        
   4012 ****        -7.2500 -17.2500 -28.7500 Du        
   4013 ****        -7.2500 -17.0000 -28.7500 Du        
   4014 ****        -7.0000 -29.5000 -29.5000 Du        
   4015 ****        -7.0000 -29.2500 -29.7500 Du        
   4016 ****        -7.0000 -29.2500 -29.5000 Du        
   4017 ****        -7.0000 -29.2500 -29.2500 Du        
   4018 ****        -7.0000 -29.0000 -30.0000 Du        
   4019 ****        -7.0000 -29.0000 -29.7500 Du        
   4020 ****        -7.0000 -29.0000 -29.5000 Du        
   4021 ****        -7.0000 -29.0000 -29.2500 Du        
   4022 ****        -7.0000 -28.7500 -30.0000 Du        
   4023 ****        -7.0000 -28.7500 -29.7500 Du        
   4024 ****        -7.0000 -28.7500 -29.5000 Du        
   4025 ****        -7.0000 -28.7500 -29.2500 Du        
   4026 ****        -7.0000 -28.5000 -30.2500 Du        
   4027 ****        -7.0000 -28.5000 -30.0000 Du        
   4028 ****        -7.0000 -28.5000 -29.7500 Du        
   4029 ****        -7.0000 -28.5000 -29.5000 Du        
   4030 ****        -7.0000 -28.5000 -29.2500 Du        
   4031 ****        -7.0000 -28.2500 -30.2500 Du        
   4032 ****        -7.0000 -28.2500 -30.0000 Du        
   4033 ****        -7.0000 -28.2500 -29.7500 Du        
   4034 ****        -7.0000 -28.2500 -29.5000 Du        
   4035 ****        -7.0000 -28.2500 -29.2500 Du        
   4036 ****        -7.0000 -28.2500 -29.0000 Du        
   4037 ****        -7.0000 -28.0000 -30.0000 Du        
   4038 ****        -7.0000 -28.0000 -29.7500 Du        
   4039 ****        -7.0000 -28.0000 -29.5000 Du        
   4040 ****        -7.0000 -28.0000 -29.2500 Du        
   4041 ****        -7.0000 -28.0000 -29.0000 Du        
   4042 ****        -7.0000 -27.7500 -30.0000 Du        
   4043 ****        -7.0000 -27.7500 -29.7500 Du        
   4044 ****        -7.0000 -27.7500 -29.5000 Du        
   4045 ****        -7.0000 -27.7500 -29.2500 Du        
   4046 ****        -7.0000 -27.7500 -29.0000 Du        
   4047 ****        -7.0000 -27.7500 -28.7500 Du        
   4048 ****        -7.0000 -27.5000 -29.5000 Du        
   4049 ****        -7.0000 -27.5000 -29.2500 Du        
   4050 ****        -7.0000 -27.5000 -29.0000 Du        
   4051 ****        -7.0000 -27.5000 -28.7500 Du        
   4052 ****        -7.0000 -27.2500 -29.5000 Du        
   4053 ****        -7.0000 -27.2500 -29.2500 Du        
   4054 ****        -7.0000 -27.2500 -29.0000 Du        
   4055 ****        -7.0000 -27.2500 -28.7500 Du        
   4056 ****        -7.0000 -27.0000 -29.2500 Du        
   4057 ****        -7.0000 -27.0000 -29.0000 Du        
   4058 ****        -7.0000 -27.0000 -28.7500 Du        
   4059 ****        -7.0000 -27.0000 -28.5000 Du        
   4060 ****        -7.0000 -26.7500 -29.2500 Du        
   4061 ****        -7.0000 -26.7500 -29.0000 Du        
   4062 ****        -7.0000 -26.7500 -28.7500 Du        
   4063 ****        -7.0000 -26.7500 -28.5000 Du        
   4064 ****        -7.0000 -26.5000 -28.7500 Du        
   4065 ****        -7.0000 -26.5000 -28.5000 Du        
   4066 ****        -7.0000 -26.2500 -29.0000 Du        
   4067 ****        -7.0000 -26.2500 -28.7500 Du        
   4068 ****        -7.0000 -26.2500 -28.2500 Du        
   4069 ****        -7.0000 -26.0000 -29.0000 Du        
   4070 ****        -7.0000 -26.0000 -28.7500 Du        
   4071 ****        -7.0000 -26.0000 -28.2500 Du        
   4072 ****        -7.0000 -26.0000 -28.0000 Du        
   4073 ****        -7.0000 -25.7500 -28.7500 Du        
   4074 ****        -7.0000 -25.7500 -28.5000 Du        
   4075 ****        -7.0000 -25.7500 -28.2500 Du        
   4076 ****        -7.0000 -25.7500 -28.0000 Du        
   4077 ****        -7.0000 -25.7500 -27.7500 Du        
   4078 ****        -7.0000 -25.7500 -27.5000 Du        
   4079 ****        -7.0000 -25.5000 -28.7500 Du        
   4080 ****        -7.0000 -25.5000 -28.2500 Du        
   4081 ****        -7.0000 -25.5000 -28.0000 Du        
   4082 ****        -7.0000 -25.5000 -27.7500 Du        
   4083 ****        -7.0000 -25.5000 -27.5000 Du        
   4084 ****        -7.0000 -25.2500 -28.7500 Du        
   4085 ****        -7.0000 -25.2500 -28.2500 Du        
   4086 ****        -7.0000 -25.2500 -28.0000 Du        
   4087 ****        -7.0000 -25.2500 -27.7500 Du        
   4088 ****        -7.0000 -25.2500 -27.5000 Du        
   4089 ****        -7.0000 -25.2500 -27.2500 Du        
   4090 ****        -7.0000 -25.2500 -27.0000 Du        
   4091 ****        -7.0000 -25.0000 -28.7500 Du        
   4092 ****        -7.0000 -25.0000 -28.2500 Du        
   4093 ****        -7.0000 -25.0000 -28.0000 Du        
   4094 ****        -7.0000 -25.0000 -27.7500 Du        
   4095 ****        -7.0000 -25.0000 -27.5000 Du        
   4096 ****        -7.0000 -25.0000 -27.2500 Du        
   4097 ****        -7.0000 -25.0000 -27.0000 Du        
   4098 ****        -7.0000 -24.7500 -28.7500 Du        
   4099 ****        -7.0000 -24.7500 -28.2500 Du        
   4100 ****        -7.0000 -24.7500 -28.0000 Du        
   4101 ****        -7.0000 -24.7500 -27.7500 Du        
   4102 ****        -7.0000 -24.7500 -27.5000 Du        
   4103 ****        -7.0000 -24.7500 -27.2500 Du        
   4104 ****        -7.0000 -24.7500 -27.0000 Du        
   4105 ****        -7.0000 -24.5000 -28.2500 Du        
   4106 ****        -7.0000 -24.5000 -28.0000 Du        
   4107 ****        -7.0000 -24.5000 -27.7500 Du        
   4108 ****        -7.0000 -24.5000 -27.5000 Du        
   4109 ****        -7.0000 -24.5000 -27.2500 Du        
   4110 ****        -7.0000 -24.5000 -27.0000 Du        
   4111 ****        -7.0000 -24.2500 -28.2500 Du        
   4112 ****        -7.0000 -24.2500 -28.0000 Du        
   4113 ****        -7.0000 -24.2500 -27.7500 Du        
   4114 ****        -7.0000 -24.2500 -27.5000 Du        
   4115 ****        -7.0000 -24.2500 -27.2500 Du        
   4116 ****        -7.0000 -24.2500 -27.0000 Du        
   4117 ****        -7.0000 -24.0000 -28.2500 Du        
   4118 ****        -7.0000 -24.0000 -28.0000 Du        
   4119 ****        -7.0000 -24.0000 -27.7500 Du        
   4120 ****        -7.0000 -24.0000 -27.5000 Du        
   4121 ****        -7.0000 -24.0000 -27.2500 Du        
   4122 ****        -7.0000 -24.0000 -27.0000 Du        
   4123 ****        -7.0000 -23.7500 -28.0000 Du        
   4124 ****        -7.0000 -23.7500 -27.7500 Du        
   4125 ****        -7.0000 -23.7500 -27.2500 Du        
   4126 ****        -7.0000 -23.5000 -27.7500 Du        
   4127 ****        -7.0000 -23.2500 -27.7500 Du        
   4128 ****        -7.0000 -23.0000 -28.0000 Du        
   4129 ****        -7.0000 -22.5000 -29.7500 Du        
   4130 ****        -7.0000 -22.5000 -29.5000 Du        
   4131 ****        -7.0000 -22.5000 -29.2500 Du        
   4132 ****        -7.0000 -22.2500 -30.0000 Du        
   4133 ****        -7.0000 -22.2500 -29.7500 Du        
   4134 ****        -7.0000 -22.2500 -29.5000 Du        
   4135 ****        -7.0000 -22.2500 -29.2500 Du        
   4136 ****        -7.0000 -22.2500 -29.0000 Du        
   4137 ****        -7.0000 -22.0000 -30.2500 Du        
   4138 ****        -7.0000 -22.0000 -30.0000 Du        
   4139 ****        -7.0000 -22.0000 -29.7500 Du        
   4140 ****        -7.0000 -22.0000 -29.5000 Du        
   4141 ****        -7.0000 -22.0000 -29.2500 Du        
   4142 ****        -7.0000 -22.0000 -29.0000 Du        
   4143 ****        -7.0000 -22.0000 -28.7500 Du        
   4144 ****        -7.0000 -21.7500 -30.5000 Du        
   4145 ****        -7.0000 -21.7500 -30.2500 Du        
   4146 ****        -7.0000 -21.7500 -30.0000 Du        
   4147 ****        -7.0000 -21.7500 -29.7500 Du        
   4148 ****        -7.0000 -21.7500 -29.5000 Du        
   4149 ****        -7.0000 -21.7500 -29.2500 Du        
   4150 ****        -7.0000 -21.7500 -29.0000 Du        
   4151 ****        -7.0000 -21.7500 -28.7500 Du        
   4152 ****        -7.0000 -21.5000 -30.2500 Du        
   4153 ****        -7.0000 -21.5000 -30.0000 Du        
   4154 ****        -7.0000 -21.5000 -29.7500 Du        
   4155 ****        -7.0000 -21.5000 -29.5000 Du        
   4156 ****        -7.0000 -21.5000 -29.2500 Du        
   4157 ****        -7.0000 -21.5000 -29.0000 Du        
   4158 ****        -7.0000 -21.5000 -28.7500 Du        
   4159 ****        -7.0000 -21.2500 -30.2500 Du        
   4160 ****        -7.0000 -21.2500 -30.0000 Du        
   4161 ****        -7.0000 -21.2500 -29.7500 Du        
   4162 ****        -7.0000 -21.2500 -29.5000 Du        
   4163 ****        -7.0000 -21.2500 -29.2500 Du        
   4164 ****        -7.0000 -21.2500 -29.0000 Du        
   4165 ****        -7.0000 -21.2500 -28.7500 Du        
   4166 ****        -7.0000 -21.0000 -30.2500 Du        
   4167 ****        -7.0000 -21.0000 -30.0000 Du        
   4168 ****        -7.0000 -21.0000 -29.7500 Du        
   4169 ****        -7.0000 -21.0000 -29.5000 Du        
   4170 ****        -7.0000 -21.0000 -29.2500 Du        
   4171 ****        -7.0000 -21.0000 -29.0000 Du        
   4172 ****        -7.0000 -21.0000 -28.7500 Du        
   4173 ****        -7.0000 -20.7500 -30.0000 Du        
   4174 ****        -7.0000 -20.7500 -29.7500 Du        
   4175 ****        -7.0000 -20.7500 -29.5000 Du        
   4176 ****        -7.0000 -20.7500 -29.2500 Du        
   4177 ****        -7.0000 -20.7500 -29.0000 Du        
   4178 ****        -7.0000 -20.7500 -28.7500 Du        
   4179 ****        -7.0000 -20.5000 -30.0000 Du        
   4180 ****        -7.0000 -20.5000 -29.7500 Du        
   4181 ****        -7.0000 -20.5000 -29.5000 Du        
   4182 ****        -7.0000 -20.5000 -29.2500 Du        
   4183 ****        -7.0000 -20.5000 -29.0000 Du        
   4184 ****        -7.0000 -20.5000 -28.7500 Du        
   4185 ****        -7.0000 -20.2500 -30.0000 Du        
   4186 ****        -7.0000 -20.2500 -29.7500 Du        
   4187 ****        -7.0000 -20.2500 -29.5000 Du        
   4188 ****        -7.0000 -20.2500 -29.2500 Du        
   4189 ****        -7.0000 -20.2500 -29.0000 Du        
   4190 ****        -7.0000 -20.2500 -28.7500 Du        
   4191 ****        -7.0000 -20.0000 -29.7500 Du        
   4192 ****        -7.0000 -20.0000 -29.5000 Du        
   4193 ****        -7.0000 -20.0000 -29.2500 Du        
   4194 ****        -7.0000 -20.0000 -29.0000 Du        
   4195 ****        -7.0000 -20.0000 -28.7500 Du        
   4196 ****        -7.0000 -19.7500 -29.5000 Du        
   4197 ****        -7.0000 -19.7500 -29.2500 Du        
   4198 ****        -7.0000 -19.7500 -29.0000 Du        
   4199 ****        -7.0000 -19.7500 -28.7500 Du        
   4200 ****        -7.0000 -19.5000 -29.2500 Du        
   4201 ****        -7.0000 -19.5000 -29.0000 Du        
   4202 ****        -7.0000 -19.5000 -28.7500 Du        
   4203 ****        -7.0000 -19.5000 -28.5000 Du        
   4204 ****        -7.0000 -19.2500 -29.2500 Du        
   4205 ****        -7.0000 -19.2500 -29.0000 Du        
   4206 ****        -7.0000 -19.2500 -28.7500 Du        
   4207 ****        -7.0000 -19.2500 -28.5000 Du        
   4208 ****        -7.0000 -19.2500 -28.2500 Du        
   4209 ****        -7.0000 -19.0000 -29.2500 Du        
   4210 ****        -7.0000 -19.0000 -29.0000 Du        
   4211 ****        -7.0000 -19.0000 -28.7500 Du        
   4212 ****        -7.0000 -19.0000 -28.5000 Du        
   4213 ****        -7.0000 -18.7500 -29.0000 Du        
   4214 ****        -7.0000 -18.7500 -28.7500 Du        
   4215 ****        -7.0000 -18.5000 -29.0000 Du        
   4216 ****        -7.0000 -18.5000 -28.7500 Du        
   4217 ****        -7.0000 -18.2500 -29.0000 Du        
   4218 ****        -7.0000 -18.2500 -28.7500 Du        
   4219 ****        -7.0000 -18.2500 -28.5000 Du        
   4220 ****        -7.0000 -18.0000 -29.0000 Du        
   4221 ****        -7.0000 -18.0000 -28.7500 Du        
   4222 ****        -7.0000 -18.0000 -28.5000 Du        
   4223 ****        -7.0000 -17.7500 -29.0000 Du        
   4224 ****        -7.0000 -17.7500 -28.7500 Du        
   4225 ****        -7.0000 -17.7500 -28.5000 Du        
   4226 ****        -7.0000 -17.5000 -29.2500 Du        
   4227 ****        -7.0000 -17.5000 -29.0000 Du        
   4228 ****        -7.0000 -17.5000 -28.7500 Du        
   4229 ****        -7.0000 -17.5000 -28.5000 Du        
   4230 ****        -7.0000 -17.2500 -29.0000 Du        
   4231 ****        -7.0000 -17.2500 -28.7500 Du        
   4232 ****        -7.0000 -17.2500 -28.5000 Du        
   4233 ****        -7.0000 -17.0000 -28.7500 Du        
   4234 ****        -6.7500 -29.5000 -29.5000 Du        
   4235 ****        -6.7500 -29.2500 -29.7500 Du        
   4236 ****        -6.7500 -29.2500 -29.5000 Du        
   4237 ****        -6.7500 -29.2500 -29.2500 Du        
   4238 ****        -6.7500 -29.0000 -29.7500 Du        
   4239 ****        -6.7500 -29.0000 -29.5000 Du        
   4240 ****        -6.7500 -29.0000 -29.2500 Du        
   4241 ****        -6.7500 -28.7500 -30.0000 Du        
   4242 ****        -6.7500 -28.7500 -29.7500 Du        
   4243 ****        -6.7500 -28.7500 -29.5000 Du        
   4244 ****        -6.7500 -28.7500 -29.2500 Du        
   4245 ****        -6.7500 -28.5000 -30.2500 Du        
   4246 ****        -6.7500 -28.5000 -30.0000 Du        
   4247 ****        -6.7500 -28.5000 -29.7500 Du        
   4248 ****        -6.7500 -28.5000 -29.5000 Du        
   4249 ****        -6.7500 -28.5000 -29.2500 Du        
   4250 ****        -6.7500 -28.2500 -30.2500 Du        
   4251 ****        -6.7500 -28.2500 -30.0000 Du        
   4252 ****        -6.7500 -28.2500 -29.7500 Du        
   4253 ****        -6.7500 -28.2500 -29.5000 Du        
   4254 ****        -6.7500 -28.2500 -29.2500 Du        
   4255 ****        -6.7500 -28.2500 -29.0000 Du        
   4256 ****        -6.7500 -28.0000 -30.0000 Du        
   4257 ****        -6.7500 -28.0000 -29.7500 Du        
   4258 ****        -6.7500 -28.0000 -29.5000 Du        
   4259 ****        -6.7500 -28.0000 -29.2500 Du        
   4260 ****        -6.7500 -28.0000 -29.0000 Du        
   4261 ****        -6.7500 -27.7500 -30.0000 Du        
   4262 ****        -6.7500 -27.7500 -29.7500 Du        
   4263 ****        -6.7500 -27.7500 -29.5000 Du        
   4264 ****        -6.7500 -27.7500 -29.2500 Du        
   4265 ****        -6.7500 -27.7500 -29.0000 Du        
   4266 ****        -6.7500 -27.7500 -28.7500 Du        
   4267 ****        -6.7500 -27.5000 -29.7500 Du        
   4268 ****        -6.7500 -27.5000 -29.5000 Du        
   4269 ****        -6.7500 -27.5000 -29.2500 Du        
   4270 ****        -6.7500 -27.5000 -29.0000 Du        
   4271 ****        -6.7500 -27.5000 -28.7500 Du        
   4272 ****        -6.7500 -27.2500 -29.5000 Du        
   4273 ****        -6.7500 -27.2500 -29.2500 Du        
   4274 ****        -6.7500 -27.2500 -29.0000 Du        
   4275 ****        -6.7500 -27.2500 -28.7500 Du        
   4276 ****        -6.7500 -27.0000 -29.2500 Du        
   4277 ****        -6.7500 -27.0000 -29.0000 Du        
   4278 ****        -6.7500 -27.0000 -28.7500 Du        
   4279 ****        -6.7500 -26.7500 -29.2500 Du        
   4280 ****        -6.7500 -26.7500 -29.0000 Du        
   4281 ****        -6.7500 -26.7500 -28.7500 Du        
   4282 ****        -6.7500 -26.7500 -28.5000 Du        
   4283 ****        -6.7500 -26.5000 -29.0000 Du        
   4284 ****        -6.7500 -26.5000 -28.7500 Du        
   4285 ****        -6.7500 -26.2500 -29.0000 Du        
   4286 ****        -6.7500 -26.2500 -28.7500 Du        
   4287 ****        -6.7500 -26.2500 -28.2500 Du        
   4288 ****        -6.7500 -26.0000 -29.0000 Du        
   4289 ****        -6.7500 -26.0000 -28.7500 Du        
   4290 ****        -6.7500 -26.0000 -28.5000 Du        
   4291 ****        -6.7500 -26.0000 -28.2500 Du        
   4292 ****        -6.7500 -26.0000 -28.0000 Du        
   4293 ****        -6.7500 -25.7500 -28.7500 Du        
   4294 ****        -6.7500 -25.7500 -28.2500 Du        
   4295 ****        -6.7500 -25.7500 -28.0000 Du        
   4296 ****        -6.7500 -25.7500 -27.7500 Du        
   4297 ****        -6.7500 -25.5000 -28.7500 Du        
   4298 ****        -6.7500 -25.5000 -28.5000 Du        
   4299 ****        -6.7500 -25.5000 -28.2500 Du        
   4300 ****        -6.7500 -25.5000 -28.0000 Du        
   4301 ****        -6.7500 -25.5000 -27.7500 Du        
   4302 ****        -6.7500 -25.5000 -27.5000 Du        
   4303 ****        -6.7500 -25.2500 -29.0000 Du        
   4304 ****        -6.7500 -25.2500 -28.7500 Du        
   4305 ****        -6.7500 -25.2500 -28.5000 Du        
   4306 ****        -6.7500 -25.2500 -28.2500 Du        
   4307 ****        -6.7500 -25.2500 -28.0000 Du        
   4308 ****        -6.7500 -25.2500 -27.7500 Du        
   4309 ****        -6.7500 -25.2500 -27.5000 Du        
   4310 ****        -6.7500 -25.2500 -27.2500 Du        
   4311 ****        -6.7500 -25.0000 -29.0000 Du        
   4312 ****        -6.7500 -25.0000 -28.7500 Du        
   4313 ****        -6.7500 -25.0000 -28.2500 Du        
   4314 ****        -6.7500 -25.0000 -28.0000 Du        
   4315 ****        -6.7500 -25.0000 -27.7500 Du        
   4316 ****        -6.7500 -25.0000 -27.5000 Du        
   4317 ****        -6.7500 -25.0000 -27.2500 Du        
   4318 ****        -6.7500 -25.0000 -27.0000 Du        
   4319 ****        -6.7500 -24.7500 -28.2500 Du        
   4320 ****        -6.7500 -24.7500 -28.0000 Du        
   4321 ****        -6.7500 -24.7500 -27.7500 Du        
   4322 ****        -6.7500 -24.7500 -27.5000 Du        
   4323 ****        -6.7500 -24.7500 -27.2500 Du        
   4324 ****        -6.7500 -24.7500 -27.0000 Du        
   4325 ****        -6.7500 -24.5000 -28.5000 Du        
   4326 ****        -6.7500 -24.5000 -28.2500 Du        
   4327 ****        -6.7500 -24.5000 -28.0000 Du        
   4328 ****        -6.7500 -24.5000 -27.7500 Du        
   4329 ****        -6.7500 -24.5000 -27.5000 Du        
   4330 ****        -6.7500 -24.5000 -27.2500 Du        
   4331 ****        -6.7500 -24.5000 -27.0000 Du        
   4332 ****        -6.7500 -24.2500 -28.2500 Du        
   4333 ****        -6.7500 -24.2500 -28.0000 Du        
   4334 ****        -6.7500 -24.2500 -27.7500 Du        
   4335 ****        -6.7500 -24.2500 -27.5000 Du        
   4336 ****        -6.7500 -24.2500 -27.2500 Du        
   4337 ****        -6.7500 -24.2500 -27.0000 Du        
   4338 ****        -6.7500 -24.0000 -28.2500 Du        
   4339 ****        -6.7500 -24.0000 -28.0000 Du        
   4340 ****        -6.7500 -24.0000 -27.7500 Du        
   4341 ****        -6.7500 -24.0000 -27.5000 Du        
   4342 ****        -6.7500 -24.0000 -27.2500 Du        
   4343 ****        -6.7500 -24.0000 -27.0000 Du        
   4344 ****        -6.7500 -23.7500 -28.2500 Du        
   4345 ****        -6.7500 -23.7500 -28.0000 Du        
   4346 ****        -6.7500 -23.7500 -27.7500 Du        
   4347 ****        -6.7500 -23.7500 -27.5000 Du        
   4348 ****        -6.7500 -23.7500 -27.2500 Du        
   4349 ****        -6.7500 -23.5000 -28.2500 Du        
   4350 ****        -6.7500 -23.5000 -28.0000 Du        
   4351 ****        -6.7500 -23.5000 -27.7500 Du        
   4352 ****        -6.7500 -23.2500 -27.7500 Du        
   4353 ****        -6.7500 -23.0000 -28.0000 Du        
   4354 ****        -6.7500 -23.0000 -27.7500 Du        
   4355 ****        -6.7500 -22.5000 -29.7500 Du        
   4356 ****        -6.7500 -22.5000 -29.5000 Du        
   4357 ****        -6.7500 -22.5000 -29.2500 Du        
   4358 ****        -6.7500 -22.5000 -29.0000 Du        
   4359 ****        -6.7500 -22.5000 -28.0000 Du        
   4360 ****        -6.7500 -22.2500 -30.0000 Du        
   4361 ****        -6.7500 -22.2500 -29.7500 Du        
   4362 ****        -6.7500 -22.2500 -29.5000 Du        
   4363 ****        -6.7500 -22.2500 -29.2500 Du        
   4364 ****        -6.7500 -22.2500 -29.0000 Du        
   4365 ****        -6.7500 -22.2500 -28.7500 Du        
   4366 ****        -6.7500 -22.2500 -28.0000 Du        
   4367 ****        -6.7500 -22.2500 -27.7500 Du        
   4368 ****        -6.7500 -22.0000 -30.0000 Du        
   4369 ****        -6.7500 -22.0000 -29.7500 Du        
   4370 ****        -6.7500 -22.0000 -29.5000 Du        
   4371 ****        -6.7500 -22.0000 -29.2500 Du        
   4372 ****        -6.7500 -22.0000 -29.0000 Du        
   4373 ****        -6.7500 -22.0000 -28.7500 Du        
   4374 ****        -6.7500 -21.7500 -30.2500 Du        
   4375 ****        -6.7500 -21.7500 -30.0000 Du        
   4376 ****        -6.7500 -21.7500 -29.7500 Du        
   4377 ****        -6.7500 -21.7500 -29.5000 Du        
   4378 ****        -6.7500 -21.7500 -29.2500 Du        
   4379 ****        -6.7500 -21.7500 -29.0000 Du        
   4380 ****        -6.7500 -21.7500 -28.7500 Du        
   4381 ****        -6.7500 -21.5000 -30.0000 Du        
   4382 ****        -6.7500 -21.5000 -29.7500 Du        
   4383 ****        -6.7500 -21.5000 -29.5000 Du        
   4384 ****        -6.7500 -21.5000 -29.2500 Du        
   4385 ****        -6.7500 -21.5000 -29.0000 Du        
   4386 ****        -6.7500 -21.5000 -28.7500 Du        
   4387 ****        -6.7500 -21.2500 -30.0000 Du        
   4388 ****        -6.7500 -21.2500 -29.7500 Du        
   4389 ****        -6.7500 -21.2500 -29.5000 Du        
   4390 ****        -6.7500 -21.2500 -29.2500 Du        
   4391 ****        -6.7500 -21.2500 -29.0000 Du        
   4392 ****        -6.7500 -21.2500 -28.7500 Du        
   4393 ****        -6.7500 -21.0000 -30.0000 Du        
   4394 ****        -6.7500 -21.0000 -29.7500 Du        
   4395 ****        -6.7500 -21.0000 -29.5000 Du        
   4396 ****        -6.7500 -21.0000 -29.2500 Du        
   4397 ****        -6.7500 -21.0000 -29.0000 Du        
   4398 ****        -6.7500 -21.0000 -28.7500 Du        
   4399 ****        -6.7500 -20.7500 -30.0000 Du        
   4400 ****        -6.7500 -20.7500 -29.7500 Du        
   4401 ****        -6.7500 -20.7500 -29.5000 Du        
   4402 ****        -6.7500 -20.7500 -29.2500 Du        
   4403 ****        -6.7500 -20.7500 -29.0000 Du        
   4404 ****        -6.7500 -20.7500 -28.7500 Du        
   4405 ****        -6.7500 -20.5000 -29.7500 Du        
   4406 ****        -6.7500 -20.5000 -29.5000 Du        
   4407 ****        -6.7500 -20.5000 -29.2500 Du        
   4408 ****        -6.7500 -20.5000 -29.0000 Du        
   4409 ****        -6.7500 -20.5000 -28.7500 Du        
   4410 ****        -6.7500 -20.2500 -29.7500 Du        
   4411 ****        -6.7500 -20.2500 -29.5000 Du        
   4412 ****        -6.7500 -20.2500 -29.2500 Du        
   4413 ****        -6.7500 -20.2500 -29.0000 Du        
   4414 ****        -6.7500 -20.2500 -28.7500 Du        
   4415 ****        -6.7500 -20.0000 -29.7500 Du        
   4416 ****        -6.7500 -20.0000 -29.5000 Du        
   4417 ****        -6.7500 -20.0000 -29.2500 Du        
   4418 ****        -6.7500 -20.0000 -29.0000 Du        
   4419 ****        -6.7500 -20.0000 -28.7500 Du        
   4420 ****        -6.7500 -19.7500 -29.7500 Du        
   4421 ****        -6.7500 -19.7500 -29.5000 Du        
   4422 ****        -6.7500 -19.7500 -29.2500 Du        
   4423 ****        -6.7500 -19.7500 -29.0000 Du        
   4424 ****        -6.7500 -19.7500 -28.7500 Du        
   4425 ****        -6.7500 -19.5000 -29.5000 Du        
   4426 ****        -6.7500 -19.5000 -29.2500 Du        
   4427 ****        -6.7500 -19.5000 -29.0000 Du        
   4428 ****        -6.7500 -19.5000 -28.7500 Du        
   4429 ****        -6.7500 -19.5000 -28.5000 Du        
   4430 ****        -6.7500 -19.2500 -29.5000 Du        
   4431 ****        -6.7500 -19.2500 -29.2500 Du        
   4432 ****        -6.7500 -19.2500 -29.0000 Du        
   4433 ****        -6.7500 -19.2500 -28.7500 Du        
   4434 ****        -6.7500 -19.2500 -28.5000 Du        
   4435 ****        -6.7500 -19.2500 -28.2500 Du        
   4436 ****        -6.7500 -19.0000 -29.2500 Du        
   4437 ****        -6.7500 -19.0000 -29.0000 Du        
   4438 ****        -6.7500 -19.0000 -28.7500 Du        
   4439 ****        -6.7500 -19.0000 -28.5000 Du        
   4440 ****        -6.7500 -19.0000 -28.2500 Du        
   4441 ****        -6.7500 -18.7500 -29.2500 Du        
   4442 ****        -6.7500 -18.7500 -29.0000 Du        
   4443 ****        -6.7500 -18.7500 -28.7500 Du        
   4444 ****        -6.7500 -18.7500 -28.5000 Du        
   4445 ****        -6.7500 -18.7500 -28.2500 Du        
   4446 ****        -6.7500 -18.5000 -29.2500 Du        
   4447 ****        -6.7500 -18.5000 -29.0000 Du        
   4448 ****        -6.7500 -18.5000 -28.7500 Du        
   4449 ****        -6.7500 -18.5000 -28.5000 Du        
   4450 ****        -6.7500 -18.2500 -29.2500 Du        
   4451 ****        -6.7500 -18.2500 -29.0000 Du        
   4452 ****        -6.7500 -18.2500 -28.7500 Du        
   4453 ****        -6.7500 -18.2500 -28.5000 Du        
   4454 ****        -6.7500 -18.0000 -29.2500 Du        
   4455 ****        -6.7500 -18.0000 -29.0000 Du        
   4456 ****        -6.7500 -18.0000 -28.7500 Du        
   4457 ****        -6.7500 -18.0000 -28.5000 Du        
   4458 ****        -6.7500 -17.7500 -29.2500 Du        
   4459 ****        -6.7500 -17.7500 -29.0000 Du        
   4460 ****        -6.7500 -17.7500 -28.7500 Du        
   4461 ****        -6.7500 -17.7500 -28.5000 Du        
   4462 ****        -6.7500 -17.5000 -29.2500 Du        
   4463 ****        -6.7500 -17.5000 -29.0000 Du        
   4464 ****        -6.7500 -17.5000 -28.7500 Du        
   4465 ****        -6.7500 -17.5000 -28.5000 Du        
   4466 ****        -6.7500 -17.2500 -29.0000 Du        
   4467 ****        -6.7500 -17.2500 -28.7500 Du        
   4468 ****        -6.7500 -17.2500 -28.5000 Du        
   4469 ****        -6.7500 -17.0000 -28.7500 Du        
   4470 ****        -6.5000 -29.2500 -29.5000 Du        
   4471 ****        -6.5000 -29.2500 -29.2500 Du        
   4472 ****        -6.5000 -29.0000 -29.7500 Du        
   4473 ****        -6.5000 -29.0000 -29.5000 Du        
   4474 ****        -6.5000 -29.0000 -29.2500 Du        
   4475 ****        -6.5000 -28.7500 -30.0000 Du        
   4476 ****        -6.5000 -28.7500 -29.7500 Du        
   4477 ****        -6.5000 -28.7500 -29.5000 Du        
   4478 ****        -6.5000 -28.7500 -29.2500 Du        
   4479 ****        -6.5000 -28.5000 -30.0000 Du        
   4480 ****        -6.5000 -28.5000 -29.7500 Du        
   4481 ****        -6.5000 -28.5000 -29.5000 Du        
   4482 ****        -6.5000 -28.5000 -29.2500 Du        
   4483 ****        -6.5000 -28.2500 -30.2500 Du        
   4484 ****        -6.5000 -28.2500 -30.0000 Du        
   4485 ****        -6.5000 -28.2500 -29.7500 Du        
   4486 ****        -6.5000 -28.2500 -29.5000 Du        
   4487 ****        -6.5000 -28.2500 -29.2500 Du        
   4488 ****        -6.5000 -28.0000 -30.2500 Du        
   4489 ****        -6.5000 -28.0000 -30.0000 Du        
   4490 ****        -6.5000 -28.0000 -29.7500 Du        
   4491 ****        -6.5000 -28.0000 -29.5000 Du        
   4492 ****        -6.5000 -28.0000 -29.2500 Du        
   4493 ****        -6.5000 -28.0000 -29.0000 Du        
   4494 ****        -6.5000 -27.7500 -30.0000 Du        
   4495 ****        -6.5000 -27.7500 -29.7500 Du        
   4496 ****        -6.5000 -27.7500 -29.5000 Du        
   4497 ****        -6.5000 -27.7500 -29.2500 Du        
   4498 ****        -6.5000 -27.7500 -29.0000 Du        
   4499 ****        -6.5000 -27.5000 -29.7500 Du        
   4500 ****        -6.5000 -27.5000 -29.5000 Du        
   4501 ****        -6.5000 -27.5000 -29.2500 Du        
   4502 ****        -6.5000 -27.5000 -29.0000 Du        
   4503 ****        -6.5000 -27.2500 -29.2500 Du        
   4504 ****        -6.5000 -27.2500 -29.0000 Du        
   4505 ****        -6.5000 -27.0000 -29.2500 Du        
   4506 ****        -6.5000 -27.0000 -29.0000 Du        
   4507 ****        -6.5000 -27.0000 -28.7500 Du        
   4508 ****        -6.5000 -26.7500 -29.2500 Du        
   4509 ****        -6.5000 -26.7500 -29.0000 Du        
   4510 ****        -6.5000 -26.7500 -28.7500 Du        
   4511 ****        -6.5000 -26.2500 -28.7500 Du        
   4512 ****        -6.5000 -26.0000 -28.7500 Du        
   4513 ****        -6.5000 -26.0000 -28.5000 Du        
   4514 ****        -6.5000 -26.0000 -28.2500 Du        
   4515 ****        -6.5000 -25.7500 -28.7500 Du        
   4516 ****        -6.5000 -25.7500 -28.5000 Du        
   4517 ****        -6.5000 -25.7500 -28.2500 Du        
   4518 ****        -6.5000 -25.7500 -28.0000 Du        
   4519 ****        -6.5000 -25.5000 -28.5000 Du        
   4520 ****        -6.5000 -25.5000 -28.2500 Du        
   4521 ****        -6.5000 -25.5000 -28.0000 Du        
   4522 ****        -6.5000 -25.5000 -27.7500 Du        
   4523 ****        -6.5000 -25.5000 -27.5000 Du        
   4524 ****        -6.5000 -25.2500 -28.5000 Du        
   4525 ****        -6.5000 -25.2500 -28.2500 Du        
   4526 ****        -6.5000 -25.2500 -28.0000 Du        
   4527 ****        -6.5000 -25.2500 -27.7500 Du        
   4528 ****        -6.5000 -25.2500 -27.5000 Du        
   4529 ****        -6.5000 -25.2500 -27.2500 Du        
   4530 ****        -6.5000 -25.0000 -28.7500 Du        
   4531 ****        -6.5000 -25.0000 -28.5000 Du        
   4532 ****        -6.5000 -25.0000 -28.2500 Du        
   4533 ****        -6.5000 -25.0000 -28.0000 Du        
   4534 ****        -6.5000 -25.0000 -27.7500 Du        
   4535 ****        -6.5000 -25.0000 -27.5000 Du        
   4536 ****        -6.5000 -25.0000 -27.2500 Du        
   4537 ****        -6.5000 -24.7500 -28.7500 Du        
   4538 ****        -6.5000 -24.7500 -28.5000 Du        
   4539 ****        -6.5000 -24.7500 -28.2500 Du        
   4540 ****        -6.5000 -24.7500 -28.0000 Du        
   4541 ****        -6.5000 -24.7500 -27.7500 Du        
   4542 ****        -6.5000 -24.7500 -27.5000 Du        
   4543 ****        -6.5000 -24.7500 -27.2500 Du        
   4544 ****        -6.5000 -24.7500 -27.0000 Du        
   4545 ****        -6.5000 -24.5000 -28.5000 Du        
   4546 ****        -6.5000 -24.5000 -28.2500 Du        
   4547 ****        -6.5000 -24.5000 -28.0000 Du        
   4548 ****        -6.5000 -24.5000 -27.7500 Du        
   4549 ****        -6.5000 -24.5000 -27.5000 Du        
   4550 ****        -6.5000 -24.5000 -27.2500 Du        
   4551 ****        -6.5000 -24.5000 -27.0000 Du        
   4552 ****        -6.5000 -24.2500 -28.5000 Du        
   4553 ****        -6.5000 -24.2500 -28.2500 Du        
   4554 ****        -6.5000 -24.2500 -28.0000 Du        
   4555 ****        -6.5000 -24.2500 -27.7500 Du        
   4556 ****        -6.5000 -24.2500 -27.5000 Du        
   4557 ****        -6.5000 -24.2500 -27.2500 Du        
   4558 ****        -6.5000 -24.2500 -27.0000 Du        
   4559 ****        -6.5000 -24.0000 -28.2500 Du        
   4560 ****        -6.5000 -24.0000 -28.0000 Du        
   4561 ****        -6.5000 -24.0000 -27.7500 Du        
   4562 ****        -6.5000 -24.0000 -27.5000 Du        
   4563 ****        -6.5000 -24.0000 -27.2500 Du        
   4564 ****        -6.5000 -23.7500 -28.2500 Du        
   4565 ****        -6.5000 -23.7500 -28.0000 Du        
   4566 ****        -6.5000 -23.7500 -27.7500 Du        
   4567 ****        -6.5000 -23.7500 -27.5000 Du        
   4568 ****        -6.5000 -23.7500 -27.2500 Du        
   4569 ****        -6.5000 -23.5000 -28.2500 Du        
   4570 ****        -6.5000 -23.5000 -28.0000 Du        
   4571 ****        -6.5000 -23.5000 -27.7500 Du        
   4572 ****        -6.5000 -23.5000 -27.5000 Du        
   4573 ****        -6.5000 -23.5000 -27.2500 Du        
   4574 ****        -6.5000 -23.2500 -28.2500 Du        
   4575 ****        -6.5000 -23.2500 -28.0000 Du        
   4576 ****        -6.5000 -23.2500 -27.7500 Du        
   4577 ****        -6.5000 -23.2500 -27.5000 Du        
   4578 ****        -6.5000 -23.2500 -27.2500 Du        
   4579 ****        -6.5000 -23.0000 -28.2500 Du        
   4580 ****        -6.5000 -23.0000 -28.0000 Du        
   4581 ****        -6.5000 -23.0000 -27.5000 Du        
   4582 ****        -6.5000 -22.7500 -29.0000 Du        
   4583 ****        -6.5000 -22.5000 -29.5000 Du        
   4584 ****        -6.5000 -22.5000 -29.2500 Du        
   4585 ****        -6.5000 -22.5000 -29.0000 Du        
   4586 ****        -6.5000 -22.5000 -28.7500 Du        
   4587 ****        -6.5000 -22.2500 -29.7500 Du        
   4588 ****        -6.5000 -22.2500 -29.5000 Du        
   4589 ****        -6.5000 -22.2500 -29.2500 Du        
   4590 ****        -6.5000 -22.2500 -29.0000 Du        
   4591 ****        -6.5000 -22.2500 -28.7500 Du        
   4592 ****        -6.5000 -22.0000 -30.0000 Du        
   4593 ****        -6.5000 -22.0000 -29.7500 Du        
   4594 ****        -6.5000 -22.0000 -29.5000 Du        
   4595 ****        -6.5000 -22.0000 -29.2500 Du        
   4596 ****        -6.5000 -22.0000 -29.0000 Du        
   4597 ****        -6.5000 -22.0000 -28.7500 Du        
   4598 ****        -6.5000 -21.7500 -30.0000 Du        
   4599 ****        -6.5000 -21.7500 -29.7500 Du        
   4600 ****        -6.5000 -21.7500 -29.5000 Du        
   4601 ****        -6.5000 -21.7500 -29.2500 Du        
   4602 ****        -6.5000 -21.7500 -29.0000 Du        
   4603 ****        -6.5000 -21.7500 -28.7500 Du        
   4604 ****        -6.5000 -21.5000 -30.0000 Du        
   4605 ****        -6.5000 -21.5000 -29.7500 Du        
   4606 ****        -6.5000 -21.5000 -29.5000 Du        
   4607 ****        -6.5000 -21.5000 -29.2500 Du        
   4608 ****        -6.5000 -21.5000 -29.0000 Du        
   4609 ****        -6.5000 -21.5000 -28.7500 Du        
   4610 ****        -6.5000 -21.2500 -30.0000 Du        
   4611 ****        -6.5000 -21.2500 -29.7500 Du        
   4612 ****        -6.5000 -21.2500 -29.5000 Du        
   4613 ****        -6.5000 -21.2500 -29.2500 Du        
   4614 ****        -6.5000 -21.2500 -29.0000 Du        
   4615 ****        -6.5000 -21.2500 -28.7500 Du        
   4616 ****        -6.5000 -21.0000 -29.7500 Du        
   4617 ****        -6.5000 -21.0000 -29.5000 Du        
   4618 ****        -6.5000 -21.0000 -29.2500 Du        
   4619 ****        -6.5000 -21.0000 -29.0000 Du        
   4620 ****        -6.5000 -21.0000 -28.7500 Du        
   4621 ****        -6.5000 -20.7500 -29.7500 Du        
   4622 ****        -6.5000 -20.7500 -29.5000 Du        
   4623 ****        -6.5000 -20.7500 -29.2500 Du        
   4624 ****        -6.5000 -20.7500 -29.0000 Du        
   4625 ****        -6.5000 -20.7500 -28.7500 Du        
   4626 ****        -6.5000 -20.5000 -29.7500 Du        
   4627 ****        -6.5000 -20.5000 -29.5000 Du        
   4628 ****        -6.5000 -20.5000 -29.2500 Du        
   4629 ****        -6.5000 -20.5000 -29.0000 Du        
   4630 ****        -6.5000 -20.5000 -28.7500 Du        
   4631 ****        -6.5000 -20.5000 -28.5000 Du        
   4632 ****        -6.5000 -20.5000 -28.2500 Du        
   4633 ****        -6.5000 -20.2500 -29.7500 Du        
   4634 ****        -6.5000 -20.2500 -29.5000 Du        
   4635 ****        -6.5000 -20.2500 -29.2500 Du        
   4636 ****        -6.5000 -20.2500 -29.0000 Du        
   4637 ****        -6.5000 -20.2500 -28.7500 Du        
   4638 ****        -6.5000 -20.2500 -28.5000 Du        
   4639 ****        -6.5000 -20.2500 -28.2500 Du        
   4640 ****        -6.5000 -20.0000 -29.7500 Du        
   4641 ****        -6.5000 -20.0000 -29.5000 Du        
   4642 ****        -6.5000 -20.0000 -29.2500 Du        
   4643 ****        -6.5000 -20.0000 -29.0000 Du        
   4644 ****        -6.5000 -20.0000 -28.7500 Du        
   4645 ****        -6.5000 -20.0000 -28.5000 Du        
   4646 ****        -6.5000 -19.7500 -29.7500 Du        
   4647 ****        -6.5000 -19.7500 -29.5000 Du        
   4648 ****        -6.5000 -19.7500 -29.2500 Du        
   4649 ****        -6.5000 -19.7500 -29.0000 Du        
   4650 ****        -6.5000 -19.7500 -28.7500 Du        
   4651 ****        -6.5000 -19.7500 -28.5000 Du        
   4652 ****        -6.5000 -19.5000 -29.7500 Du        
   4653 ****        -6.5000 -19.5000 -29.5000 Du        
   4654 ****        -6.5000 -19.5000 -29.2500 Du        
   4655 ****        -6.5000 -19.5000 -29.0000 Du        
   4656 ****        -6.5000 -19.5000 -28.7500 Du        
   4657 ****        -6.5000 -19.5000 -28.5000 Du        
   4658 ****        -6.5000 -19.5000 -28.2500 Du        
   4659 ****        -6.5000 -19.2500 -29.7500 Du        
   4660 ****        -6.5000 -19.2500 -29.5000 Du        
   4661 ****        -6.5000 -19.2500 -29.2500 Du        
   4662 ****        -6.5000 -19.2500 -29.0000 Du        
   4663 ****        -6.5000 -19.2500 -28.7500 Du        
   4664 ****        -6.5000 -19.2500 -28.5000 Du        
   4665 ****        -6.5000 -19.2500 -28.2500 Du        
   4666 ****        -6.5000 -19.0000 -29.5000 Du        
   4667 ****        -6.5000 -19.0000 -29.2500 Du        
   4668 ****        -6.5000 -19.0000 -29.0000 Du        
   4669 ****        -6.5000 -19.0000 -28.7500 Du        
   4670 ****        -6.5000 -19.0000 -28.5000 Du        
   4671 ****        -6.5000 -19.0000 -28.2500 Du        
   4672 ****        -6.5000 -18.7500 -29.5000 Du        
   4673 ****        -6.5000 -18.7500 -29.2500 Du        
   4674 ****        -6.5000 -18.7500 -29.0000 Du        
   4675 ****        -6.5000 -18.7500 -28.7500 Du        
   4676 ****        -6.5000 -18.7500 -28.5000 Du        
   4677 ****        -6.5000 -18.7500 -28.2500 Du        
   4678 ****        -6.5000 -18.5000 -29.5000 Du        
   4679 ****        -6.5000 -18.5000 -29.2500 Du        
   4680 ****        -6.5000 -18.5000 -29.0000 Du        
   4681 ****        -6.5000 -18.5000 -28.7500 Du        
   4682 ****        -6.5000 -18.5000 -28.5000 Du        
   4683 ****        -6.5000 -18.5000 -28.2500 Du        
   4684 ****        -6.5000 -18.2500 -29.5000 Du        
   4685 ****        -6.5000 -18.2500 -29.2500 Du        
   4686 ****        -6.5000 -18.2500 -29.0000 Du        
   4687 ****        -6.5000 -18.2500 -28.7500 Du        
   4688 ****        -6.5000 -18.2500 -28.5000 Du        
   4689 ****        -6.5000 -18.2500 -28.2500 Du        
   4690 ****        -6.5000 -18.0000 -29.2500 Du        
   4691 ****        -6.5000 -18.0000 -29.0000 Du        
   4692 ****        -6.5000 -18.0000 -28.7500 Du        
   4693 ****        -6.5000 -18.0000 -28.5000 Du        
   4694 ****        -6.5000 -18.0000 -28.2500 Du        
   4695 ****        -6.5000 -17.7500 -29.2500 Du        
   4696 ****        -6.5000 -17.7500 -29.0000 Du        
   4697 ****        -6.5000 -17.7500 -28.7500 Du        
   4698 ****        -6.5000 -17.7500 -28.5000 Du        
   4699 ****        -6.5000 -17.7500 -28.2500 Du        
   4700 ****        -6.5000 -17.5000 -29.2500 Du        
   4701 ****        -6.5000 -17.5000 -29.0000 Du        
   4702 ****        -6.5000 -17.5000 -28.7500 Du        
   4703 ****        -6.5000 -17.2500 -29.0000 Du        
   4704 ****        -6.5000 -17.2500 -28.7500 Du        
   4705 ****        -6.2500 -29.2500 -29.5000 Du        
   4706 ****        -6.2500 -29.2500 -29.2500 Du        
   4707 ****        -6.2500 -29.0000 -29.7500 Du        
   4708 ****        -6.2500 -29.0000 -29.5000 Du        
   4709 ****        -6.2500 -29.0000 -29.2500 Du        
   4710 ****        -6.2500 -28.7500 -30.0000 Du        
   4711 ****        -6.2500 -28.7500 -29.7500 Du        
   4712 ****        -6.2500 -28.7500 -29.5000 Du        
   4713 ****        -6.2500 -28.7500 -29.2500 Du        
   4714 ****        -6.2500 -28.7500 -29.0000 Du        
   4715 ****        -6.2500 -28.5000 -30.0000 Du        
   4716 ****        -6.2500 -28.5000 -29.7500 Du        
   4717 ****        -6.2500 -28.5000 -29.5000 Du        
   4718 ****        -6.2500 -28.5000 -29.2500 Du        
   4719 ****        -6.2500 -28.2500 -30.2500 Du        
   4720 ****        -6.2500 -28.2500 -30.0000 Du        
   4721 ****        -6.2500 -28.2500 -29.7500 Du        
   4722 ****        -6.2500 -28.2500 -29.5000 Du        
   4723 ****        -6.2500 -28.2500 -29.2500 Du        
   4724 ****        -6.2500 -28.2500 -29.0000 Du        
   4725 ****        -6.2500 -28.0000 -30.2500 Du        
   4726 ****        -6.2500 -28.0000 -30.0000 Du        
   4727 ****        -6.2500 -28.0000 -29.7500 Du        
   4728 ****        -6.2500 -28.0000 -29.5000 Du        
   4729 ****        -6.2500 -28.0000 -29.2500 Du        
   4730 ****        -6.2500 -28.0000 -29.0000 Du        
   4731 ****        -6.2500 -27.7500 -30.0000 Du        
   4732 ****        -6.2500 -27.7500 -29.7500 Du        
   4733 ****        -6.2500 -27.7500 -29.5000 Du        
   4734 ****        -6.2500 -27.7500 -29.2500 Du        
   4735 ****        -6.2500 -27.7500 -29.0000 Du        
   4736 ****        -6.2500 -27.5000 -29.7500 Du        
   4737 ****        -6.2500 -27.5000 -29.5000 Du        
   4738 ****        -6.2500 -27.5000 -29.2500 Du        
   4739 ****        -6.2500 -27.5000 -29.0000 Du        
   4740 ****        -6.2500 -27.2500 -29.7500 Du        
   4741 ****        -6.2500 -27.2500 -29.5000 Du        
   4742 ****        -6.2500 -27.2500 -29.2500 Du        
   4743 ****        -6.2500 -27.2500 -29.0000 Du        
   4744 ****        -6.2500 -27.2500 -28.7500 Du        
   4745 ****        -6.2500 -27.0000 -29.5000 Du        
   4746 ****        -6.2500 -27.0000 -29.2500 Du        
   4747 ****        -6.2500 -27.0000 -29.0000 Du        
   4748 ****        -6.2500 -27.0000 -28.7500 Du        
   4749 ****        -6.2500 -26.7500 -29.0000 Du        
   4750 ****        -6.2500 -26.7500 -28.7500 Du        
   4751 ****        -6.2500 -26.5000 -29.0000 Du        
   4752 ****        -6.2500 -26.5000 -28.7500 Du        
   4753 ****        -6.2500 -26.2500 -29.0000 Du        
   4754 ****        -6.2500 -26.2500 -28.7500 Du        
   4755 ****        -6.2500 -26.2500 -28.5000 Du        
   4756 ****        -6.2500 -26.2500 -28.2500 Du        
   4757 ****        -6.2500 -26.0000 -29.0000 Du        
   4758 ****        -6.2500 -26.0000 -28.7500 Du        
   4759 ****        -6.2500 -26.0000 -28.5000 Du        
   4760 ****        -6.2500 -26.0000 -28.2500 Du        
   4761 ****        -6.2500 -25.7500 -29.0000 Du        
   4762 ****        -6.2500 -25.7500 -28.7500 Du        
   4763 ****        -6.2500 -25.7500 -28.5000 Du        
   4764 ****        -6.2500 -25.7500 -28.2500 Du        
   4765 ****        -6.2500 -25.7500 -28.0000 Du        
   4766 ****        -6.2500 -25.5000 -28.7500 Du        
   4767 ****        -6.2500 -25.5000 -28.5000 Du        
   4768 ****        -6.2500 -25.5000 -28.2500 Du        
   4769 ****        -6.2500 -25.5000 -28.0000 Du        
   4770 ****        -6.2500 -25.5000 -27.7500 Du        
   4771 ****        -6.2500 -25.2500 -29.0000 Du        
   4772 ****        -6.2500 -25.2500 -28.7500 Du        
   4773 ****        -6.2500 -25.2500 -28.5000 Du        
   4774 ****        -6.2500 -25.2500 -28.2500 Du        
   4775 ****        -6.2500 -25.2500 -28.0000 Du        
   4776 ****        -6.2500 -25.2500 -27.7500 Du        
   4777 ****        -6.2500 -25.2500 -27.5000 Du        
   4778 ****        -6.2500 -25.0000 -29.0000 Du        
   4779 ****        -6.2500 -25.0000 -28.7500 Du        
   4780 ****        -6.2500 -25.0000 -28.5000 Du        
   4781 ****        -6.2500 -25.0000 -28.2500 Du        
   4782 ****        -6.2500 -25.0000 -28.0000 Du        
   4783 ****        -6.2500 -25.0000 -27.7500 Du        
   4784 ****        -6.2500 -25.0000 -27.5000 Du        
   4785 ****        -6.2500 -25.0000 -27.2500 Du        
   4786 ****        -6.2500 -24.7500 -28.7500 Du        
   4787 ****        -6.2500 -24.7500 -28.5000 Du        
   4788 ****        -6.2500 -24.7500 -28.2500 Du        
   4789 ****        -6.2500 -24.7500 -28.0000 Du        
   4790 ****        -6.2500 -24.7500 -27.7500 Du        
   4791 ****        -6.2500 -24.7500 -27.5000 Du        
   4792 ****        -6.2500 -24.7500 -27.2500 Du        
   4793 ****        -6.2500 -24.7500 -27.0000 Du        
   4794 ****        -6.2500 -24.5000 -28.5000 Du        
   4795 ****        -6.2500 -24.5000 -28.2500 Du        
   4796 ****        -6.2500 -24.5000 -28.0000 Du        
   4797 ****        -6.2500 -24.5000 -27.7500 Du        
   4798 ****        -6.2500 -24.5000 -27.5000 Du        
   4799 ****        -6.2500 -24.5000 -27.2500 Du        
   4800 ****        -6.2500 -24.2500 -28.5000 Du        
   4801 ****        -6.2500 -24.2500 -28.2500 Du        
   4802 ****        -6.2500 -24.2500 -28.0000 Du        
   4803 ****        -6.2500 -24.2500 -27.7500 Du        
   4804 ****        -6.2500 -24.2500 -27.5000 Du        
   4805 ****        -6.2500 -24.2500 -27.2500 Du        
   4806 ****        -6.2500 -24.2500 -27.0000 Du        
   4807 ****        -6.2500 -24.0000 -28.5000 Du        
   4808 ****        -6.2500 -24.0000 -28.2500 Du        
   4809 ****        -6.2500 -24.0000 -28.0000 Du        
   4810 ****        -6.2500 -24.0000 -27.7500 Du        
   4811 ****        -6.2500 -24.0000 -27.5000 Du        
   4812 ****        -6.2500 -24.0000 -27.2500 Du        
   4813 ****        -6.2500 -24.0000 -27.0000 Du        
   4814 ****        -6.2500 -23.7500 -28.5000 Du        
   4815 ****        -6.2500 -23.7500 -28.2500 Du        
   4816 ****        -6.2500 -23.7500 -28.0000 Du        
   4817 ****        -6.2500 -23.7500 -27.7500 Du        
   4818 ****        -6.2500 -23.7500 -27.5000 Du        
   4819 ****        -6.2500 -23.7500 -27.2500 Du        
   4820 ****        -6.2500 -23.7500 -27.0000 Du        
   4821 ****        -6.2500 -23.5000 -28.2500 Du        
   4822 ****        -6.2500 -23.5000 -28.0000 Du        
   4823 ****        -6.2500 -23.5000 -27.7500 Du        
   4824 ****        -6.2500 -23.5000 -27.5000 Du        
   4825 ****        -6.2500 -23.5000 -27.2500 Du        
   4826 ****        -6.2500 -23.2500 -28.2500 Du        
   4827 ****        -6.2500 -23.2500 -28.0000 Du        
   4828 ****        -6.2500 -23.2500 -27.7500 Du        
   4829 ****        -6.2500 -23.2500 -27.5000 Du        
   4830 ****        -6.2500 -23.2500 -27.2500 Du        
   4831 ****        -6.2500 -23.0000 -29.0000 Du        
   4832 ****        -6.2500 -23.0000 -28.0000 Du        
   4833 ****        -6.2500 -22.7500 -29.2500 Du        
   4834 ****        -6.2500 -22.7500 -29.0000 Du        
   4835 ****        -6.2500 -22.7500 -28.7500 Du        
   4836 ****        -6.2500 -22.5000 -29.7500 Du        
   4837 ****        -6.2500 -22.5000 -29.5000 Du        
   4838 ****        -6.2500 -22.5000 -29.2500 Du        
   4839 ****        -6.2500 -22.5000 -29.0000 Du        
   4840 ****        -6.2500 -22.5000 -28.7500 Du        
   4841 ****        -6.2500 -22.2500 -29.7500 Du        
   4842 ****        -6.2500 -22.2500 -29.5000 Du        
   4843 ****        -6.2500 -22.2500 -29.2500 Du        
   4844 ****        -6.2500 -22.2500 -29.0000 Du        
   4845 ****        -6.2500 -22.2500 -28.7500 Du        
   4846 ****        -6.2500 -22.0000 -30.0000 Du        
   4847 ****        -6.2500 -22.0000 -29.7500 Du        
   4848 ****        -6.2500 -22.0000 -29.5000 Du        
   4849 ****        -6.2500 -22.0000 -29.2500 Du        
   4850 ****        -6.2500 -22.0000 -29.0000 Du        
   4851 ****        -6.2500 -22.0000 -28.7500 Du        
   4852 ****        -6.2500 -21.7500 -30.0000 Du        
   4853 ****        -6.2500 -21.7500 -29.7500 Du        
   4854 ****        -6.2500 -21.7500 -29.5000 Du        
   4855 ****        -6.2500 -21.7500 -29.2500 Du        
   4856 ****        -6.2500 -21.7500 -29.0000 Du        
   4857 ****        -6.2500 -21.7500 -28.7500 Du        
   4858 ****        -6.2500 -21.5000 -29.7500 Du        
   4859 ****        -6.2500 -21.5000 -29.5000 Du        
   4860 ****        -6.2500 -21.5000 -29.2500 Du        
   4861 ****        -6.2500 -21.5000 -29.0000 Du        
   4862 ****        -6.2500 -21.5000 -28.7500 Du        
   4863 ****        -6.2500 -21.2500 -29.7500 Du        
   4864 ****        -6.2500 -21.2500 -29.5000 Du        
   4865 ****        -6.2500 -21.2500 -29.2500 Du        
   4866 ****        -6.2500 -21.2500 -29.0000 Du        
   4867 ****        -6.2500 -21.2500 -28.7500 Du        
   4868 ****        -6.2500 -21.0000 -29.7500 Du        
   4869 ****        -6.2500 -21.0000 -29.5000 Du        
   4870 ****        -6.2500 -21.0000 -29.2500 Du        
   4871 ****        -6.2500 -21.0000 -29.0000 Du        
   4872 ****        -6.2500 -21.0000 -28.7500 Du        
   4873 ****        -6.2500 -21.0000 -28.5000 Du        
   4874 ****        -6.2500 -20.7500 -29.7500 Du        
   4875 ****        -6.2500 -20.7500 -29.5000 Du        
   4876 ****        -6.2500 -20.7500 -29.2500 Du        
   4877 ****        -6.2500 -20.7500 -29.0000 Du        
   4878 ****        -6.2500 -20.7500 -28.7500 Du        
   4879 ****        -6.2500 -20.7500 -28.5000 Du        
   4880 ****        -6.2500 -20.5000 -29.7500 Du        
   4881 ****        -6.2500 -20.5000 -29.5000 Du        
   4882 ****        -6.2500 -20.5000 -29.2500 Du        
   4883 ****        -6.2500 -20.5000 -29.0000 Du        
   4884 ****        -6.2500 -20.5000 -28.7500 Du        
   4885 ****        -6.2500 -20.5000 -28.5000 Du        
   4886 ****        -6.2500 -20.5000 -28.2500 Du        
   4887 ****        -6.2500 -20.2500 -29.7500 Du        
   4888 ****        -6.2500 -20.2500 -29.5000 Du        
   4889 ****        -6.2500 -20.2500 -29.2500 Du        
   4890 ****        -6.2500 -20.2500 -29.0000 Du        
   4891 ****        -6.2500 -20.2500 -28.7500 Du        
   4892 ****        -6.2500 -20.2500 -28.5000 Du        
   4893 ****        -6.2500 -20.2500 -28.2500 Du        
   4894 ****        -6.2500 -20.0000 -29.7500 Du        
   4895 ****        -6.2500 -20.0000 -29.5000 Du        
   4896 ****        -6.2500 -20.0000 -29.2500 Du        
   4897 ****        -6.2500 -20.0000 -29.0000 Du        
   4898 ****        -6.2500 -20.0000 -28.7500 Du        
   4899 ****        -6.2500 -20.0000 -28.5000 Du        
   4900 ****        -6.2500 -20.0000 -28.2500 Du        
   4901 ****        -6.2500 -19.7500 -29.5000 Du        
   4902 ****        -6.2500 -19.7500 -29.2500 Du        
   4903 ****        -6.2500 -19.7500 -29.0000 Du        
   4904 ****        -6.2500 -19.7500 -28.7500 Du        
   4905 ****        -6.2500 -19.7500 -28.5000 Du        
   4906 ****        -6.2500 -19.7500 -28.2500 Du        
   4907 ****        -6.2500 -19.5000 -29.5000 Du        
   4908 ****        -6.2500 -19.5000 -29.2500 Du        
   4909 ****        -6.2500 -19.5000 -29.0000 Du        
   4910 ****        -6.2500 -19.5000 -28.7500 Du        
   4911 ****        -6.2500 -19.5000 -28.5000 Du        
   4912 ****        -6.2500 -19.5000 -28.2500 Du        
   4913 ****        -6.2500 -19.2500 -29.5000 Du        
   4914 ****        -6.2500 -19.2500 -29.2500 Du        
   4915 ****        -6.2500 -19.2500 -29.0000 Du        
   4916 ****        -6.2500 -19.2500 -28.7500 Du        
   4917 ****        -6.2500 -19.2500 -28.5000 Du        
   4918 ****        -6.2500 -19.2500 -28.2500 Du        
   4919 ****        -6.2500 -19.0000 -29.5000 Du        
   4920 ****        -6.2500 -19.0000 -29.2500 Du        
   4921 ****        -6.2500 -19.0000 -29.0000 Du        
   4922 ****        -6.2500 -19.0000 -28.7500 Du        
   4923 ****        -6.2500 -19.0000 -28.5000 Du        
   4924 ****        -6.2500 -19.0000 -28.2500 Du        
   4925 ****        -6.2500 -19.0000 -28.0000 Du        
   4926 ****        -6.2500 -18.7500 -29.2500 Du        
   4927 ****        -6.2500 -18.7500 -29.0000 Du        
   4928 ****        -6.2500 -18.7500 -28.7500 Du        
   4929 ****        -6.2500 -18.7500 -28.5000 Du        
   4930 ****        -6.2500 -18.7500 -28.2500 Du        
   4931 ****        -6.2500 -18.7500 -28.0000 Du        
   4932 ****        -6.2500 -18.5000 -29.2500 Du        
   4933 ****        -6.2500 -18.5000 -29.0000 Du        
   4934 ****        -6.2500 -18.5000 -28.7500 Du        
   4935 ****        -6.2500 -18.5000 -28.5000 Du        
   4936 ****        -6.2500 -18.5000 -28.2500 Du        
   4937 ****        -6.2500 -18.5000 -28.0000 Du        
   4938 ****        -6.2500 -18.2500 -29.2500 Du        
   4939 ****        -6.2500 -18.2500 -29.0000 Du        
   4940 ****        -6.2500 -18.2500 -28.7500 Du        
   4941 ****        -6.2500 -18.2500 -28.5000 Du        
   4942 ****        -6.2500 -18.2500 -28.2500 Du        
   4943 ****        -6.2500 -18.2500 -28.0000 Du        
   4944 ****        -6.2500 -18.0000 -29.2500 Du        
   4945 ****        -6.2500 -18.0000 -29.0000 Du        
   4946 ****        -6.2500 -18.0000 -28.7500 Du        
   4947 ****        -6.2500 -18.0000 -28.5000 Du        
   4948 ****        -6.2500 -18.0000 -28.2500 Du        
   4949 ****        -6.2500 -17.7500 -29.2500 Du        
   4950 ****        -6.2500 -17.7500 -29.0000 Du        
   4951 ****        -6.2500 -17.7500 -28.7500 Du        
   4952 ****        -6.2500 -17.7500 -28.5000 Du        
   4953 ****        -6.2500 -17.7500 -28.2500 Du        
   4954 ****        -6.2500 -17.5000 -29.2500 Du        
   4955 ****        -6.2500 -17.5000 -29.0000 Du        
   4956 ****        -6.2500 -17.5000 -28.7500 Du        
   4957 ****        -6.2500 -17.5000 -28.5000 Du        
   4958 ****        -6.2500 -17.2500 -29.0000 Du        
   4959 ****        -6.2500 -17.2500 -28.7500 Du        
   4960 ****        -6.0000 -29.2500 -29.2500 Du        
   4961 ****        -6.0000 -29.0000 -29.5000 Du        
   4962 ****        -6.0000 -29.0000 -29.2500 Du        
   4963 ****        -6.0000 -29.0000 -29.0000 Du        
   4964 ****        -6.0000 -28.7500 -29.7500 Du        
   4965 ****        -6.0000 -28.7500 -29.5000 Du        
   4966 ****        -6.0000 -28.7500 -29.2500 Du        
   4967 ****        -6.0000 -28.7500 -29.0000 Du        
   4968 ****        -6.0000 -28.5000 -30.0000 Du        
   4969 ****        -6.0000 -28.5000 -29.7500 Du        
   4970 ****        -6.0000 -28.5000 -29.5000 Du        
   4971 ****        -6.0000 -28.5000 -29.2500 Du        
   4972 ****        -6.0000 -28.5000 -29.0000 Du        
   4973 ****        -6.0000 -28.2500 -30.2500 Du        
   4974 ****        -6.0000 -28.2500 -30.0000 Du        
   4975 ****        -6.0000 -28.2500 -29.7500 Du        
   4976 ****        -6.0000 -28.2500 -29.5000 Du        
   4977 ****        -6.0000 -28.2500 -29.2500 Du        
   4978 ****        -6.0000 -28.2500 -29.0000 Du        
   4979 ****        -6.0000 -28.0000 -30.2500 Du        
   4980 ****        -6.0000 -28.0000 -30.0000 Du        
   4981 ****        -6.0000 -28.0000 -29.7500 Du        
   4982 ****        -6.0000 -28.0000 -29.5000 Du        
   4983 ****        -6.0000 -28.0000 -29.2500 Du        
   4984 ****        -6.0000 -28.0000 -29.0000 Du        
   4985 ****        -6.0000 -27.7500 -30.2500 Du        
   4986 ****        -6.0000 -27.7500 -30.0000 Du        
   4987 ****        -6.0000 -27.7500 -29.7500 Du        
   4988 ****        -6.0000 -27.7500 -29.5000 Du        
   4989 ****        -6.0000 -27.7500 -29.2500 Du        
   4990 ****        -6.0000 -27.7500 -29.0000 Du        
   4991 ****        -6.0000 -27.5000 -30.0000 Du        
   4992 ****        -6.0000 -27.5000 -29.7500 Du        
   4993 ****        -6.0000 -27.5000 -29.5000 Du        
   4994 ****        -6.0000 -27.5000 -29.2500 Du        
   4995 ****        -6.0000 -27.5000 -29.0000 Du        
   4996 ****        -6.0000 -27.2500 -30.0000 Du        
   4997 ****        -6.0000 -27.2500 -29.7500 Du        
   4998 ****        -6.0000 -27.2500 -29.5000 Du        
   4999 ****        -6.0000 -27.2500 -29.2500 Du        
   5000 ****        -6.0000 -27.2500 -29.0000 Du        
   5001 ****        -6.0000 -27.2500 -28.7500 Du        
   5002 ****        -6.0000 -27.0000 -29.7500 Du        
   5003 ****        -6.0000 -27.0000 -29.5000 Du        
   5004 ****        -6.0000 -27.0000 -29.2500 Du        
   5005 ****        -6.0000 -27.0000 -29.0000 Du        
   5006 ****        -6.0000 -27.0000 -28.7500 Du        
   5007 ****        -6.0000 -26.7500 -29.2500 Du        
   5008 ****        -6.0000 -26.7500 -29.0000 Du        
   5009 ****        -6.0000 -26.7500 -28.7500 Du        
   5010 ****        -6.0000 -26.5000 -29.0000 Du        
   5011 ****        -6.0000 -26.5000 -28.7500 Du        
   5012 ****        -6.0000 -26.2500 -29.0000 Du        
   5013 ****        -6.0000 -26.2500 -28.7500 Du        
   5014 ****        -6.0000 -26.2500 -28.5000 Du        
   5015 ****        -6.0000 -26.2500 -28.2500 Du        
   5016 ****        -6.0000 -26.0000 -29.0000 Du        
   5017 ****        -6.0000 -26.0000 -28.7500 Du        
   5018 ****        -6.0000 -26.0000 -28.5000 Du        
   5019 ****        -6.0000 -26.0000 -28.2500 Du        
   5020 ****        -6.0000 -26.0000 -28.0000 Du        
   5021 ****        -6.0000 -25.7500 -29.0000 Du        
   5022 ****        -6.0000 -25.7500 -28.7500 Du        
   5023 ****        -6.0000 -25.7500 -28.5000 Du        
   5024 ****        -6.0000 -25.7500 -28.2500 Du        
   5025 ****        -6.0000 -25.7500 -28.0000 Du        
   5026 ****        -6.0000 -25.5000 -29.2500 Du        
   5027 ****        -6.0000 -25.5000 -29.0000 Du        
   5028 ****        -6.0000 -25.5000 -28.7500 Du        
   5029 ****        -6.0000 -25.5000 -28.5000 Du        
   5030 ****        -6.0000 -25.5000 -28.2500 Du        
   5031 ****        -6.0000 -25.5000 -28.0000 Du        
   5032 ****        -6.0000 -25.5000 -27.7500 Du        
   5033 ****        -6.0000 -25.2500 -29.0000 Du        
   5034 ****        -6.0000 -25.2500 -28.7500 Du        
   5035 ****        -6.0000 -25.2500 -28.5000 Du        
   5036 ****        -6.0000 -25.2500 -28.2500 Du        
   5037 ****        -6.0000 -25.2500 -28.0000 Du        
   5038 ****        -6.0000 -25.2500 -27.7500 Du        
   5039 ****        -6.0000 -25.2500 -27.5000 Du        
   5040 ****        -6.0000 -25.0000 -29.0000 Du        
   5041 ****        -6.0000 -25.0000 -28.7500 Du        
   5042 ****        -6.0000 -25.0000 -28.5000 Du        
   5043 ****        -6.0000 -25.0000 -28.2500 Du        
   5044 ****        -6.0000 -25.0000 -28.0000 Du        
   5045 ****        -6.0000 -25.0000 -27.7500 Du        
   5046 ****        -6.0000 -25.0000 -27.5000 Du        
   5047 ****        -6.0000 -24.7500 -28.7500 Du        
   5048 ****        -6.0000 -24.7500 -28.5000 Du        
   5049 ****        -6.0000 -24.7500 -28.2500 Du        
   5050 ****        -6.0000 -24.7500 -28.0000 Du        
   5051 ****        -6.0000 -24.7500 -27.7500 Du        
   5052 ****        -6.0000 -24.7500 -27.5000 Du        
   5053 ****        -6.0000 -24.7500 -27.2500 Du        
   5054 ****        -6.0000 -24.5000 -28.5000 Du        
   5055 ****        -6.0000 -24.5000 -28.2500 Du        
   5056 ****        -6.0000 -24.5000 -28.0000 Du        
   5057 ****        -6.0000 -24.5000 -27.7500 Du        
   5058 ****        -6.0000 -24.5000 -27.5000 Du        
   5059 ****        -6.0000 -24.5000 -27.2500 Du        
   5060 ****        -6.0000 -24.2500 -28.5000 Du        
   5061 ****        -6.0000 -24.2500 -28.2500 Du        
   5062 ****        -6.0000 -24.2500 -28.0000 Du        
   5063 ****        -6.0000 -24.2500 -27.7500 Du        
   5064 ****        -6.0000 -24.2500 -27.5000 Du        
   5065 ****        -6.0000 -24.2500 -27.2500 Du        
   5066 ****        -6.0000 -24.0000 -28.2500 Du        
   5067 ****        -6.0000 -24.0000 -28.0000 Du        
   5068 ****        -6.0000 -24.0000 -27.7500 Du        
   5069 ****        -6.0000 -24.0000 -27.5000 Du        
   5070 ****        -6.0000 -24.0000 -27.2500 Du        
   5071 ****        -6.0000 -23.7500 -28.2500 Du        
   5072 ****        -6.0000 -23.7500 -28.0000 Du        
   5073 ****        -6.0000 -23.7500 -27.7500 Du        
   5074 ****        -6.0000 -23.7500 -27.5000 Du        
   5075 ****        -6.0000 -23.7500 -27.2500 Du        
   5076 ****        -6.0000 -23.5000 -28.2500 Du        
   5077 ****        -6.0000 -23.5000 -28.0000 Du        
   5078 ****        -6.0000 -23.5000 -27.5000 Du        
   5079 ****        -6.0000 -23.0000 -29.2500 Du        
   5080 ****        -6.0000 -23.0000 -29.0000 Du        
   5081 ****        -6.0000 -22.7500 -29.2500 Du        
   5082 ****        -6.0000 -22.7500 -29.0000 Du        
   5083 ****        -6.0000 -22.7500 -28.7500 Du        
   5084 ****        -6.0000 -22.5000 -29.5000 Du        
   5085 ****        -6.0000 -22.5000 -29.2500 Du        
   5086 ****        -6.0000 -22.5000 -29.0000 Du        
   5087 ****        -6.0000 -22.5000 -28.7500 Du        
   5088 ****        -6.0000 -22.2500 -29.7500 Du        
   5089 ****        -6.0000 -22.2500 -29.5000 Du        
   5090 ****        -6.0000 -22.2500 -29.2500 Du        
   5091 ****        -6.0000 -22.2500 -29.0000 Du        
   5092 ****        -6.0000 -22.2500 -28.7500 Du        
   5093 ****        -6.0000 -22.0000 -29.7500 Du        
   5094 ****        -6.0000 -22.0000 -29.5000 Du        
   5095 ****        -6.0000 -22.0000 -29.2500 Du        
   5096 ****        -6.0000 -22.0000 -29.0000 Du        
   5097 ****        -6.0000 -22.0000 -28.7500 Du        
   5098 ****        -6.0000 -21.7500 -29.7500 Du        
   5099 ****        -6.0000 -21.7500 -29.5000 Du        
   5100 ****        -6.0000 -21.7500 -29.2500 Du        
   5101 ****        -6.0000 -21.7500 -29.0000 Du        
   5102 ****        -6.0000 -21.7500 -28.7500 Du        
   5103 ****        -6.0000 -21.5000 -29.7500 Du        
   5104 ****        -6.0000 -21.5000 -29.5000 Du        
   5105 ****        -6.0000 -21.5000 -29.2500 Du        
   5106 ****        -6.0000 -21.5000 -29.0000 Du        
   5107 ****        -6.0000 -21.5000 -28.7500 Du        
   5108 ****        -6.0000 -21.2500 -29.7500 Du        
   5109 ****        -6.0000 -21.2500 -29.5000 Du        
   5110 ****        -6.0000 -21.2500 -29.2500 Du        
   5111 ****        -6.0000 -21.2500 -29.0000 Du        
   5112 ****        -6.0000 -21.2500 -28.7500 Du        
   5113 ****        -6.0000 -21.0000 -29.5000 Du        
   5114 ****        -6.0000 -21.0000 -29.2500 Du        
   5115 ****        -6.0000 -21.0000 -29.0000 Du        
   5116 ****        -6.0000 -21.0000 -28.7500 Du        
   5117 ****        -6.0000 -20.7500 -29.5000 Du        
   5118 ****        -6.0000 -20.7500 -29.2500 Du        
   5119 ****        -6.0000 -20.7500 -29.0000 Du        
   5120 ****        -6.0000 -20.7500 -28.7500 Du        
   5121 ****        -6.0000 -20.7500 -28.5000 Du        
   5122 ****        -6.0000 -20.5000 -29.5000 Du        
   5123 ****        -6.0000 -20.5000 -29.2500 Du        
   5124 ****        -6.0000 -20.5000 -29.0000 Du        
   5125 ****        -6.0000 -20.5000 -28.7500 Du        
   5126 ****        -6.0000 -20.5000 -28.5000 Du        
   5127 ****        -6.0000 -20.5000 -28.2500 Du        
   5128 ****        -6.0000 -20.2500 -29.5000 Du        
   5129 ****        -6.0000 -20.2500 -29.2500 Du        
   5130 ****        -6.0000 -20.2500 -29.0000 Du        
   5131 ****        -6.0000 -20.2500 -28.7500 Du        
   5132 ****        -6.0000 -20.2500 -28.5000 Du        
   5133 ****        -6.0000 -20.2500 -28.2500 Du        
   5134 ****        -6.0000 -20.0000 -29.5000 Du        
   5135 ****        -6.0000 -20.0000 -29.2500 Du        
   5136 ****        -6.0000 -20.0000 -29.0000 Du        
   5137 ****        -6.0000 -20.0000 -28.7500 Du        
   5138 ****        -6.0000 -20.0000 -28.5000 Du        
   5139 ****        -6.0000 -20.0000 -28.2500 Du        
   5140 ****        -6.0000 -19.7500 -29.5000 Du        
   5141 ****        -6.0000 -19.7500 -29.2500 Du        
   5142 ****        -6.0000 -19.7500 -29.0000 Du        
   5143 ****        -6.0000 -19.7500 -28.7500 Du        
   5144 ****        -6.0000 -19.7500 -28.5000 Du        
   5145 ****        -6.0000 -19.7500 -28.2500 Du        
   5146 ****        -6.0000 -19.5000 -29.2500 Du        
   5147 ****        -6.0000 -19.5000 -29.0000 Du        
   5148 ****        -6.0000 -19.5000 -28.7500 Du        
   5149 ****        -6.0000 -19.5000 -28.5000 Du        
   5150 ****        -6.0000 -19.5000 -28.2500 Du        
   5151 ****        -6.0000 -19.2500 -29.2500 Du        
   5152 ****        -6.0000 -19.2500 -29.0000 Du        
   5153 ****        -6.0000 -19.2500 -28.7500 Du        
   5154 ****        -6.0000 -19.2500 -28.5000 Du        
   5155 ****        -6.0000 -19.2500 -28.2500 Du        
   5156 ****        -6.0000 -19.0000 -29.2500 Du        
   5157 ****        -6.0000 -19.0000 -29.0000 Du        
   5158 ****        -6.0000 -19.0000 -28.7500 Du        
   5159 ****        -6.0000 -19.0000 -28.5000 Du        
   5160 ****        -6.0000 -19.0000 -28.2500 Du        
   5161 ****        -6.0000 -19.0000 -28.0000 Du        
   5162 ****        -6.0000 -18.7500 -29.0000 Du        
   5163 ****        -6.0000 -18.7500 -28.7500 Du        
   5164 ****        -6.0000 -18.7500 -28.5000 Du        
   5165 ****        -6.0000 -18.7500 -28.2500 Du        
   5166 ****        -6.0000 -18.7500 -28.0000 Du        
   5167 ****        -6.0000 -18.5000 -29.0000 Du        
   5168 ****        -6.0000 -18.5000 -28.7500 Du        
   5169 ****        -6.0000 -18.5000 -28.5000 Du        
   5170 ****        -6.0000 -18.5000 -28.2500 Du        
   5171 ****        -6.0000 -18.5000 -28.0000 Du        
   5172 ****        -6.0000 -18.2500 -29.0000 Du        
   5173 ****        -6.0000 -18.2500 -28.7500 Du        
   5174 ****        -6.0000 -18.2500 -28.5000 Du        
   5175 ****        -6.0000 -18.2500 -28.2500 Du        
   5176 ****        -6.0000 -18.2500 -28.0000 Du        
   5177 ****        -6.0000 -18.0000 -29.0000 Du        
   5178 ****        -6.0000 -18.0000 -28.7500 Du        
   5179 ****        -6.0000 -18.0000 -28.5000 Du        
   5180 ****        -6.0000 -18.0000 -28.2500 Du        
   5181 ****        -6.0000 -18.0000 -28.0000 Du        
   5182 ****        -6.0000 -17.7500 -29.0000 Du        
   5183 ****        -6.0000 -17.7500 -28.7500 Du        
   5184 ****        -6.0000 -17.7500 -28.5000 Du        
   5185 ****        -6.0000 -17.7500 -28.2500 Du        
   5186 ****        -6.0000 -17.5000 -29.0000 Du        
   5187 ****        -6.0000 -17.5000 -28.7500 Du        
   5188 ****        -6.0000 -17.2500 -29.0000 Du        
   5189 ****        -6.0000 -17.2500 -28.7500 Du        
   5190 ****        -6.0000 -17.0000 -28.7500 Du        
   5191 ****        -5.7500 -29.2500 -29.2500 Du        
   5192 ****        -5.7500 -29.0000 -29.5000 Du        
   5193 ****        -5.7500 -29.0000 -29.2500 Du        
   5194 ****        -5.7500 -29.0000 -29.0000 Du        
   5195 ****        -5.7500 -28.7500 -29.7500 Du        
   5196 ****        -5.7500 -28.7500 -29.5000 Du        
   5197 ****        -5.7500 -28.7500 -29.2500 Du        
   5198 ****        -5.7500 -28.7500 -29.0000 Du        
   5199 ****        -5.7500 -28.5000 -30.0000 Du        
   5200 ****        -5.7500 -28.5000 -29.7500 Du        
   5201 ****        -5.7500 -28.5000 -29.5000 Du        
   5202 ****        -5.7500 -28.5000 -29.2500 Du        
   5203 ****        -5.7500 -28.5000 -29.0000 Du        
   5204 ****        -5.7500 -28.2500 -30.2500 Du        
   5205 ****        -5.7500 -28.2500 -30.0000 Du        
   5206 ****        -5.7500 -28.2500 -29.7500 Du        
   5207 ****        -5.7500 -28.2500 -29.5000 Du        
   5208 ****        -5.7500 -28.2500 -29.2500 Du        
   5209 ****        -5.7500 -28.2500 -29.0000 Du        
   5210 ****        -5.7500 -28.0000 -30.5000 Du        
   5211 ****        -5.7500 -28.0000 -30.2500 Du        
   5212 ****        -5.7500 -28.0000 -30.0000 Du        
   5213 ****        -5.7500 -28.0000 -29.7500 Du        
   5214 ****        -5.7500 -28.0000 -29.5000 Du        
   5215 ****        -5.7500 -28.0000 -29.2500 Du        
   5216 ****        -5.7500 -28.0000 -29.0000 Du        
   5217 ****        -5.7500 -27.7500 -30.2500 Du        
   5218 ****        -5.7500 -27.7500 -30.0000 Du        
   5219 ****        -5.7500 -27.7500 -29.7500 Du        
   5220 ****        -5.7500 -27.7500 -29.5000 Du        
   5221 ****        -5.7500 -27.7500 -29.2500 Du        
   5222 ****        -5.7500 -27.7500 -29.0000 Du        
   5223 ****        -5.7500 -27.5000 -30.2500 Du        
   5224 ****        -5.7500 -27.5000 -30.0000 Du        
   5225 ****        -5.7500 -27.5000 -29.7500 Du        
   5226 ****        -5.7500 -27.5000 -29.5000 Du        
   5227 ****        -5.7500 -27.5000 -29.2500 Du        
   5228 ****        -5.7500 -27.5000 -29.0000 Du        
   5229 ****        -5.7500 -27.2500 -30.0000 Du        
   5230 ****        -5.7500 -27.2500 -29.7500 Du        
   5231 ****        -5.7500 -27.2500 -29.5000 Du        
   5232 ****        -5.7500 -27.2500 -29.2500 Du        
   5233 ****        -5.7500 -27.2500 -29.0000 Du        
   5234 ****        -5.7500 -27.2500 -28.7500 Du        
   5235 ****        -5.7500 -27.0000 -29.7500 Du        
   5236 ****        -5.7500 -27.0000 -29.5000 Du        
   5237 ****        -5.7500 -27.0000 -29.2500 Du        
   5238 ****        -5.7500 -27.0000 -29.0000 Du        
   5239 ****        -5.7500 -27.0000 -28.7500 Du        
   5240 ****        -5.7500 -26.7500 -29.2500 Du        
   5241 ****        -5.7500 -26.7500 -29.0000 Du        
   5242 ****        -5.7500 -26.7500 -28.7500 Du        
   5243 ****        -5.7500 -26.5000 -29.0000 Du        
   5244 ****        -5.7500 -26.5000 -28.7500 Du        
   5245 ****        -5.7500 -26.5000 -28.5000 Du        
   5246 ****        -5.7500 -26.2500 -29.0000 Du        
   5247 ****        -5.7500 -26.2500 -28.7500 Du        
   5248 ****        -5.7500 -26.2500 -28.5000 Du        
   5249 ****        -5.7500 -26.2500 -28.2500 Du        
   5250 ****        -5.7500 -26.0000 -29.0000 Du        
   5251 ****        -5.7500 -26.0000 -28.7500 Du        
   5252 ****        -5.7500 -26.0000 -28.5000 Du        
   5253 ****        -5.7500 -26.0000 -28.2500 Du        
   5254 ****        -5.7500 -26.0000 -28.0000 Du        
   5255 ****        -5.7500 -25.7500 -29.0000 Du        
   5256 ****        -5.7500 -25.7500 -28.7500 Du        
   5257 ****        -5.7500 -25.7500 -28.5000 Du        
   5258 ****        -5.7500 -25.7500 -28.2500 Du        
   5259 ****        -5.7500 -25.7500 -28.0000 Du        
   5260 ****        -5.7500 -25.5000 -29.0000 Du        
   5261 ****        -5.7500 -25.5000 -28.7500 Du        
   5262 ****        -5.7500 -25.5000 -28.5000 Du        
   5263 ****        -5.7500 -25.5000 -28.2500 Du        
   5264 ****        -5.7500 -25.5000 -28.0000 Du        
   5265 ****        -5.7500 -25.5000 -27.7500 Du        
   5266 ****        -5.7500 -25.2500 -29.0000 Du        
   5267 ****        -5.7500 -25.2500 -28.7500 Du        
   5268 ****        -5.7500 -25.2500 -28.5000 Du        
   5269 ****        -5.7500 -25.2500 -28.2500 Du        
   5270 ****        -5.7500 -25.2500 -28.0000 Du        
   5271 ****        -5.7500 -25.2500 -27.7500 Du        
   5272 ****        -5.7500 -25.2500 -27.5000 Du        
   5273 ****        -5.7500 -25.0000 -29.0000 Du        
   5274 ****        -5.7500 -25.0000 -28.7500 Du        
   5275 ****        -5.7500 -25.0000 -28.5000 Du        
   5276 ****        -5.7500 -25.0000 -28.2500 Du        
   5277 ****        -5.7500 -25.0000 -28.0000 Du        
   5278 ****        -5.7500 -25.0000 -27.7500 Du        
   5279 ****        -5.7500 -25.0000 -27.5000 Du        
   5280 ****        -5.7500 -24.7500 -29.0000 Du        
   5281 ****        -5.7500 -24.7500 -28.7500 Du        
   5282 ****        -5.7500 -24.7500 -28.5000 Du        
   5283 ****        -5.7500 -24.7500 -28.2500 Du        
   5284 ****        -5.7500 -24.7500 -28.0000 Du        
   5285 ****        -5.7500 -24.7500 -27.7500 Du        
   5286 ****        -5.7500 -24.7500 -27.5000 Du        
   5287 ****        -5.7500 -24.5000 -28.5000 Du        
   5288 ****        -5.7500 -24.5000 -28.2500 Du        
   5289 ****        -5.7500 -24.5000 -28.0000 Du        
   5290 ****        -5.7500 -24.5000 -27.7500 Du        
   5291 ****        -5.7500 -24.5000 -27.5000 Du        
   5292 ****        -5.7500 -24.5000 -27.2500 Du        
   5293 ****        -5.7500 -24.2500 -29.0000 Du        
   5294 ****        -5.7500 -24.2500 -28.5000 Du        
   5295 ****        -5.7500 -24.2500 -28.2500 Du        
   5296 ****        -5.7500 -24.2500 -28.0000 Du        
   5297 ****        -5.7500 -24.2500 -27.7500 Du        
   5298 ****        -5.7500 -24.2500 -27.5000 Du        
   5299 ****        -5.7500 -24.2500 -27.2500 Du        
   5300 ****        -5.7500 -24.0000 -29.0000 Du        
   5301 ****        -5.7500 -24.0000 -28.0000 Du        
   5302 ****        -5.7500 -24.0000 -27.7500 Du        
   5303 ****        -5.7500 -24.0000 -27.5000 Du        
   5304 ****        -5.7500 -24.0000 -27.2500 Du        
   5305 ****        -5.7500 -23.0000 -29.2500 Du        
   5306 ****        -5.7500 -23.0000 -29.0000 Du        
   5307 ****        -5.7500 -22.7500 -29.2500 Du        
   5308 ****        -5.7500 -22.7500 -29.0000 Du        
   5309 ****        -5.7500 -22.5000 -29.5000 Du        
   5310 ****        -5.7500 -22.5000 -29.2500 Du        
   5311 ****        -5.7500 -22.5000 -29.0000 Du        
   5312 ****        -5.7500 -22.2500 -29.5000 Du        
   5313 ****        -5.7500 -22.2500 -29.2500 Du        
   5314 ****        -5.7500 -22.2500 -29.0000 Du        
   5315 ****        -5.7500 -22.0000 -29.5000 Du        
   5316 ****        -5.7500 -22.0000 -29.2500 Du        
   5317 ****        -5.7500 -22.0000 -29.0000 Du        
   5318 ****        -5.7500 -21.7500 -29.5000 Du        
   5319 ****        -5.7500 -21.7500 -29.2500 Du        
   5320 ****        -5.7500 -21.7500 -29.0000 Du        
   5321 ****        -5.7500 -21.7500 -28.7500 Du        
   5322 ****        -5.7500 -21.5000 -29.5000 Du        
   5323 ****        -5.7500 -21.5000 -29.2500 Du        
   5324 ****        -5.7500 -21.5000 -29.0000 Du        
   5325 ****        -5.7500 -21.2500 -29.5000 Du        
   5326 ****        -5.7500 -21.2500 -29.2500 Du        
   5327 ****        -5.7500 -21.2500 -29.0000 Du        
   5328 ****        -5.7500 -21.0000 -29.2500 Du        
   5329 ****        -5.7500 -21.0000 -29.0000 Du        
   5330 ****        -5.7500 -20.7500 -29.2500 Du        
   5331 ****        -5.7500 -20.7500 -29.0000 Du        
   5332 ****        -5.7500 -20.7500 -28.7500 Du        
   5333 ****        -5.7500 -20.5000 -29.2500 Du        
   5334 ****        -5.7500 -20.5000 -29.0000 Du        
   5335 ****        -5.7500 -20.5000 -28.7500 Du        
   5336 ****        -5.7500 -20.2500 -29.2500 Du        
   5337 ****        -5.7500 -20.2500 -29.0000 Du        
   5338 ****        -5.7500 -20.2500 -28.7500 Du        
   5339 ****        -5.7500 -20.0000 -29.2500 Du        
   5340 ****        -5.7500 -20.0000 -29.0000 Du        
   5341 ****        -5.7500 -20.0000 -28.7500 Du        
   5342 ****        -5.7500 -20.0000 -28.5000 Du        
   5343 ****        -5.7500 -19.7500 -29.2500 Du        
   5344 ****        -5.7500 -19.7500 -29.0000 Du        
   5345 ****        -5.7500 -19.7500 -28.7500 Du        
   5346 ****        -5.7500 -19.7500 -28.5000 Du        
   5347 ****        -5.7500 -19.5000 -29.0000 Du        
   5348 ****        -5.7500 -19.5000 -28.7500 Du        
   5349 ****        -5.7500 -19.5000 -28.5000 Du        
   5350 ****        -5.7500 -19.5000 -28.2500 Du        
   5351 ****        -5.7500 -19.2500 -29.0000 Du        
   5352 ****        -5.7500 -19.2500 -28.7500 Du        
   5353 ****        -5.7500 -19.2500 -28.5000 Du        
   5354 ****        -5.7500 -19.2500 -28.2500 Du        
   5355 ****        -5.7500 -19.2500 -28.0000 Du        
   5356 ****        -5.7500 -19.0000 -28.7500 Du        
   5357 ****        -5.7500 -19.0000 -28.5000 Du        
   5358 ****        -5.7500 -19.0000 -28.2500 Du        
   5359 ****        -5.7500 -19.0000 -28.0000 Du        
   5360 ****        -5.7500 -18.7500 -28.7500 Du        
   5361 ****        -5.7500 -18.7500 -28.5000 Du        
   5362 ****        -5.7500 -18.7500 -28.2500 Du        
   5363 ****        -5.7500 -18.7500 -28.0000 Du        
   5364 ****        -5.7500 -18.5000 -28.7500 Du        
   5365 ****        -5.7500 -18.5000 -28.5000 Du        
   5366 ****        -5.7500 -18.5000 -28.0000 Du        
   5367 ****        -5.7500 -18.2500 -28.7500 Du        
   5368 ****        -5.7500 -18.2500 -28.5000 Du        
   5369 ****        -5.7500 -18.2500 -28.2500 Du        
   5370 ****        -5.7500 -18.0000 -28.7500 Du        
   5371 ****        -5.7500 -18.0000 -28.5000 Du        
   5372 ****        -5.7500 -18.0000 -28.2500 Du        
   5373 ****        -5.7500 -18.0000 -28.0000 Du        
   5374 ****        -5.7500 -17.7500 -28.7500 Du        
   5375 ****        -5.7500 -17.7500 -28.5000 Du        
   5376 ****        -5.7500 -17.7500 -28.2500 Du        
   5377 ****        -5.7500 -17.5000 -28.7500 Du        
   5378 ****        -5.7500 -17.2500 -28.7500 Du        
   5379 ****        -5.5000 -31.2500 -29.0000 Du        
   5380 ****        -5.5000 -31.0000 -29.0000 Du        
   5381 ****        -5.5000 -30.7500 -29.0000 Du        
   5382 ****        -5.5000 -29.0000 -29.2500 Du        
   5383 ****        -5.5000 -29.0000 -29.0000 Du        
   5384 ****        -5.5000 -28.7500 -29.7500 Du        
   5385 ****        -5.5000 -28.7500 -29.5000 Du        
   5386 ****        -5.5000 -28.7500 -29.2500 Du        
   5387 ****        -5.5000 -28.7500 -29.0000 Du        
   5388 ****        -5.5000 -28.5000 -29.7500 Du        
   5389 ****        -5.5000 -28.5000 -29.5000 Du        
   5390 ****        -5.5000 -28.5000 -29.2500 Du        
   5391 ****        -5.5000 -28.5000 -29.0000 Du        
   5392 ****        -5.5000 -28.2500 -30.2500 Du        
   5393 ****        -5.5000 -28.2500 -30.0000 Du        
   5394 ****        -5.5000 -28.2500 -29.7500 Du        
   5395 ****        -5.5000 -28.2500 -29.5000 Du        
   5396 ****        -5.5000 -28.2500 -29.2500 Du        
   5397 ****        -5.5000 -28.2500 -29.0000 Du        
   5398 ****        -5.5000 -28.0000 -30.7500 Du        
   5399 ****        -5.5000 -28.0000 -30.5000 Du        
   5400 ****        -5.5000 -28.0000 -30.2500 Du        
   5401 ****        -5.5000 -28.0000 -30.0000 Du        
   5402 ****        -5.5000 -28.0000 -29.7500 Du        
   5403 ****        -5.5000 -28.0000 -29.5000 Du        
   5404 ****        -5.5000 -28.0000 -29.2500 Du        
   5405 ****        -5.5000 -28.0000 -29.0000 Du        
   5406 ****        -5.5000 -27.7500 -30.7500 Du        
   5407 ****        -5.5000 -27.7500 -30.5000 Du        
   5408 ****        -5.5000 -27.7500 -30.2500 Du        
   5409 ****        -5.5000 -27.7500 -30.0000 Du        
   5410 ****        -5.5000 -27.7500 -29.7500 Du        
   5411 ****        -5.5000 -27.7500 -29.5000 Du        
   5412 ****        -5.5000 -27.7500 -29.2500 Du        
   5413 ****        -5.5000 -27.7500 -29.0000 Du        
   5414 ****        -5.5000 -27.5000 -30.5000 Du        
   5415 ****        -5.5000 -27.5000 -30.2500 Du        
   5416 ****        -5.5000 -27.5000 -30.0000 Du        
   5417 ****        -5.5000 -27.5000 -29.7500 Du        
   5418 ****        -5.5000 -27.5000 -29.5000 Du        
   5419 ****        -5.5000 -27.2500 -30.2500 Du        
   5420 ****        -5.5000 -27.2500 -30.0000 Du        
   5421 ****        -5.5000 -27.2500 -29.7500 Du        
   5422 ****        -5.5000 -27.2500 -29.5000 Du        
   5423 ****        -5.5000 -27.2500 -29.2500 Du        
   5424 ****        -5.5000 -27.0000 -30.0000 Du        
   5425 ****        -5.5000 -27.0000 -29.7500 Du        
   5426 ****        -5.5000 -27.0000 -29.5000 Du        
   5427 ****        -5.5000 -27.0000 -29.2500 Du        
   5428 ****        -5.5000 -27.0000 -29.0000 Du        
   5429 ****        -5.5000 -26.7500 -29.7500 Du        
   5430 ****        -5.5000 -26.7500 -29.5000 Du        
   5431 ****        -5.5000 -26.7500 -29.2500 Du        
   5432 ****        -5.5000 -26.7500 -29.0000 Du        
   5433 ****        -5.5000 -26.5000 -29.2500 Du        
   5434 ****        -5.5000 -26.5000 -29.0000 Du        
   5435 ****        -5.5000 -26.5000 -28.7500 Du        
   5436 ****        -5.5000 -26.5000 -28.5000 Du        
   5437 ****        -5.5000 -26.5000 -28.2500 Du        
   5438 ****        -5.5000 -26.2500 -29.2500 Du        
   5439 ****        -5.5000 -26.2500 -29.0000 Du        
   5440 ****        -5.5000 -26.2500 -28.7500 Du        
   5441 ****        -5.5000 -26.2500 -28.5000 Du        
   5442 ****        -5.5000 -26.2500 -28.2500 Du        
   5443 ****        -5.5000 -26.0000 -29.2500 Du        
   5444 ****        -5.5000 -26.0000 -29.0000 Du        
   5445 ****        -5.5000 -26.0000 -28.7500 Du        
   5446 ****        -5.5000 -26.0000 -28.5000 Du        
   5447 ****        -5.5000 -26.0000 -28.2500 Du        
   5448 ****        -5.5000 -26.0000 -28.0000 Du        
   5449 ****        -5.5000 -25.7500 -29.2500 Du        
   5450 ****        -5.5000 -25.7500 -29.0000 Du        
   5451 ****        -5.5000 -25.7500 -28.7500 Du        
   5452 ****        -5.5000 -25.7500 -28.5000 Du        
   5453 ****        -5.5000 -25.7500 -28.2500 Du        
   5454 ****        -5.5000 -25.7500 -28.0000 Du        
   5455 ****        -5.5000 -25.5000 -29.2500 Du        
   5456 ****        -5.5000 -25.5000 -29.0000 Du        
   5457 ****        -5.5000 -25.5000 -28.7500 Du        
   5458 ****        -5.5000 -25.5000 -28.5000 Du        
   5459 ****        -5.5000 -25.5000 -28.2500 Du        
   5460 ****        -5.5000 -25.5000 -28.0000 Du        
   5461 ****        -5.5000 -25.2500 -29.2500 Du        
   5462 ****        -5.5000 -25.2500 -29.0000 Du        
   5463 ****        -5.5000 -25.2500 -28.7500 Du        
   5464 ****        -5.5000 -25.2500 -28.5000 Du        
   5465 ****        -5.5000 -25.2500 -28.2500 Du        
   5466 ****        -5.5000 -25.2500 -28.0000 Du        
   5467 ****        -5.5000 -25.2500 -27.7500 Du        
   5468 ****        -5.5000 -25.0000 -29.2500 Du        
   5469 ****        -5.5000 -25.0000 -29.0000 Du        
   5470 ****        -5.5000 -25.0000 -28.7500 Du        
   5471 ****        -5.5000 -25.0000 -28.5000 Du        
   5472 ****        -5.5000 -25.0000 -28.2500 Du        
   5473 ****        -5.5000 -25.0000 -28.0000 Du        
   5474 ****        -5.5000 -25.0000 -27.7500 Du        
   5475 ****        -5.5000 -24.7500 -29.0000 Du        
   5476 ****        -5.5000 -24.7500 -28.7500 Du        
   5477 ****        -5.5000 -24.7500 -28.5000 Du        
   5478 ****        -5.5000 -24.7500 -28.2500 Du        
   5479 ****        -5.5000 -24.7500 -28.0000 Du        
   5480 ****        -5.5000 -24.7500 -27.7500 Du        
   5481 ****        -5.5000 -24.5000 -29.0000 Du        
   5482 ****        -5.5000 -24.5000 -28.7500 Du        
   5483 ****        -5.5000 -24.5000 -28.5000 Du        
   5484 ****        -5.5000 -24.5000 -28.2500 Du        
   5485 ****        -5.5000 -24.5000 -28.0000 Du        
   5486 ****        -5.5000 -24.2500 -29.0000 Du        
   5487 ****        -5.5000 -24.0000 -29.0000 Du        
   5488 ****        -5.5000 -22.5000 -29.2500 Du        
   5489 ****        -5.5000 -20.0000 -28.7500 Du        
   5490 ****        -5.5000 -19.2500 -28.5000 Du        
   5491 ****        -5.5000 -19.2500 -28.2500 Du        
   5492 ****        -5.5000 -19.0000 -28.2500 Du        
   5493 ****        -5.5000 -19.0000 -28.0000 Du        
   5494 ****        -5.5000 -18.7500 -28.2500 Du        
   5495 ****        -5.5000 -18.7500 -28.0000 Du        
   5496 ****        -5.5000 -18.7500 -27.7500 Du        
   5497 ****        -5.5000 -18.5000 -28.2500 Du        
   5498 ****        -5.5000 -18.5000 -28.0000 Du        
   5499 ****        -5.5000 -18.5000 -27.7500 Du        
   5500 ****        -5.5000 -18.2500 -28.2500 Du        
   5501 ****        -5.5000 -18.2500 -28.0000 Du        
   5502 ****        -5.5000 -18.0000 -28.2500 Du        
   5503 ****        -5.5000 -18.0000 -28.0000 Du        
   5504 ****        -5.2500 -32.0000 -29.0000 Du        
   5505 ****        -5.2500 -31.7500 -29.2500 Du        
   5506 ****        -5.2500 -31.7500 -29.0000 Du        
   5507 ****        -5.2500 -31.7500 -28.7500 Du        
   5508 ****        -5.2500 -31.5000 -29.0000 Du        
   5509 ****        -5.2500 -31.5000 -28.7500 Du        
   5510 ****        -5.2500 -31.2500 -29.0000 Du        
   5511 ****        -5.2500 -31.2500 -28.7500 Du        
   5512 ****        -5.2500 -31.0000 -29.0000 Du        
   5513 ****        -5.2500 -31.0000 -28.7500 Du        
   5514 ****        -5.2500 -30.7500 -29.0000 Du        
   5515 ****        -5.2500 -30.7500 -28.7500 Du        
   5516 ****        -5.2500 -30.5000 -29.0000 Du        
   5517 ****        -5.2500 -30.2500 -29.0000 Du        
   5518 ****        -5.2500 -30.0000 -29.0000 Du        
   5519 ****        -5.2500 -29.2500 -29.2500 Du        
   5520 ****        -5.2500 -29.2500 -29.0000 Du        
   5521 ****        -5.2500 -29.0000 -29.5000 Du        
   5522 ****        -5.2500 -29.0000 -29.2500 Du        
   5523 ****        -5.2500 -29.0000 -29.0000 Du        
   5524 ****        -5.2500 -28.7500 -29.7500 Du        
   5525 ****        -5.2500 -28.7500 -29.5000 Du        
   5526 ****        -5.2500 -28.7500 -29.2500 Du        
   5527 ****        -5.2500 -28.7500 -29.0000 Du        
   5528 ****        -5.2500 -28.5000 -30.0000 Du        
   5529 ****        -5.2500 -28.5000 -29.7500 Du        
   5530 ****        -5.2500 -28.5000 -29.5000 Du        
   5531 ****        -5.2500 -28.5000 -29.2500 Du        
   5532 ****        -5.2500 -28.5000 -29.0000 Du        
   5533 ****        -5.2500 -28.2500 -30.5000 Du        
   5534 ****        -5.2500 -28.2500 -30.2500 Du        
   5535 ****        -5.2500 -28.2500 -30.0000 Du        
   5536 ****        -5.2500 -28.2500 -29.7500 Du        
   5537 ****        -5.2500 -28.2500 -29.5000 Du        
   5538 ****        -5.2500 -28.2500 -29.2500 Du        
   5539 ****        -5.2500 -28.2500 -29.0000 Du        
   5540 ****        -5.2500 -28.0000 -31.0000 Du        
   5541 ****        -5.2500 -28.0000 -30.7500 Du        
   5542 ****        -5.2500 -28.0000 -30.5000 Du        
   5543 ****        -5.2500 -28.0000 -30.2500 Du        
   5544 ****        -5.2500 -28.0000 -30.0000 Du        
   5545 ****        -5.2500 -28.0000 -29.7500 Du        
   5546 ****        -5.2500 -28.0000 -29.5000 Du        
   5547 ****        -5.2500 -28.0000 -29.2500 Du        
   5548 ****        -5.2500 -28.0000 -29.0000 Du        
   5549 ****        -5.2500 -27.7500 -31.0000 Du        
   5550 ****        -5.2500 -27.7500 -30.7500 Du        
   5551 ****        -5.2500 -27.7500 -30.5000 Du        
   5552 ****        -5.2500 -27.7500 -30.2500 Du        
   5553 ****        -5.2500 -27.7500 -30.0000 Du        
   5554 ****        -5.2500 -27.7500 -29.7500 Du        
   5555 ****        -5.2500 -27.7500 -29.5000 Du        
   5556 ****        -5.2500 -27.7500 -29.2500 Du        
   5557 ****        -5.2500 -27.7500 -29.0000 Du        
   5558 ****        -5.2500 -27.5000 -30.5000 Du        
   5559 ****        -5.2500 -27.5000 -30.2500 Du        
   5560 ****        -5.2500 -27.5000 -30.0000 Du        
   5561 ****        -5.2500 -27.5000 -29.7500 Du        
   5562 ****        -5.2500 -27.5000 -29.5000 Du        
   5563 ****        -5.2500 -27.5000 -29.2500 Du        
   5564 ****        -5.2500 -27.2500 -30.2500 Du        
   5565 ****        -5.2500 -27.2500 -30.0000 Du        
   5566 ****        -5.2500 -27.2500 -29.7500 Du        
   5567 ****        -5.2500 -27.2500 -29.5000 Du        
   5568 ****        -5.2500 -27.2500 -29.2500 Du        
   5569 ****        -5.2500 -27.2500 -29.0000 Du        
   5570 ****        -5.2500 -27.0000 -30.0000 Du        
   5571 ****        -5.2500 -27.0000 -29.7500 Du        
   5572 ****        -5.2500 -27.0000 -29.5000 Du        
   5573 ****        -5.2500 -27.0000 -29.2500 Du        
   5574 ****        -5.2500 -27.0000 -29.0000 Du        
   5575 ****        -5.2500 -27.0000 -28.7500 Du        
   5576 ****        -5.2500 -26.7500 -29.7500 Du        
   5577 ****        -5.2500 -26.7500 -29.5000 Du        
   5578 ****        -5.2500 -26.7500 -29.2500 Du        
   5579 ****        -5.2500 -26.7500 -29.0000 Du        
   5580 ****        -5.2500 -26.7500 -28.7500 Du        
   5581 ****        -5.2500 -26.5000 -29.5000 Du        
   5582 ****        -5.2500 -26.5000 -29.2500 Du        
   5583 ****        -5.2500 -26.5000 -29.0000 Du        
   5584 ****        -5.2500 -26.5000 -28.7500 Du        
   5585 ****        -5.2500 -26.5000 -28.5000 Du        
   5586 ****        -5.2500 -26.5000 -28.2500 Du        
   5587 ****        -5.2500 -26.2500 -29.5000 Du        
   5588 ****        -5.2500 -26.2500 -29.2500 Du        
   5589 ****        -5.2500 -26.2500 -29.0000 Du        
   5590 ****        -5.2500 -26.2500 -28.7500 Du        
   5591 ****        -5.2500 -26.2500 -28.5000 Du        
   5592 ****        -5.2500 -26.2500 -28.2500 Du        
   5593 ****        -5.2500 -26.2500 -28.0000 Du        
   5594 ****        -5.2500 -26.0000 -29.5000 Du        
   5595 ****        -5.2500 -26.0000 -29.2500 Du        
   5596 ****        -5.2500 -26.0000 -29.0000 Du        
   5597 ****        -5.2500 -26.0000 -28.7500 Du        
   5598 ****        -5.2500 -26.0000 -28.5000 Du        
   5599 ****        -5.2500 -26.0000 -28.2500 Du        
   5600 ****        -5.2500 -26.0000 -28.0000 Du        
   5601 ****        -5.2500 -25.7500 -29.5000 Du        
   5602 ****        -5.2500 -25.7500 -29.2500 Du        
   5603 ****        -5.2500 -25.7500 -29.0000 Du        
   5604 ****        -5.2500 -25.7500 -28.7500 Du        
   5605 ****        -5.2500 -25.7500 -28.5000 Du        
   5606 ****        -5.2500 -25.7500 -28.2500 Du        
   5607 ****        -5.2500 -25.7500 -28.0000 Du        
   5608 ****        -5.2500 -25.7500 -27.7500 Du        
   5609 ****        -5.2500 -25.5000 -29.2500 Du        
   5610 ****        -5.2500 -25.5000 -29.0000 Du        
   5611 ****        -5.2500 -25.5000 -28.7500 Du        
   5612 ****        -5.2500 -25.5000 -28.5000 Du        
   5613 ****        -5.2500 -25.5000 -28.2500 Du        
   5614 ****        -5.2500 -25.5000 -28.0000 Du        
   5615 ****        -5.2500 -25.2500 -29.2500 Du        
   5616 ****        -5.2500 -25.2500 -29.0000 Du        
   5617 ****        -5.2500 -25.2500 -28.7500 Du        
   5618 ****        -5.2500 -25.2500 -28.5000 Du        
   5619 ****        -5.2500 -25.2500 -28.2500 Du        
   5620 ****        -5.2500 -25.2500 -28.0000 Du        
   5621 ****        -5.2500 -25.2500 -27.7500 Du        
   5622 ****        -5.2500 -25.0000 -29.2500 Du        
   5623 ****        -5.2500 -25.0000 -29.0000 Du        
   5624 ****        -5.2500 -25.0000 -28.7500 Du        
   5625 ****        -5.2500 -25.0000 -28.5000 Du        
   5626 ****        -5.2500 -25.0000 -28.2500 Du        
   5627 ****        -5.2500 -25.0000 -28.0000 Du        
   5628 ****        -5.2500 -24.7500 -29.2500 Du        
   5629 ****        -5.2500 -24.7500 -29.0000 Du        
   5630 ****        -5.2500 -24.7500 -28.7500 Du        
   5631 ****        -5.2500 -24.7500 -28.5000 Du        
   5632 ****        -5.2500 -24.7500 -28.2500 Du        
   5633 ****        -5.2500 -24.7500 -28.0000 Du        
   5634 ****        -5.2500 -24.5000 -29.0000 Du        
   5635 ****        -5.2500 -24.5000 -28.7500 Du        
   5636 ****        -5.2500 -24.2500 -29.0000 Du        
   5637 ****        -5.2500 -19.0000 -28.0000 Du        
   5638 ****        -5.2500 -18.7500 -28.0000 Du        
   5639 ****        -5.2500 -18.7500 -27.7500 Du        
   5640 ****        -5.2500 -18.5000 -28.0000 Du        
   5641 ****        -5.2500 -18.5000 -27.7500 Du        
   5642 ****        -5.2500 -18.2500 -28.0000 Du        
   5643 ****        -5.2500 -18.2500 -27.7500 Du        
   5644 ****        -5.2500 -18.0000 -28.0000 Du        
   5645 ****        -5.2500 -17.7500 -28.0000 Du        
   5646 ****        -5.0000 -32.2500 -29.0000 Du        
   5647 ****        -5.0000 -32.2500 -28.7500 Du        
   5648 ****        -5.0000 -32.0000 -29.2500 Du        
   5649 ****        -5.0000 -32.0000 -29.0000 Du        
   5650 ****        -5.0000 -32.0000 -28.7500 Du        
   5651 ****        -5.0000 -32.0000 -28.5000 Du        
   5652 ****        -5.0000 -31.7500 -29.2500 Du        
   5653 ****        -5.0000 -31.7500 -29.0000 Du        
   5654 ****        -5.0000 -31.7500 -28.7500 Du        
   5655 ****        -5.0000 -31.7500 -28.5000 Du        
   5656 ****        -5.0000 -31.5000 -29.2500 Du        
   5657 ****        -5.0000 -31.5000 -29.0000 Du        
   5658 ****        -5.0000 -31.5000 -28.7500 Du        
   5659 ****        -5.0000 -31.5000 -28.5000 Du        
   5660 ****        -5.0000 -31.2500 -29.2500 Du        
   5661 ****        -5.0000 -31.2500 -29.0000 Du        
   5662 ****        -5.0000 -31.2500 -28.7500 Du        
   5663 ****        -5.0000 -31.2500 -28.5000 Du        
   5664 ****        -5.0000 -31.0000 -29.2500 Du        
   5665 ****        -5.0000 -31.0000 -29.0000 Du        
   5666 ****        -5.0000 -31.0000 -28.7500 Du        
   5667 ****        -5.0000 -30.7500 -29.0000 Du        
   5668 ****        -5.0000 -30.7500 -28.7500 Du        
   5669 ****        -5.0000 -30.5000 -29.0000 Du        
   5670 ****        -5.0000 -30.5000 -28.7500 Du        
   5671 ****        -5.0000 -30.2500 -29.0000 Du        
   5672 ****        -5.0000 -30.0000 -29.0000 Du        
   5673 ****        -5.0000 -29.7500 -29.2500 Du        
   5674 ****        -5.0000 -29.7500 -29.0000 Du        
   5675 ****        -5.0000 -29.5000 -29.0000 Du        
   5676 ****        -5.0000 -29.2500 -29.2500 Du        
   5677 ****        -5.0000 -29.2500 -29.0000 Du        
   5678 ****        -5.0000 -29.0000 -29.7500 Du        
   5679 ****        -5.0000 -29.0000 -29.5000 Du        
   5680 ****        -5.0000 -29.0000 -29.2500 Du        
   5681 ****        -5.0000 -29.0000 -29.0000 Du        
   5682 ****        -5.0000 -28.7500 -30.0000 Du        
   5683 ****        -5.0000 -28.7500 -29.7500 Du        
   5684 ****        -5.0000 -28.7500 -29.5000 Du        
   5685 ****        -5.0000 -28.7500 -29.2500 Du        
   5686 ****        -5.0000 -28.7500 -29.0000 Du        
   5687 ****        -5.0000 -28.5000 -30.2500 Du        
   5688 ****        -5.0000 -28.5000 -30.0000 Du        
   5689 ****        -5.0000 -28.5000 -29.7500 Du        
   5690 ****        -5.0000 -28.5000 -29.5000 Du        
   5691 ****        -5.0000 -28.5000 -29.2500 Du        
   5692 ****        -5.0000 -28.5000 -29.0000 Du        
   5693 ****        -5.0000 -28.2500 -30.7500 Du        
   5694 ****        -5.0000 -28.2500 -30.5000 Du        
   5695 ****        -5.0000 -28.2500 -30.2500 Du        
   5696 ****        -5.0000 -28.2500 -30.0000 Du        
   5697 ****        -5.0000 -28.2500 -29.7500 Du        
   5698 ****        -5.0000 -28.2500 -29.5000 Du        
   5699 ****        -5.0000 -28.2500 -29.2500 Du        
   5700 ****        -5.0000 -28.2500 -29.0000 Du        
   5701 ****        -5.0000 -28.0000 -31.0000 Du        
   5702 ****        -5.0000 -28.0000 -30.7500 Du        
   5703 ****        -5.0000 -28.0000 -30.5000 Du        
   5704 ****        -5.0000 -28.0000 -30.2500 Du        
   5705 ****        -5.0000 -28.0000 -30.0000 Du        
   5706 ****        -5.0000 -28.0000 -29.7500 Du        
   5707 ****        -5.0000 -28.0000 -29.5000 Du        
   5708 ****        -5.0000 -28.0000 -29.2500 Du        
   5709 ****        -5.0000 -28.0000 -29.0000 Du        
   5710 ****        -5.0000 -27.7500 -31.0000 Du        
   5711 ****        -5.0000 -27.7500 -30.7500 Du        
   5712 ****        -5.0000 -27.7500 -30.5000 Du        
   5713 ****        -5.0000 -27.7500 -30.2500 Du        
   5714 ****        -5.0000 -27.7500 -30.0000 Du        
   5715 ****        -5.0000 -27.7500 -29.7500 Du        
   5716 ****        -5.0000 -27.7500 -29.5000 Du        
   5717 ****        -5.0000 -27.7500 -29.2500 Du        
   5718 ****        -5.0000 -27.7500 -29.0000 Du        
   5719 ****        -5.0000 -27.5000 -30.7500 Du        
   5720 ****        -5.0000 -27.5000 -30.5000 Du        
   5721 ****        -5.0000 -27.5000 -30.2500 Du        
   5722 ****        -5.0000 -27.5000 -30.0000 Du        
   5723 ****        -5.0000 -27.5000 -29.7500 Du        
   5724 ****        -5.0000 -27.5000 -29.5000 Du        
   5725 ****        -5.0000 -27.5000 -29.2500 Du        
   5726 ****        -5.0000 -27.5000 -29.0000 Du        
   5727 ****        -5.0000 -27.2500 -30.2500 Du        
   5728 ****        -5.0000 -27.2500 -30.0000 Du        
   5729 ****        -5.0000 -27.2500 -29.7500 Du        
   5730 ****        -5.0000 -27.2500 -29.5000 Du        
   5731 ****        -5.0000 -27.2500 -29.2500 Du        
   5732 ****        -5.0000 -27.2500 -29.0000 Du        
   5733 ****        -5.0000 -27.0000 -30.2500 Du        
   5734 ****        -5.0000 -27.0000 -30.0000 Du        
   5735 ****        -5.0000 -27.0000 -29.7500 Du        
   5736 ****        -5.0000 -27.0000 -29.5000 Du        
   5737 ****        -5.0000 -27.0000 -29.2500 Du        
   5738 ****        -5.0000 -27.0000 -29.0000 Du        
   5739 ****        -5.0000 -27.0000 -28.7500 Du        
   5740 ****        -5.0000 -26.7500 -30.0000 Du        
   5741 ****        -5.0000 -26.7500 -29.7500 Du        
   5742 ****        -5.0000 -26.7500 -29.5000 Du        
   5743 ****        -5.0000 -26.7500 -29.2500 Du        
   5744 ****        -5.0000 -26.7500 -29.0000 Du        
   5745 ****        -5.0000 -26.7500 -28.7500 Du        
   5746 ****        -5.0000 -26.7500 -28.5000 Du        
   5747 ****        -5.0000 -26.7500 -28.2500 Du        
   5748 ****        -5.0000 -26.5000 -29.7500 Du        
   5749 ****        -5.0000 -26.5000 -29.5000 Du        
   5750 ****        -5.0000 -26.5000 -29.2500 Du        
   5751 ****        -5.0000 -26.5000 -29.0000 Du        
   5752 ****        -5.0000 -26.5000 -28.7500 Du        
   5753 ****        -5.0000 -26.5000 -28.5000 Du        
   5754 ****        -5.0000 -26.5000 -28.2500 Du        
   5755 ****        -5.0000 -26.2500 -29.7500 Du        
   5756 ****        -5.0000 -26.2500 -29.5000 Du        
   5757 ****        -5.0000 -26.2500 -29.2500 Du        
   5758 ****        -5.0000 -26.2500 -29.0000 Du        
   5759 ****        -5.0000 -26.2500 -28.7500 Du        
   5760 ****        -5.0000 -26.2500 -28.5000 Du        
   5761 ****        -5.0000 -26.2500 -28.2500 Du        
   5762 ****        -5.0000 -26.2500 -28.0000 Du        
   5763 ****        -5.0000 -26.0000 -29.5000 Du        
   5764 ****        -5.0000 -26.0000 -29.2500 Du        
   5765 ****        -5.0000 -26.0000 -29.0000 Du        
   5766 ****        -5.0000 -26.0000 -28.7500 Du        
   5767 ****        -5.0000 -26.0000 -28.5000 Du        
   5768 ****        -5.0000 -26.0000 -28.2500 Du        
   5769 ****        -5.0000 -26.0000 -28.0000 Du        
   5770 ****        -5.0000 -25.7500 -29.5000 Du        
   5771 ****        -5.0000 -25.7500 -29.2500 Du        
   5772 ****        -5.0000 -25.7500 -29.0000 Du        
   5773 ****        -5.0000 -25.7500 -28.7500 Du        
   5774 ****        -5.0000 -25.7500 -28.5000 Du        
   5775 ****        -5.0000 -25.7500 -28.2500 Du        
   5776 ****        -5.0000 -25.7500 -28.0000 Du        
   5777 ****        -5.0000 -25.7500 -27.7500 Du        
   5778 ****        -5.0000 -25.5000 -29.2500 Du        
   5779 ****        -5.0000 -25.5000 -29.0000 Du        
   5780 ****        -5.0000 -25.5000 -28.7500 Du        
   5781 ****        -5.0000 -25.5000 -28.5000 Du        
   5782 ****        -5.0000 -25.5000 -28.2500 Du        
   5783 ****        -5.0000 -25.5000 -28.0000 Du        
   5784 ****        -5.0000 -25.2500 -29.2500 Du        
   5785 ****        -5.0000 -25.2500 -29.0000 Du        
   5786 ****        -5.0000 -25.2500 -28.7500 Du        
   5787 ****        -5.0000 -25.2500 -28.5000 Du        
   5788 ****        -5.0000 -25.2500 -28.2500 Du        
   5789 ****        -5.0000 -25.2500 -28.0000 Du        
   5790 ****        -5.0000 -25.0000 -29.2500 Du        
   5791 ****        -5.0000 -25.0000 -29.0000 Du        
   5792 ****        -5.0000 -25.0000 -28.7500 Du        
   5793 ****        -5.0000 -25.0000 -28.5000 Du        
   5794 ****        -5.0000 -25.0000 -28.2500 Du        
   5795 ****        -5.0000 -25.0000 -28.0000 Du        
   5796 ****        -5.0000 -24.7500 -29.2500 Du        
   5797 ****        -5.0000 -24.7500 -29.0000 Du        
   5798 ****        -5.0000 -24.7500 -28.7500 Du        
   5799 ****        -5.0000 -24.5000 -29.2500 Du        
   5800 ****        -5.0000 -24.5000 -29.0000 Du        
   5801 ****        -5.0000 -19.0000 -23.5000 Du        
   5802 ****        -5.0000 -19.0000 -23.2500 Du        
   5803 ****        -5.0000 -18.7500 -28.0000 Du        
   5804 ****        -5.0000 -18.7500 -23.5000 Du        
   5805 ****        -5.0000 -18.7500 -23.2500 Du        
   5806 ****        -5.0000 -18.5000 -28.0000 Du        
   5807 ****        -5.0000 -18.5000 -23.2500 Du        
   5808 ****        -5.0000 -18.2500 -28.0000 Du        
   5809 ****        -5.0000 -18.2500 -27.7500 Du        
   5810 ****        -5.0000 -18.0000 -28.0000 Du        
   5811 ****        -5.0000 -18.0000 -27.7500 Du        
   5812 ****        -5.0000 -17.7500 -28.0000 Du        
   5813 ****        -5.0000 -17.7500 -27.7500 Du        
   5814 ****        -4.7500 -32.7500 -28.7500 Du        
   5815 ****        -4.7500 -32.7500 -28.5000 Du        
   5816 ****        -4.7500 -32.7500 -28.2500 Du        
   5817 ****        -4.7500 -32.5000 -29.0000 Du        
   5818 ****        -4.7500 -32.5000 -28.7500 Du        
   5819 ****        -4.7500 -32.5000 -28.5000 Du        
   5820 ****        -4.7500 -32.5000 -28.2500 Du        
   5821 ****        -4.7500 -32.5000 -28.0000 Du        
   5822 ****        -4.7500 -32.2500 -29.2500 Du        
   5823 ****        -4.7500 -32.2500 -29.0000 Du        
   5824 ****        -4.7500 -32.2500 -28.7500 Du        
   5825 ****        -4.7500 -32.2500 -28.5000 Du        
   5826 ****        -4.7500 -32.2500 -28.2500 Du        
   5827 ****        -4.7500 -32.2500 -28.0000 Du        
   5828 ****        -4.7500 -32.0000 -29.2500 Du        
   5829 ****        -4.7500 -32.0000 -29.0000 Du        
   5830 ****        -4.7500 -32.0000 -28.7500 Du        
   5831 ****        -4.7500 -32.0000 -28.5000 Du        
   5832 ****        -4.7500 -32.0000 -28.2500 Du        
   5833 ****        -4.7500 -32.0000 -28.0000 Du        
   5834 ****        -4.7500 -31.7500 -29.2500 Du        
   5835 ****        -4.7500 -31.7500 -29.0000 Du        
   5836 ****        -4.7500 -31.7500 -28.7500 Du        
   5837 ****        -4.7500 -31.7500 -28.5000 Du        
   5838 ****        -4.7500 -31.7500 -28.2500 Du        
   5839 ****        -4.7500 -31.5000 -29.2500 Du        
   5840 ****        -4.7500 -31.5000 -29.0000 Du        
   5841 ****        -4.7500 -31.5000 -28.7500 Du        
   5842 ****        -4.7500 -31.5000 -28.5000 Du        
   5843 ****        -4.7500 -31.5000 -28.2500 Du        
   5844 ****        -4.7500 -31.2500 -29.2500 Du        
   5845 ****        -4.7500 -31.2500 -29.0000 Du        
   5846 ****        -4.7500 -31.2500 -28.7500 Du        
   5847 ****        -4.7500 -31.2500 -28.5000 Du        
   5848 ****        -4.7500 -31.0000 -29.2500 Du        
   5849 ****        -4.7500 -31.0000 -29.0000 Du        
   5850 ****        -4.7500 -31.0000 -28.7500 Du        
   5851 ****        -4.7500 -31.0000 -28.5000 Du        
   5852 ****        -4.7500 -30.7500 -29.2500 Du        
   5853 ****        -4.7500 -30.7500 -29.0000 Du        
   5854 ****        -4.7500 -30.7500 -28.7500 Du        
   5855 ****        -4.7500 -30.5000 -29.0000 Du        
   5856 ****        -4.7500 -30.5000 -28.7500 Du        
   5857 ****        -4.7500 -30.2500 -29.0000 Du        
   5858 ****        -4.7500 -30.2500 -28.7500 Du        
   5859 ****        -4.7500 -30.0000 -29.2500 Du        
   5860 ****        -4.7500 -30.0000 -29.0000 Du        
   5861 ****        -4.7500 -29.7500 -29.2500 Du        
   5862 ****        -4.7500 -29.7500 -29.0000 Du        
   5863 ****        -4.7500 -29.5000 -29.2500 Du        
   5864 ****        -4.7500 -29.5000 -29.0000 Du        
   5865 ****        -4.7500 -29.2500 -29.2500 Du        
   5866 ****        -4.7500 -29.2500 -29.0000 Du        
   5867 ****        -4.7500 -29.0000 -29.7500 Du        
   5868 ****        -4.7500 -29.0000 -29.5000 Du        
   5869 ****        -4.7500 -29.0000 -29.2500 Du        
   5870 ****        -4.7500 -29.0000 -29.0000 Du        
   5871 ****        -4.7500 -28.7500 -30.0000 Du        
   5872 ****        -4.7500 -28.7500 -29.7500 Du        
   5873 ****        -4.7500 -28.7500 -29.5000 Du        
   5874 ****        -4.7500 -28.7500 -29.2500 Du        
   5875 ****        -4.7500 -28.7500 -29.0000 Du        
   5876 ****        -4.7500 -28.5000 -30.2500 Du        
   5877 ****        -4.7500 -28.5000 -30.0000 Du        
   5878 ****        -4.7500 -28.5000 -29.7500 Du        
   5879 ****        -4.7500 -28.5000 -29.5000 Du        
   5880 ****        -4.7500 -28.5000 -29.2500 Du        
   5881 ****        -4.7500 -28.5000 -29.0000 Du        
   5882 ****        -4.7500 -28.2500 -30.7500 Du        
   5883 ****        -4.7500 -28.2500 -30.5000 Du        
   5884 ****        -4.7500 -28.2500 -30.2500 Du        
   5885 ****        -4.7500 -28.2500 -30.0000 Du        
   5886 ****        -4.7500 -28.2500 -29.7500 Du        
   5887 ****        -4.7500 -28.2500 -29.5000 Du        
   5888 ****        -4.7500 -28.2500 -29.2500 Du        
   5889 ****        -4.7500 -28.2500 -29.0000 Du        
   5890 ****        -4.7500 -28.0000 -31.0000 Du        
   5891 ****        -4.7500 -28.0000 -30.7500 Du        
   5892 ****        -4.7500 -28.0000 -30.5000 Du        
   5893 ****        -4.7500 -28.0000 -30.2500 Du        
   5894 ****        -4.7500 -28.0000 -30.0000 Du        
   5895 ****        -4.7500 -28.0000 -29.7500 Du        
   5896 ****        -4.7500 -28.0000 -29.5000 Du        
   5897 ****        -4.7500 -28.0000 -29.2500 Du        
   5898 ****        -4.7500 -28.0000 -29.0000 Du        
   5899 ****        -4.7500 -27.7500 -31.0000 Du        
   5900 ****        -4.7500 -27.7500 -30.7500 Du        
   5901 ****        -4.7500 -27.7500 -30.5000 Du        
   5902 ****        -4.7500 -27.7500 -30.2500 Du        
   5903 ****        -4.7500 -27.7500 -30.0000 Du        
   5904 ****        -4.7500 -27.7500 -29.7500 Du        
   5905 ****        -4.7500 -27.7500 -29.5000 Du        
   5906 ****        -4.7500 -27.7500 -29.2500 Du        
   5907 ****        -4.7500 -27.7500 -29.0000 Du        
   5908 ****        -4.7500 -27.5000 -30.7500 Du        
   5909 ****        -4.7500 -27.5000 -30.5000 Du        
   5910 ****        -4.7500 -27.5000 -30.2500 Du        
   5911 ****        -4.7500 -27.5000 -30.0000 Du        
   5912 ****        -4.7500 -27.5000 -29.7500 Du        
   5913 ****        -4.7500 -27.5000 -29.5000 Du        
   5914 ****        -4.7500 -27.5000 -29.2500 Du        
   5915 ****        -4.7500 -27.5000 -29.0000 Du        
   5916 ****        -4.7500 -27.5000 -28.7500 Du        
   5917 ****        -4.7500 -27.2500 -30.2500 Du        
   5918 ****        -4.7500 -27.2500 -30.0000 Du        
   5919 ****        -4.7500 -27.2500 -29.7500 Du        
   5920 ****        -4.7500 -27.2500 -29.5000 Du        
   5921 ****        -4.7500 -27.2500 -29.2500 Du        
   5922 ****        -4.7500 -27.2500 -29.0000 Du        
   5923 ****        -4.7500 -27.2500 -28.7500 Du        
   5924 ****        -4.7500 -27.0000 -30.2500 Du        
   5925 ****        -4.7500 -27.0000 -30.0000 Du        
   5926 ****        -4.7500 -27.0000 -29.7500 Du        
   5927 ****        -4.7500 -27.0000 -29.5000 Du        
   5928 ****        -4.7500 -27.0000 -29.2500 Du        
   5929 ****        -4.7500 -27.0000 -29.0000 Du        
   5930 ****        -4.7500 -27.0000 -28.7500 Du        
   5931 ****        -4.7500 -26.7500 -30.0000 Du        
   5932 ****        -4.7500 -26.7500 -29.7500 Du        
   5933 ****        -4.7500 -26.7500 -29.5000 Du        
   5934 ****        -4.7500 -26.7500 -29.2500 Du        
   5935 ****        -4.7500 -26.7500 -29.0000 Du        
   5936 ****        -4.7500 -26.7500 -28.7500 Du        
   5937 ****        -4.7500 -26.7500 -28.5000 Du        
   5938 ****        -4.7500 -26.7500 -28.2500 Du        
   5939 ****        -4.7500 -26.5000 -29.7500 Du        
   5940 ****        -4.7500 -26.5000 -29.5000 Du        
   5941 ****        -4.7500 -26.5000 -29.2500 Du        
   5942 ****        -4.7500 -26.5000 -29.0000 Du        
   5943 ****        -4.7500 -26.5000 -28.7500 Du        
   5944 ****        -4.7500 -26.5000 -28.5000 Du        
   5945 ****        -4.7500 -26.5000 -28.2500 Du        
   5946 ****        -4.7500 -26.5000 -28.0000 Du        
   5947 ****        -4.7500 -26.2500 -29.7500 Du        
   5948 ****        -4.7500 -26.2500 -29.5000 Du        
   5949 ****        -4.7500 -26.2500 -29.2500 Du        
   5950 ****        -4.7500 -26.2500 -29.0000 Du        
   5951 ****        -4.7500 -26.2500 -28.7500 Du        
   5952 ****        -4.7500 -26.2500 -28.5000 Du        
   5953 ****        -4.7500 -26.2500 -28.2500 Du        
   5954 ****        -4.7500 -26.2500 -28.0000 Du        
   5955 ****        -4.7500 -26.0000 -29.5000 Du        
   5956 ****        -4.7500 -26.0000 -29.2500 Du        
   5957 ****        -4.7500 -26.0000 -29.0000 Du        
   5958 ****        -4.7500 -26.0000 -28.7500 Du        
   5959 ****        -4.7500 -26.0000 -28.5000 Du        
   5960 ****        -4.7500 -26.0000 -28.2500 Du        
   5961 ****        -4.7500 -26.0000 -28.0000 Du        
   5962 ****        -4.7500 -25.7500 -29.5000 Du        
   5963 ****        -4.7500 -25.7500 -29.2500 Du        
   5964 ****        -4.7500 -25.7500 -29.0000 Du        
   5965 ****        -4.7500 -25.7500 -28.7500 Du        
   5966 ****        -4.7500 -25.7500 -28.5000 Du        
   5967 ****        -4.7500 -25.7500 -28.2500 Du        
   5968 ****        -4.7500 -25.7500 -28.0000 Du        
   5969 ****        -4.7500 -25.5000 -29.5000 Du        
   5970 ****        -4.7500 -25.5000 -29.2500 Du        
   5971 ****        -4.7500 -25.5000 -29.0000 Du        
   5972 ****        -4.7500 -25.5000 -28.7500 Du        
   5973 ****        -4.7500 -25.5000 -28.5000 Du        
   5974 ****        -4.7500 -25.5000 -28.2500 Du        
   5975 ****        -4.7500 -25.5000 -28.0000 Du        
   5976 ****        -4.7500 -25.2500 -29.2500 Du        
   5977 ****        -4.7500 -25.2500 -29.0000 Du        
   5978 ****        -4.7500 -25.2500 -28.7500 Du        
   5979 ****        -4.7500 -25.2500 -28.5000 Du        
   5980 ****        -4.7500 -25.2500 -28.2500 Du        
   5981 ****        -4.7500 -25.2500 -28.0000 Du        
   5982 ****        -4.7500 -25.0000 -29.2500 Du        
   5983 ****        -4.7500 -25.0000 -29.0000 Du        
   5984 ****        -4.7500 -25.0000 -28.7500 Du        
   5985 ****        -4.7500 -24.7500 -29.2500 Du        
   5986 ****        -4.7500 -24.7500 -29.0000 Du        
   5987 ****        -4.7500 -19.2500 -23.2500 Du        
   5988 ****        -4.7500 -19.0000 -23.5000 Du        
   5989 ****        -4.7500 -19.0000 -23.2500 Du        
   5990 ****        -4.7500 -19.0000 -23.0000 Du        
   5991 ****        -4.7500 -18.7500 -23.5000 Du        
   5992 ****        -4.7500 -18.7500 -23.2500 Du        
   5993 ****        -4.7500 -18.7500 -23.0000 Du        
   5994 ****        -4.7500 -18.5000 -23.2500 Du        
   5995 ****        -4.7500 -18.5000 -23.0000 Du        
   5996 ****        -4.7500 -18.2500 -23.2500 Du        
   5997 ****        -4.7500 -18.2500 -23.0000 Du        
   5998 ****        -4.7500 -18.0000 -27.7500 Du        
   5999 ****        -4.7500 -17.7500 -28.0000 Du        
   6000 ****        -4.5000 -33.2500 -28.7500 Du        
   6001 ****        -4.5000 -33.2500 -28.5000 Du        
   6002 ****        -4.5000 -33.2500 -28.2500 Du        
   6003 ****        -4.5000 -33.0000 -29.0000 Du        
   6004 ****        -4.5000 -33.0000 -28.7500 Du        
   6005 ****        -4.5000 -33.0000 -28.5000 Du        
   6006 ****        -4.5000 -33.0000 -28.2500 Du        
   6007 ****        -4.5000 -33.0000 -28.0000 Du        
   6008 ****        -4.5000 -33.0000 -27.7500 Du        
   6009 ****        -4.5000 -32.7500 -29.0000 Du        
   6010 ****        -4.5000 -32.7500 -28.7500 Du        
   6011 ****        -4.5000 -32.7500 -28.5000 Du        
   6012 ****        -4.5000 -32.7500 -28.2500 Du        
   6013 ****        -4.5000 -32.7500 -28.0000 Du        
   6014 ****        -4.5000 -32.7500 -27.7500 Du        
   6015 ****        -4.5000 -32.5000 -29.0000 Du        
   6016 ****        -4.5000 -32.5000 -28.7500 Du        
   6017 ****        -4.5000 -32.5000 -28.5000 Du        
   6018 ****        -4.5000 -32.5000 -28.2500 Du        
   6019 ****        -4.5000 -32.5000 -28.0000 Du        
   6020 ****        -4.5000 -32.5000 -27.7500 Du        
   6021 ****        -4.5000 -32.2500 -29.2500 Du        
   6022 ****        -4.5000 -32.2500 -29.0000 Du        
   6023 ****        -4.5000 -32.2500 -28.7500 Du        
   6024 ****        -4.5000 -32.2500 -28.5000 Du        
   6025 ****        -4.5000 -32.2500 -28.2500 Du        
   6026 ****        -4.5000 -32.2500 -28.0000 Du        
   6027 ****        -4.5000 -32.2500 -27.7500 Du        
   6028 ****        -4.5000 -32.0000 -29.2500 Du        
   6029 ****        -4.5000 -32.0000 -29.0000 Du        
   6030 ****        -4.5000 -32.0000 -28.7500 Du        
   6031 ****        -4.5000 -32.0000 -28.5000 Du        
   6032 ****        -4.5000 -32.0000 -28.2500 Du        
   6033 ****        -4.5000 -32.0000 -28.0000 Du        
   6034 ****        -4.5000 -31.7500 -29.2500 Du        
   6035 ****        -4.5000 -31.7500 -29.0000 Du        
   6036 ****        -4.5000 -31.7500 -28.7500 Du        
   6037 ****        -4.5000 -31.7500 -28.5000 Du        
   6038 ****        -4.5000 -31.7500 -28.2500 Du        
   6039 ****        -4.5000 -31.5000 -29.2500 Du        
   6040 ****        -4.5000 -31.5000 -29.0000 Du        
   6041 ****        -4.5000 -31.5000 -28.7500 Du        
   6042 ****        -4.5000 -31.5000 -28.5000 Du        
   6043 ****        -4.5000 -31.2500 -29.2500 Du        
   6044 ****        -4.5000 -31.2500 -29.0000 Du        
   6045 ****        -4.5000 -31.2500 -28.7500 Du        
   6046 ****        -4.5000 -31.2500 -28.5000 Du        
   6047 ****        -4.5000 -31.0000 -29.2500 Du        
   6048 ****        -4.5000 -31.0000 -29.0000 Du        
   6049 ****        -4.5000 -31.0000 -28.7500 Du        
   6050 ****        -4.5000 -30.7500 -29.2500 Du        
   6051 ****        -4.5000 -30.7500 -29.0000 Du        
   6052 ****        -4.5000 -30.7500 -28.7500 Du        
   6053 ****        -4.5000 -30.5000 -29.0000 Du        
   6054 ****        -4.5000 -30.5000 -28.7500 Du        
   6055 ****        -4.5000 -30.2500 -29.0000 Du        
   6056 ****        -4.5000 -30.0000 -29.2500 Du        
   6057 ****        -4.5000 -30.0000 -29.0000 Du        
   6058 ****        -4.5000 -29.7500 -29.2500 Du        
   6059 ****        -4.5000 -29.7500 -29.0000 Du        
   6060 ****        -4.5000 -29.5000 -29.2500 Du        
   6061 ****        -4.5000 -29.2500 -29.5000 Du        
   6062 ****        -4.5000 -29.2500 -29.2500 Du        
   6063 ****        -4.5000 -29.2500 -29.0000 Du        
   6064 ****        -4.5000 -29.0000 -29.7500 Du        
   6065 ****        -4.5000 -29.0000 -29.5000 Du        
   6066 ****        -4.5000 -29.0000 -29.2500 Du        
   6067 ****        -4.5000 -29.0000 -29.0000 Du        
   6068 ****        -4.5000 -28.7500 -30.0000 Du        
   6069 ****        -4.5000 -28.7500 -29.7500 Du        
   6070 ****        -4.5000 -28.7500 -29.5000 Du        
   6071 ****        -4.5000 -28.7500 -29.2500 Du        
   6072 ****        -4.5000 -28.7500 -29.0000 Du        
   6073 ****        -4.5000 -28.5000 -30.2500 Du        
   6074 ****        -4.5000 -28.5000 -30.0000 Du        
   6075 ****        -4.5000 -28.5000 -29.7500 Du        
   6076 ****        -4.5000 -28.5000 -29.5000 Du        
   6077 ****        -4.5000 -28.5000 -29.2500 Du        
   6078 ****        -4.5000 -28.2500 -30.7500 Du        
   6079 ****        -4.5000 -28.2500 -30.5000 Du        
   6080 ****        -4.5000 -28.2500 -30.2500 Du        
   6081 ****        -4.5000 -28.2500 -30.0000 Du        
   6082 ****        -4.5000 -28.2500 -29.7500 Du        
   6083 ****        -4.5000 -28.2500 -29.5000 Du        
   6084 ****        -4.5000 -28.2500 -29.2500 Du        
   6085 ****        -4.5000 -28.0000 -30.7500 Du        
   6086 ****        -4.5000 -28.0000 -30.5000 Du        
   6087 ****        -4.5000 -28.0000 -30.2500 Du        
   6088 ****        -4.5000 -28.0000 -30.0000 Du        
   6089 ****        -4.5000 -28.0000 -29.7500 Du        
   6090 ****        -4.5000 -28.0000 -29.5000 Du        
   6091 ****        -4.5000 -28.0000 -29.2500 Du        
   6092 ****        -4.5000 -28.0000 -29.0000 Du        
   6093 ****        -4.5000 -27.7500 -30.7500 Du        
   6094 ****        -4.5000 -27.7500 -30.5000 Du        
   6095 ****        -4.5000 -27.7500 -30.2500 Du        
   6096 ****        -4.5000 -27.7500 -30.0000 Du        
   6097 ****        -4.5000 -27.7500 -29.7500 Du        
   6098 ****        -4.5000 -27.7500 -29.5000 Du        
   6099 ****        -4.5000 -27.7500 -29.2500 Du        
   6100 ****        -4.5000 -27.7500 -29.0000 Du        
   6101 ****        -4.5000 -27.5000 -30.2500 Du        
   6102 ****        -4.5000 -27.5000 -30.0000 Du        
   6103 ****        -4.5000 -27.5000 -29.7500 Du        
   6104 ****        -4.5000 -27.5000 -29.5000 Du        
   6105 ****        -4.5000 -27.5000 -29.2500 Du        
   6106 ****        -4.5000 -27.5000 -29.0000 Du        
   6107 ****        -4.5000 -27.2500 -30.2500 Du        
   6108 ****        -4.5000 -27.2500 -30.0000 Du        
   6109 ****        -4.5000 -27.2500 -29.7500 Du        
   6110 ****        -4.5000 -27.2500 -29.5000 Du        
   6111 ****        -4.5000 -27.2500 -29.2500 Du        
   6112 ****        -4.5000 -27.2500 -29.0000 Du        
   6113 ****        -4.5000 -27.2500 -28.7500 Du        
   6114 ****        -4.5000 -27.0000 -30.0000 Du        
   6115 ****        -4.5000 -27.0000 -29.7500 Du        
   6116 ****        -4.5000 -27.0000 -29.5000 Du        
   6117 ****        -4.5000 -27.0000 -29.2500 Du        
   6118 ****        -4.5000 -27.0000 -29.0000 Du        
   6119 ****        -4.5000 -27.0000 -28.7500 Du        
   6120 ****        -4.5000 -26.7500 -30.0000 Du        
   6121 ****        -4.5000 -26.7500 -29.7500 Du        
   6122 ****        -4.5000 -26.7500 -29.5000 Du        
   6123 ****        -4.5000 -26.7500 -29.2500 Du        
   6124 ****        -4.5000 -26.7500 -29.0000 Du        
   6125 ****        -4.5000 -26.7500 -28.7500 Du        
   6126 ****        -4.5000 -26.7500 -28.5000 Du        
   6127 ****        -4.5000 -26.7500 -28.2500 Du        
   6128 ****        -4.5000 -26.5000 -29.7500 Du        
   6129 ****        -4.5000 -26.5000 -29.5000 Du        
   6130 ****        -4.5000 -26.5000 -29.2500 Du        
   6131 ****        -4.5000 -26.5000 -29.0000 Du        
   6132 ****        -4.5000 -26.5000 -28.7500 Du        
   6133 ****        -4.5000 -26.5000 -28.5000 Du        
   6134 ****        -4.5000 -26.5000 -28.2500 Du        
   6135 ****        -4.5000 -26.2500 -29.7500 Du        
   6136 ****        -4.5000 -26.2500 -29.5000 Du        
   6137 ****        -4.5000 -26.2500 -29.2500 Du        
   6138 ****        -4.5000 -26.2500 -29.0000 Du        
   6139 ****        -4.5000 -26.2500 -28.7500 Du        
   6140 ****        -4.5000 -26.2500 -28.5000 Du        
   6141 ****        -4.5000 -26.2500 -28.2500 Du        
   6142 ****        -4.5000 -26.2500 -28.0000 Du        
   6143 ****        -4.5000 -26.0000 -29.7500 Du        
   6144 ****        -4.5000 -26.0000 -29.5000 Du        
   6145 ****        -4.5000 -26.0000 -29.2500 Du        
   6146 ****        -4.5000 -26.0000 -29.0000 Du        
   6147 ****        -4.5000 -26.0000 -28.7500 Du        
   6148 ****        -4.5000 -26.0000 -28.5000 Du        
   6149 ****        -4.5000 -26.0000 -28.2500 Du        
   6150 ****        -4.5000 -26.0000 -28.0000 Du        
   6151 ****        -4.5000 -25.7500 -29.5000 Du        
   6152 ****        -4.5000 -25.7500 -29.2500 Du        
   6153 ****        -4.5000 -25.7500 -29.0000 Du        
   6154 ****        -4.5000 -25.7500 -28.7500 Du        
   6155 ****        -4.5000 -25.7500 -28.5000 Du        
   6156 ****        -4.5000 -25.7500 -28.2500 Du        
   6157 ****        -4.5000 -25.7500 -28.0000 Du        
   6158 ****        -4.5000 -25.5000 -29.5000 Du        
   6159 ****        -4.5000 -25.5000 -29.2500 Du        
   6160 ****        -4.5000 -25.5000 -29.0000 Du        
   6161 ****        -4.5000 -25.5000 -28.7500 Du        
   6162 ****        -4.5000 -25.5000 -28.5000 Du        
   6163 ****        -4.5000 -25.5000 -28.2500 Du        
   6164 ****        -4.5000 -25.5000 -28.0000 Du        
   6165 ****        -4.5000 -25.2500 -29.5000 Du        
   6166 ****        -4.5000 -25.2500 -29.2500 Du        
   6167 ****        -4.5000 -25.2500 -29.0000 Du        
   6168 ****        -4.5000 -25.2500 -28.7500 Du        
   6169 ****        -4.5000 -25.2500 -28.5000 Du        
   6170 ****        -4.5000 -25.0000 -29.5000 Du        
   6171 ****        -4.5000 -25.0000 -29.2500 Du        
   6172 ****        -4.5000 -25.0000 -29.0000 Du        
   6173 ****        -4.5000 -19.7500 -23.2500 Du        
   6174 ****        -4.5000 -19.7500 -23.0000 Du        
   6175 ****        -4.5000 -19.5000 -23.2500 Du        
   6176 ****        -4.5000 -19.5000 -23.0000 Du        
   6177 ****        -4.5000 -19.2500 -23.2500 Du        
   6178 ****        -4.5000 -19.2500 -23.0000 Du        
   6179 ****        -4.5000 -19.2500 -22.7500 Du        
   6180 ****        -4.5000 -19.0000 -23.2500 Du        
   6181 ****        -4.5000 -19.0000 -23.0000 Du        
   6182 ****        -4.5000 -19.0000 -22.7500 Du        
   6183 ****        -4.5000 -18.7500 -23.2500 Du        
   6184 ****        -4.5000 -18.7500 -23.0000 Du        
   6185 ****        -4.5000 -18.7500 -22.7500 Du        
   6186 ****        -4.5000 -18.5000 -23.2500 Du        
   6187 ****        -4.5000 -18.5000 -23.0000 Du        
   6188 ****        -4.5000 -18.5000 -22.7500 Du        
   6189 ****        -4.5000 -18.2500 -23.0000 Du        
   6190 ****        -4.5000 -18.2500 -22.7500 Du        
   6191 ****        -4.5000 -18.2500 -22.5000 Du        
   6192 ****        -4.5000 -18.0000 -22.5000 Du        
   6193 ****        -4.5000 -17.2500 -27.7500 Du        
   6194 ****        -4.5000 -17.0000 -27.7500 Du        
   6195 ****        -4.2500 -34.0000 -28.2500 Du        
   6196 ****        -4.2500 -34.0000 -28.0000 Du        
   6197 ****        -4.2500 -33.7500 -28.7500 Du        
   6198 ****        -4.2500 -33.7500 -28.5000 Du        
   6199 ****        -4.2500 -33.7500 -28.2500 Du        
   6200 ****        -4.2500 -33.7500 -28.0000 Du        
   6201 ****        -4.2500 -33.7500 -27.7500 Du        
   6202 ****        -4.2500 -33.5000 -28.7500 Du        
   6203 ****        -4.2500 -33.5000 -28.5000 Du        
   6204 ****        -4.2500 -33.5000 -28.2500 Du        
   6205 ****        -4.2500 -33.5000 -28.0000 Du        
   6206 ****        -4.2500 -33.5000 -27.7500 Du        
   6207 ****        -4.2500 -33.2500 -29.0000 Du        
   6208 ****        -4.2500 -33.2500 -28.7500 Du        
   6209 ****        -4.2500 -33.2500 -28.5000 Du        
   6210 ****        -4.2500 -33.2500 -28.2500 Du        
   6211 ****        -4.2500 -33.2500 -28.0000 Du        
   6212 ****        -4.2500 -33.2500 -27.7500 Du        
   6213 ****        -4.2500 -33.2500 -27.5000 Du        
   6214 ****        -4.2500 -33.0000 -29.0000 Du        
   6215 ****        -4.2500 -33.0000 -28.7500 Du        
   6216 ****        -4.2500 -33.0000 -28.5000 Du        
   6217 ****        -4.2500 -33.0000 -28.2500 Du        
   6218 ****        -4.2500 -33.0000 -28.0000 Du        
   6219 ****        -4.2500 -33.0000 -27.7500 Du        
   6220 ****        -4.2500 -33.0000 -27.5000 Du        
   6221 ****        -4.2500 -33.0000 -27.2500 Du        
   6222 ****        -4.2500 -32.7500 -29.0000 Du        
   6223 ****        -4.2500 -32.7500 -28.7500 Du        
   6224 ****        -4.2500 -32.7500 -28.5000 Du        
   6225 ****        -4.2500 -32.7500 -28.2500 Du        
   6226 ****        -4.2500 -32.7500 -28.0000 Du        
   6227 ****        -4.2500 -32.7500 -27.7500 Du        
   6228 ****        -4.2500 -32.7500 -27.5000 Du        
   6229 ****        -4.2500 -32.7500 -27.2500 Du        
   6230 ****        -4.2500 -32.5000 -29.0000 Du        
   6231 ****        -4.2500 -32.5000 -28.7500 Du        
   6232 ****        -4.2500 -32.5000 -28.5000 Du        
   6233 ****        -4.2500 -32.5000 -28.2500 Du        
   6234 ****        -4.2500 -32.5000 -28.0000 Du        
   6235 ****        -4.2500 -32.5000 -27.7500 Du        
   6236 ****        -4.2500 -32.5000 -27.5000 Du        
   6237 ****        -4.2500 -32.2500 -29.0000 Du        
   6238 ****        -4.2500 -32.2500 -28.7500 Du        
   6239 ****        -4.2500 -32.2500 -28.5000 Du        
   6240 ****        -4.2500 -32.2500 -28.2500 Du        
   6241 ****        -4.2500 -32.2500 -28.0000 Du        
   6242 ****        -4.2500 -32.2500 -27.7500 Du        
   6243 ****        -4.2500 -32.0000 -29.2500 Du        
   6244 ****        -4.2500 -32.0000 -29.0000 Du        
   6245 ****        -4.2500 -32.0000 -28.7500 Du        
   6246 ****        -4.2500 -32.0000 -28.5000 Du        
   6247 ****        -4.2500 -32.0000 -28.2500 Du        
   6248 ****        -4.2500 -32.0000 -28.0000 Du        
   6249 ****        -4.2500 -32.0000 -27.7500 Du        
   6250 ****        -4.2500 -31.7500 -29.2500 Du        
   6251 ****        -4.2500 -31.7500 -29.0000 Du        
   6252 ****        -4.2500 -31.7500 -28.7500 Du        
   6253 ****        -4.2500 -31.7500 -28.5000 Du        
   6254 ****        -4.2500 -31.7500 -28.2500 Du        
   6255 ****        -4.2500 -31.7500 -28.0000 Du        
   6256 ****        -4.2500 -31.5000 -29.2500 Du        
   6257 ****        -4.2500 -31.5000 -29.0000 Du        
   6258 ****        -4.2500 -31.5000 -28.7500 Du        
   6259 ****        -4.2500 -31.5000 -28.5000 Du        
   6260 ****        -4.2500 -31.5000 -28.2500 Du        
   6261 ****        -4.2500 -31.2500 -29.2500 Du        
   6262 ****        -4.2500 -31.2500 -29.0000 Du        
   6263 ****        -4.2500 -31.2500 -28.7500 Du        
   6264 ****        -4.2500 -31.2500 -28.5000 Du        
   6265 ****        -4.2500 -31.0000 -29.2500 Du        
   6266 ****        -4.2500 -31.0000 -29.0000 Du        
   6267 ****        -4.2500 -31.0000 -28.7500 Du        
   6268 ****        -4.2500 -31.0000 -28.5000 Du        
   6269 ****        -4.2500 -30.7500 -29.2500 Du        
   6270 ****        -4.2500 -30.7500 -29.0000 Du        
   6271 ****        -4.2500 -30.7500 -28.7500 Du        
   6272 ****        -4.2500 -30.5000 -29.2500 Du        
   6273 ****        -4.2500 -30.5000 -29.0000 Du        
   6274 ****        -4.2500 -30.5000 -28.7500 Du        
   6275 ****        -4.2500 -30.2500 -29.2500 Du        
   6276 ****        -4.2500 -30.2500 -29.0000 Du        
   6277 ****        -4.2500 -30.2500 -28.7500 Du        
   6278 ****        -4.2500 -30.0000 -29.2500 Du        
   6279 ****        -4.2500 -30.0000 -29.0000 Du        
   6280 ****        -4.2500 -29.7500 -29.2500 Du        
   6281 ****        -4.2500 -29.7500 -29.0000 Du        
   6282 ****        -4.2500 -29.5000 -29.2500 Du        
   6283 ****        -4.2500 -29.2500 -29.7500 Du        
   6284 ****        -4.2500 -29.2500 -29.5000 Du        
   6285 ****        -4.2500 -29.2500 -29.2500 Du        
   6286 ****        -4.2500 -29.2500 -29.0000 Du        
   6287 ****        -4.2500 -29.0000 -30.0000 Du        
   6288 ****        -4.2500 -29.0000 -29.7500 Du        
   6289 ****        -4.2500 -29.0000 -29.5000 Du        
   6290 ****        -4.2500 -29.0000 -29.2500 Du        
   6291 ****        -4.2500 -29.0000 -29.0000 Du        
   6292 ****        -4.2500 -28.7500 -30.2500 Du        
   6293 ****        -4.2500 -28.7500 -30.0000 Du        
   6294 ****        -4.2500 -28.7500 -29.7500 Du        
   6295 ****        -4.2500 -28.7500 -29.5000 Du        
   6296 ****        -4.2500 -28.7500 -29.2500 Du        
   6297 ****        -4.2500 -28.7500 -29.0000 Du        
   6298 ****        -4.2500 -28.5000 -30.2500 Du        
   6299 ****        -4.2500 -28.5000 -30.0000 Du        
   6300 ****        -4.2500 -28.5000 -29.7500 Du        
   6301 ****        -4.2500 -28.5000 -29.5000 Du        
   6302 ****        -4.2500 -28.5000 -29.2500 Du        
   6303 ****        -4.2500 -28.2500 -30.2500 Du        
   6304 ****        -4.2500 -28.2500 -30.0000 Du        
   6305 ****        -4.2500 -28.2500 -29.7500 Du        
   6306 ****        -4.2500 -28.2500 -29.5000 Du        
   6307 ****        -4.2500 -28.2500 -29.2500 Du        
   6308 ****        -4.2500 -28.2500 -29.0000 Du        
   6309 ****        -4.2500 -28.0000 -30.2500 Du        
   6310 ****        -4.2500 -28.0000 -30.0000 Du        
   6311 ****        -4.2500 -28.0000 -29.7500 Du        
   6312 ****        -4.2500 -28.0000 -29.5000 Du        
   6313 ****        -4.2500 -28.0000 -29.2500 Du        
   6314 ****        -4.2500 -28.0000 -29.0000 Du        
   6315 ****        -4.2500 -27.7500 -30.2500 Du        
   6316 ****        -4.2500 -27.7500 -30.0000 Du        
   6317 ****        -4.2500 -27.7500 -29.7500 Du        
   6318 ****        -4.2500 -27.7500 -29.5000 Du        
   6319 ****        -4.2500 -27.7500 -29.2500 Du        
   6320 ****        -4.2500 -27.7500 -29.0000 Du        
   6321 ****        -4.2500 -27.5000 -30.0000 Du        
   6322 ****        -4.2500 -27.5000 -29.7500 Du        
   6323 ****        -4.2500 -27.5000 -29.5000 Du        
   6324 ****        -4.2500 -27.5000 -29.2500 Du        
   6325 ****        -4.2500 -27.5000 -29.0000 Du        
   6326 ****        -4.2500 -27.2500 -30.0000 Du        
   6327 ****        -4.2500 -27.2500 -29.7500 Du        
   6328 ****        -4.2500 -27.2500 -29.5000 Du        
   6329 ****        -4.2500 -27.2500 -29.2500 Du        
   6330 ****        -4.2500 -27.2500 -29.0000 Du        
   6331 ****        -4.2500 -27.2500 -28.7500 Du        
   6332 ****        -4.2500 -27.0000 -30.0000 Du        
   6333 ****        -4.2500 -27.0000 -29.7500 Du        
   6334 ****        -4.2500 -27.0000 -29.5000 Du        
   6335 ****        -4.2500 -27.0000 -29.2500 Du        
   6336 ****        -4.2500 -27.0000 -29.0000 Du        
   6337 ****        -4.2500 -27.0000 -28.7500 Du        
   6338 ****        -4.2500 -27.0000 -28.5000 Du        
   6339 ****        -4.2500 -27.0000 -28.2500 Du        
   6340 ****        -4.2500 -26.7500 -29.7500 Du        
   6341 ****        -4.2500 -26.7500 -29.5000 Du        
   6342 ****        -4.2500 -26.7500 -29.2500 Du        
   6343 ****        -4.2500 -26.7500 -29.0000 Du        
   6344 ****        -4.2500 -26.7500 -28.7500 Du        
   6345 ****        -4.2500 -26.7500 -28.5000 Du        
   6346 ****        -4.2500 -26.7500 -28.2500 Du        
   6347 ****        -4.2500 -26.7500 -28.0000 Du        
   6348 ****        -4.2500 -26.5000 -29.7500 Du        
   6349 ****        -4.2500 -26.5000 -29.5000 Du        
   6350 ****        -4.2500 -26.5000 -29.2500 Du        
   6351 ****        -4.2500 -26.5000 -29.0000 Du        
   6352 ****        -4.2500 -26.5000 -28.7500 Du        
   6353 ****        -4.2500 -26.5000 -28.5000 Du        
   6354 ****        -4.2500 -26.5000 -28.2500 Du        
   6355 ****        -4.2500 -26.5000 -28.0000 Du        
   6356 ****        -4.2500 -26.2500 -29.7500 Du        
   6357 ****        -4.2500 -26.2500 -29.5000 Du        
   6358 ****        -4.2500 -26.2500 -29.2500 Du        
   6359 ****        -4.2500 -26.2500 -29.0000 Du        
   6360 ****        -4.2500 -26.2500 -28.7500 Du        
   6361 ****        -4.2500 -26.2500 -28.5000 Du        
   6362 ****        -4.2500 -26.2500 -28.2500 Du        
   6363 ****        -4.2500 -26.2500 -28.0000 Du        
   6364 ****        -4.2500 -26.0000 -29.7500 Du        
   6365 ****        -4.2500 -26.0000 -29.5000 Du        
   6366 ****        -4.2500 -26.0000 -29.2500 Du        
   6367 ****        -4.2500 -26.0000 -29.0000 Du        
   6368 ****        -4.2500 -26.0000 -28.7500 Du        
   6369 ****        -4.2500 -26.0000 -28.5000 Du        
   6370 ****        -4.2500 -26.0000 -28.2500 Du        
   6371 ****        -4.2500 -26.0000 -28.0000 Du        
   6372 ****        -4.2500 -25.7500 -29.7500 Du        
   6373 ****        -4.2500 -25.7500 -29.5000 Du        
   6374 ****        -4.2500 -25.7500 -29.2500 Du        
   6375 ****        -4.2500 -25.7500 -29.0000 Du        
   6376 ****        -4.2500 -25.7500 -28.7500 Du        
   6377 ****        -4.2500 -25.7500 -28.5000 Du        
   6378 ****        -4.2500 -25.7500 -28.2500 Du        
   6379 ****        -4.2500 -25.7500 -28.0000 Du        
   6380 ****        -4.2500 -25.5000 -29.5000 Du        
   6381 ****        -4.2500 -25.5000 -29.2500 Du        
   6382 ****        -4.2500 -25.5000 -29.0000 Du        
   6383 ****        -4.2500 -25.5000 -28.7500 Du        
   6384 ****        -4.2500 -25.5000 -28.5000 Du        
   6385 ****        -4.2500 -25.5000 -28.2500 Du        
   6386 ****        -4.2500 -25.2500 -29.5000 Du        
   6387 ****        -4.2500 -25.2500 -29.2500 Du        
   6388 ****        -4.2500 -25.2500 -29.0000 Du        
   6389 ****        -4.2500 -25.2500 -28.7500 Du        
   6390 ****        -4.2500 -25.0000 -29.2500 Du        
   6391 ****        -4.2500 -25.0000 -29.0000 Du        
   6392 ****        -4.2500 -20.2500 -23.0000 Du        
   6393 ****        -4.2500 -20.2500 -22.7500 Du        
   6394 ****        -4.2500 -20.0000 -23.0000 Du        
   6395 ****        -4.2500 -20.0000 -22.7500 Du        
   6396 ****        -4.2500 -19.7500 -23.2500 Du        
   6397 ****        -4.2500 -19.7500 -23.0000 Du        
   6398 ****        -4.2500 -19.7500 -22.7500 Du        
   6399 ****        -4.2500 -19.5000 -23.2500 Du        
   6400 ****        -4.2500 -19.5000 -23.0000 Du        
   6401 ****        -4.2500 -19.5000 -22.7500 Du        
   6402 ****        -4.2500 -19.2500 -23.2500 Du        
   6403 ****        -4.2500 -19.2500 -23.0000 Du        
   6404 ****        -4.2500 -19.2500 -22.7500 Du        
   6405 ****        -4.2500 -19.2500 -22.5000 Du        
   6406 ****        -4.2500 -19.0000 -23.2500 Du        
   6407 ****        -4.2500 -19.0000 -23.0000 Du        
   6408 ****        -4.2500 -19.0000 -22.7500 Du        
   6409 ****        -4.2500 -19.0000 -22.5000 Du        
   6410 ****        -4.2500 -18.7500 -23.2500 Du        
   6411 ****        -4.2500 -18.7500 -23.0000 Du        
   6412 ****        -4.2500 -18.7500 -22.7500 Du        
   6413 ****        -4.2500 -18.7500 -22.5000 Du        
   6414 ****        -4.2500 -18.5000 -23.2500 Du        
   6415 ****        -4.2500 -18.5000 -23.0000 Du        
   6416 ****        -4.2500 -18.5000 -22.7500 Du        
   6417 ****        -4.2500 -18.5000 -22.5000 Du        
   6418 ****        -4.2500 -18.2500 -23.0000 Du        
   6419 ****        -4.2500 -18.2500 -22.7500 Du        
   6420 ****        -4.2500 -18.2500 -22.5000 Du        
   6421 ****        -4.2500 -18.2500 -22.2500 Du        
   6422 ****        -4.2500 -18.0000 -22.7500 Du        
   6423 ****        -4.2500 -18.0000 -22.5000 Du        
   6424 ****        -4.2500 -18.0000 -22.2500 Du        
   6425 ****        -4.2500 -17.2500 -27.7500 Du        
   6426 ****        -4.2500 -17.0000 -27.7500 Du        
   6427 ****        -4.0000 -34.5000 -28.2500 Du        
   6428 ****        -4.0000 -34.2500 -28.5000 Du        
   6429 ****        -4.0000 -34.2500 -28.2500 Du        
   6430 ****        -4.0000 -34.2500 -28.0000 Du        
   6431 ****        -4.0000 -34.0000 -28.7500 Du        
   6432 ****        -4.0000 -34.0000 -28.5000 Du        
   6433 ****        -4.0000 -34.0000 -28.2500 Du        
   6434 ****        -4.0000 -34.0000 -28.0000 Du        
   6435 ****        -4.0000 -34.0000 -27.7500 Du        
   6436 ****        -4.0000 -33.7500 -28.7500 Du        
   6437 ****        -4.0000 -33.7500 -28.5000 Du        
   6438 ****        -4.0000 -33.7500 -28.2500 Du        
   6439 ****        -4.0000 -33.7500 -28.0000 Du        
   6440 ****        -4.0000 -33.7500 -27.7500 Du        
   6441 ****        -4.0000 -33.5000 -29.0000 Du        
   6442 ****        -4.0000 -33.5000 -28.7500 Du        
   6443 ****        -4.0000 -33.5000 -28.5000 Du        
   6444 ****        -4.0000 -33.5000 -28.2500 Du        
   6445 ****        -4.0000 -33.5000 -28.0000 Du        
   6446 ****        -4.0000 -33.5000 -27.7500 Du        
   6447 ****        -4.0000 -33.5000 -27.5000 Du        
   6448 ****        -4.0000 -33.2500 -29.0000 Du        
   6449 ****        -4.0000 -33.2500 -28.7500 Du        
   6450 ****        -4.0000 -33.2500 -28.5000 Du        
   6451 ****        -4.0000 -33.2500 -28.2500 Du        
   6452 ****        -4.0000 -33.2500 -28.0000 Du        
   6453 ****        -4.0000 -33.2500 -27.7500 Du        
   6454 ****        -4.0000 -33.2500 -27.5000 Du        
   6455 ****        -4.0000 -33.2500 -27.2500 Du        
   6456 ****        -4.0000 -33.0000 -29.0000 Du        
   6457 ****        -4.0000 -33.0000 -28.7500 Du        
   6458 ****        -4.0000 -33.0000 -28.5000 Du        
   6459 ****        -4.0000 -33.0000 -28.2500 Du        
   6460 ****        -4.0000 -33.0000 -28.0000 Du        
   6461 ****        -4.0000 -33.0000 -27.7500 Du        
   6462 ****        -4.0000 -33.0000 -27.5000 Du        
   6463 ****        -4.0000 -33.0000 -27.2500 Du        
   6464 ****        -4.0000 -32.7500 -29.0000 Du        
   6465 ****        -4.0000 -32.7500 -28.7500 Du        
   6466 ****        -4.0000 -32.7500 -28.5000 Du        
   6467 ****        -4.0000 -32.7500 -28.2500 Du        
   6468 ****        -4.0000 -32.7500 -28.0000 Du        
   6469 ****        -4.0000 -32.7500 -27.7500 Du        
   6470 ****        -4.0000 -32.7500 -27.5000 Du        
   6471 ****        -4.0000 -32.7500 -27.2500 Du        
   6472 ****        -4.0000 -32.5000 -29.0000 Du        
   6473 ****        -4.0000 -32.5000 -28.7500 Du        
   6474 ****        -4.0000 -32.5000 -28.5000 Du        
   6475 ****        -4.0000 -32.5000 -28.2500 Du        
   6476 ****        -4.0000 -32.5000 -28.0000 Du        
   6477 ****        -4.0000 -32.5000 -27.7500 Du        
   6478 ****        -4.0000 -32.5000 -27.5000 Du        
   6479 ****        -4.0000 -32.5000 -27.2500 Du        
   6480 ****        -4.0000 -32.2500 -29.0000 Du        
   6481 ****        -4.0000 -32.2500 -28.7500 Du        
   6482 ****        -4.0000 -32.2500 -28.5000 Du        
   6483 ****        -4.0000 -32.2500 -28.2500 Du        
   6484 ****        -4.0000 -32.2500 -28.0000 Du        
   6485 ****        -4.0000 -32.2500 -27.7500 Du        
   6486 ****        -4.0000 -32.0000 -29.0000 Du        
   6487 ****        -4.0000 -32.0000 -28.7500 Du        
   6488 ****        -4.0000 -32.0000 -28.5000 Du        
   6489 ****        -4.0000 -32.0000 -28.2500 Du        
   6490 ****        -4.0000 -32.0000 -28.0000 Du        
   6491 ****        -4.0000 -32.0000 -27.7500 Du        
   6492 ****        -4.0000 -31.7500 -29.2500 Du        
   6493 ****        -4.0000 -31.7500 -29.0000 Du        
   6494 ****        -4.0000 -31.7500 -28.7500 Du        
   6495 ****        -4.0000 -31.7500 -28.5000 Du        
   6496 ****        -4.0000 -31.7500 -28.2500 Du        
   6497 ****        -4.0000 -31.7500 -28.0000 Du        
   6498 ****        -4.0000 -31.5000 -29.0000 Du        
   6499 ****        -4.0000 -31.5000 -28.7500 Du        
   6500 ****        -4.0000 -31.5000 -28.5000 Du        
   6501 ****        -4.0000 -31.5000 -28.2500 Du        
   6502 ****        -4.0000 -31.2500 -29.2500 Du        
   6503 ****        -4.0000 -31.2500 -29.0000 Du        
   6504 ****        -4.0000 -31.2500 -28.7500 Du        
   6505 ****        -4.0000 -31.2500 -28.5000 Du        
   6506 ****        -4.0000 -31.2500 -28.2500 Du        
   6507 ****        -4.0000 -31.0000 -29.2500 Du        
   6508 ****        -4.0000 -31.0000 -29.0000 Du        
   6509 ****        -4.0000 -31.0000 -28.7500 Du        
   6510 ****        -4.0000 -31.0000 -28.5000 Du        
   6511 ****        -4.0000 -30.7500 -29.2500 Du        
   6512 ****        -4.0000 -30.7500 -29.0000 Du        
   6513 ****        -4.0000 -30.7500 -28.7500 Du        
   6514 ****        -4.0000 -30.5000 -29.2500 Du        
   6515 ****        -4.0000 -30.5000 -29.0000 Du        
   6516 ****        -4.0000 -30.5000 -28.7500 Du        
   6517 ****        -4.0000 -30.2500 -29.2500 Du        
   6518 ****        -4.0000 -30.2500 -29.0000 Du        
   6519 ****        -4.0000 -30.2500 -28.7500 Du        
   6520 ****        -4.0000 -30.0000 -29.5000 Du        
   6521 ****        -4.0000 -30.0000 -29.2500 Du        
   6522 ****        -4.0000 -30.0000 -29.0000 Du        
   6523 ****        -4.0000 -29.7500 -29.7500 Du        
   6524 ****        -4.0000 -29.7500 -29.5000 Du        
   6525 ****        -4.0000 -29.7500 -29.2500 Du        
   6526 ****        -4.0000 -29.7500 -29.0000 Du        
   6527 ****        -4.0000 -29.5000 -29.7500 Du        
   6528 ****        -4.0000 -29.5000 -29.5000 Du        
   6529 ****        -4.0000 -29.5000 -29.2500 Du        
   6530 ****        -4.0000 -29.5000 -29.0000 Du        
   6531 ****        -4.0000 -29.2500 -30.0000 Du        
   6532 ****        -4.0000 -29.2500 -29.7500 Du        
   6533 ****        -4.0000 -29.2500 -29.5000 Du        
   6534 ****        -4.0000 -29.2500 -29.2500 Du        
   6535 ****        -4.0000 -29.2500 -29.0000 Du        
   6536 ****        -4.0000 -29.0000 -30.2500 Du        
   6537 ****        -4.0000 -29.0000 -30.0000 Du        
   6538 ****        -4.0000 -29.0000 -29.7500 Du        
   6539 ****        -4.0000 -29.0000 -29.5000 Du        
   6540 ****        -4.0000 -29.0000 -29.2500 Du        
   6541 ****        -4.0000 -29.0000 -29.0000 Du        
   6542 ****        -4.0000 -28.7500 -30.2500 Du        
   6543 ****        -4.0000 -28.7500 -30.0000 Du        
   6544 ****        -4.0000 -28.7500 -29.7500 Du        
   6545 ****        -4.0000 -28.7500 -29.5000 Du        
   6546 ****        -4.0000 -28.7500 -29.2500 Du        
   6547 ****        -4.0000 -28.5000 -30.0000 Du        
   6548 ****        -4.0000 -28.5000 -29.7500 Du        
   6549 ****        -4.0000 -28.5000 -29.2500 Du        
   6550 ****        -4.0000 -28.2500 -30.0000 Du        
   6551 ****        -4.0000 -28.2500 -29.7500 Du        
   6552 ****        -4.0000 -28.2500 -29.5000 Du        
   6553 ****        -4.0000 -28.2500 -29.2500 Du        
   6554 ****        -4.0000 -28.0000 -30.0000 Du        
   6555 ****        -4.0000 -28.0000 -29.7500 Du        
   6556 ****        -4.0000 -28.0000 -29.5000 Du        
   6557 ****        -4.0000 -28.0000 -29.2500 Du        
   6558 ****        -4.0000 -28.0000 -29.0000 Du        
   6559 ****        -4.0000 -27.7500 -29.7500 Du        
   6560 ****        -4.0000 -27.7500 -29.5000 Du        
   6561 ****        -4.0000 -27.7500 -29.2500 Du        
   6562 ****        -4.0000 -27.7500 -29.0000 Du        
   6563 ****        -4.0000 -27.5000 -29.2500 Du        
   6564 ****        -4.0000 -27.5000 -29.0000 Du        
   6565 ****        -4.0000 -27.5000 -28.7500 Du        
   6566 ****        -4.0000 -27.2500 -29.2500 Du        
   6567 ****        -4.0000 -27.2500 -29.0000 Du        
   6568 ****        -4.0000 -27.2500 -28.7500 Du        
   6569 ****        -4.0000 -27.2500 -28.2500 Du        
   6570 ****        -4.0000 -27.2500 -28.0000 Du        
   6571 ****        -4.0000 -27.0000 -29.5000 Du        
   6572 ****        -4.0000 -27.0000 -29.2500 Du        
   6573 ****        -4.0000 -27.0000 -29.0000 Du        
   6574 ****        -4.0000 -27.0000 -28.7500 Du        
   6575 ****        -4.0000 -27.0000 -28.5000 Du        
   6576 ****        -4.0000 -27.0000 -28.2500 Du        
   6577 ****        -4.0000 -27.0000 -28.0000 Du        
   6578 ****        -4.0000 -26.7500 -29.5000 Du        
   6579 ****        -4.0000 -26.7500 -29.2500 Du        
   6580 ****        -4.0000 -26.7500 -29.0000 Du        
   6581 ****        -4.0000 -26.7500 -28.7500 Du        
   6582 ****        -4.0000 -26.7500 -28.5000 Du        
   6583 ****        -4.0000 -26.7500 -28.2500 Du        
   6584 ****        -4.0000 -26.7500 -28.0000 Du        
   6585 ****        -4.0000 -26.7500 -27.7500 Du        
   6586 ****        -4.0000 -26.5000 -29.7500 Du        
   6587 ****        -4.0000 -26.5000 -29.5000 Du        
   6588 ****        -4.0000 -26.5000 -29.2500 Du        
   6589 ****        -4.0000 -26.5000 -29.0000 Du        
   6590 ****        -4.0000 -26.5000 -28.7500 Du        
   6591 ****        -4.0000 -26.5000 -28.5000 Du        
   6592 ****        -4.0000 -26.5000 -28.2500 Du        
   6593 ****        -4.0000 -26.5000 -28.0000 Du        
   6594 ****        -4.0000 -26.5000 -27.7500 Du        
   6595 ****        -4.0000 -26.2500 -29.7500 Du        
   6596 ****        -4.0000 -26.2500 -29.5000 Du        
   6597 ****        -4.0000 -26.2500 -29.2500 Du        
   6598 ****        -4.0000 -26.2500 -29.0000 Du        
   6599 ****        -4.0000 -26.2500 -28.7500 Du        
   6600 ****        -4.0000 -26.2500 -28.5000 Du        
   6601 ****        -4.0000 -26.2500 -28.2500 Du        
   6602 ****        -4.0000 -26.2500 -28.0000 Du        
   6603 ****        -4.0000 -26.2500 -27.7500 Du        
   6604 ****        -4.0000 -26.0000 -29.7500 Du        
   6605 ****        -4.0000 -26.0000 -29.5000 Du        
   6606 ****        -4.0000 -26.0000 -29.2500 Du        
   6607 ****        -4.0000 -26.0000 -29.0000 Du        
   6608 ****        -4.0000 -26.0000 -28.7500 Du        
   6609 ****        -4.0000 -26.0000 -28.5000 Du        
   6610 ****        -4.0000 -26.0000 -28.2500 Du        
   6611 ****        -4.0000 -26.0000 -28.0000 Du        
   6612 ****        -4.0000 -26.0000 -27.7500 Du        
   6613 ****        -4.0000 -25.7500 -29.7500 Du        
   6614 ****        -4.0000 -25.7500 -29.5000 Du        
   6615 ****        -4.0000 -25.7500 -29.2500 Du        
   6616 ****        -4.0000 -25.7500 -29.0000 Du        
   6617 ****        -4.0000 -25.7500 -28.7500 Du        
   6618 ****        -4.0000 -25.7500 -28.5000 Du        
   6619 ****        -4.0000 -25.7500 -28.2500 Du        
   6620 ****        -4.0000 -25.7500 -28.0000 Du        
   6621 ****        -4.0000 -25.5000 -29.5000 Du        
   6622 ****        -4.0000 -25.5000 -29.2500 Du        
   6623 ****        -4.0000 -25.5000 -29.0000 Du        
   6624 ****        -4.0000 -25.5000 -28.7500 Du        
   6625 ****        -4.0000 -25.5000 -28.5000 Du        
   6626 ****        -4.0000 -25.2500 -29.5000 Du        
   6627 ****        -4.0000 -25.2500 -29.2500 Du        
   6628 ****        -4.0000 -25.2500 -29.0000 Du        
   6629 ****        -4.0000 -25.2500 -28.7500 Du        
   6630 ****        -4.0000 -20.7500 -22.7500 Du        
   6631 ****        -4.0000 -20.7500 -22.5000 Du        
   6632 ****        -4.0000 -20.5000 -23.0000 Du        
   6633 ****        -4.0000 -20.5000 -22.7500 Du        
   6634 ****        -4.0000 -20.5000 -22.5000 Du        
   6635 ****        -4.0000 -20.2500 -23.0000 Du        
   6636 ****        -4.0000 -20.2500 -22.7500 Du        
   6637 ****        -4.0000 -20.2500 -22.5000 Du        
   6638 ****        -4.0000 -20.0000 -23.0000 Du        
   6639 ****        -4.0000 -20.0000 -22.7500 Du        
   6640 ****        -4.0000 -20.0000 -22.5000 Du        
   6641 ****        -4.0000 -19.7500 -23.0000 Du        
   6642 ****        -4.0000 -19.7500 -22.7500 Du        
   6643 ****        -4.0000 -19.7500 -22.5000 Du        
   6644 ****        -4.0000 -19.5000 -23.0000 Du        
   6645 ****        -4.0000 -19.5000 -22.7500 Du        
   6646 ****        -4.0000 -19.5000 -22.5000 Du        
   6647 ****        -4.0000 -19.2500 -23.0000 Du        
   6648 ****        -4.0000 -19.2500 -22.7500 Du        
   6649 ****        -4.0000 -19.2500 -22.5000 Du        
   6650 ****        -4.0000 -19.0000 -23.0000 Du        
   6651 ****        -4.0000 -19.0000 -22.7500 Du        
   6652 ****        -4.0000 -19.0000 -22.5000 Du        
   6653 ****        -4.0000 -19.0000 -22.2500 Du        
   6654 ****        -4.0000 -18.7500 -23.0000 Du        
   6655 ****        -4.0000 -18.7500 -22.7500 Du        
   6656 ****        -4.0000 -18.7500 -22.5000 Du        
   6657 ****        -4.0000 -18.7500 -22.2500 Du        
   6658 ****        -4.0000 -18.5000 -23.0000 Du        
   6659 ****        -4.0000 -18.5000 -22.7500 Du        
   6660 ****        -4.0000 -18.5000 -22.5000 Du        
   6661 ****        -4.0000 -18.5000 -22.2500 Du        
   6662 ****        -4.0000 -18.2500 -23.0000 Du        
   6663 ****        -4.0000 -18.2500 -22.7500 Du        
   6664 ****        -4.0000 -18.2500 -22.5000 Du        
   6665 ****        -4.0000 -18.2500 -22.2500 Du        
   6666 ****        -4.0000 -18.0000 -22.7500 Du        
   6667 ****        -4.0000 -18.0000 -22.5000 Du        
   6668 ****        -4.0000 -18.0000 -22.2500 Du        
   6669 ****        -4.0000 -18.0000 -22.0000 Du        
   6670 ****        -3.7500 -34.7500 -28.0000 Du        
   6671 ****        -3.7500 -34.5000 -28.5000 Du        
   6672 ****        -3.7500 -34.5000 -28.2500 Du        
   6673 ****        -3.7500 -34.5000 -28.0000 Du        
   6674 ****        -3.7500 -34.2500 -28.7500 Du        
   6675 ****        -3.7500 -34.2500 -28.5000 Du        
   6676 ****        -3.7500 -34.2500 -28.2500 Du        
   6677 ****        -3.7500 -34.2500 -28.0000 Du        
   6678 ****        -3.7500 -34.2500 -27.7500 Du        
   6679 ****        -3.7500 -34.0000 -28.7500 Du        
   6680 ****        -3.7500 -34.0000 -28.5000 Du        
   6681 ****        -3.7500 -34.0000 -28.2500 Du        
   6682 ****        -3.7500 -34.0000 -28.0000 Du        
   6683 ****        -3.7500 -34.0000 -27.7500 Du        
   6684 ****        -3.7500 -33.7500 -29.0000 Du        
   6685 ****        -3.7500 -33.7500 -28.7500 Du        
   6686 ****        -3.7500 -33.7500 -28.5000 Du        
   6687 ****        -3.7500 -33.7500 -28.2500 Du        
   6688 ****        -3.7500 -33.7500 -28.0000 Du        
   6689 ****        -3.7500 -33.7500 -27.7500 Du        
   6690 ****        -3.7500 -33.7500 -27.5000 Du        
   6691 ****        -3.7500 -33.5000 -29.0000 Du        
   6692 ****        -3.7500 -33.5000 -28.7500 Du        
   6693 ****        -3.7500 -33.5000 -28.5000 Du        
   6694 ****        -3.7500 -33.5000 -28.2500 Du        
   6695 ****        -3.7500 -33.5000 -28.0000 Du        
   6696 ****        -3.7500 -33.5000 -27.7500 Du        
   6697 ****        -3.7500 -33.5000 -27.5000 Du        
   6698 ****        -3.7500 -33.2500 -29.0000 Du        
   6699 ****        -3.7500 -33.2500 -28.7500 Du        
   6700 ****        -3.7500 -33.2500 -28.5000 Du        
   6701 ****        -3.7500 -33.2500 -28.2500 Du        
   6702 ****        -3.7500 -33.2500 -28.0000 Du        
   6703 ****        -3.7500 -33.2500 -27.7500 Du        
   6704 ****        -3.7500 -33.2500 -27.5000 Du        
   6705 ****        -3.7500 -33.2500 -27.2500 Du        
   6706 ****        -3.7500 -33.2500 -27.0000 Du        
   6707 ****        -3.7500 -33.0000 -29.0000 Du        
   6708 ****        -3.7500 -33.0000 -28.7500 Du        
   6709 ****        -3.7500 -33.0000 -28.5000 Du        
   6710 ****        -3.7500 -33.0000 -28.2500 Du        
   6711 ****        -3.7500 -33.0000 -28.0000 Du        
   6712 ****        -3.7500 -33.0000 -27.7500 Du        
   6713 ****        -3.7500 -33.0000 -27.5000 Du        
   6714 ****        -3.7500 -33.0000 -27.2500 Du        
   6715 ****        -3.7500 -33.0000 -27.0000 Du        
   6716 ****        -3.7500 -32.7500 -29.0000 Du        
   6717 ****        -3.7500 -32.7500 -28.7500 Du        
   6718 ****        -3.7500 -32.7500 -28.5000 Du        
   6719 ****        -3.7500 -32.7500 -28.2500 Du        
   6720 ****        -3.7500 -32.7500 -28.0000 Du        
   6721 ****        -3.7500 -32.7500 -27.7500 Du        
   6722 ****        -3.7500 -32.7500 -27.5000 Du        
   6723 ****        -3.7500 -32.7500 -27.2500 Du        
   6724 ****        -3.7500 -32.7500 -27.0000 Du        
   6725 ****        -3.7500 -32.5000 -29.0000 Du        
   6726 ****        -3.7500 -32.5000 -28.7500 Du        
   6727 ****        -3.7500 -32.5000 -28.5000 Du        
   6728 ****        -3.7500 -32.5000 -28.2500 Du        
   6729 ****        -3.7500 -32.5000 -28.0000 Du        
   6730 ****        -3.7500 -32.5000 -27.7500 Du        
   6731 ****        -3.7500 -32.5000 -27.5000 Du        
   6732 ****        -3.7500 -32.5000 -27.2500 Du        
   6733 ****        -3.7500 -32.2500 -29.0000 Du        
   6734 ****        -3.7500 -32.2500 -28.7500 Du        
   6735 ****        -3.7500 -32.2500 -28.5000 Du        
   6736 ****        -3.7500 -32.2500 -28.2500 Du        
   6737 ****        -3.7500 -32.2500 -28.0000 Du        
   6738 ****        -3.7500 -32.2500 -27.7500 Du        
   6739 ****        -3.7500 -32.2500 -27.5000 Du        
   6740 ****        -3.7500 -32.0000 -29.0000 Du        
   6741 ****        -3.7500 -32.0000 -28.7500 Du        
   6742 ****        -3.7500 -32.0000 -28.5000 Du        
   6743 ****        -3.7500 -32.0000 -28.2500 Du        
   6744 ****        -3.7500 -32.0000 -28.0000 Du        
   6745 ****        -3.7500 -32.0000 -27.7500 Du        
   6746 ****        -3.7500 -31.7500 -29.0000 Du        
   6747 ****        -3.7500 -31.7500 -28.7500 Du        
   6748 ****        -3.7500 -31.7500 -28.5000 Du        
   6749 ****        -3.7500 -31.7500 -28.2500 Du        
   6750 ****        -3.7500 -31.7500 -28.0000 Du        
   6751 ****        -3.7500 -31.5000 -29.0000 Du        
   6752 ****        -3.7500 -31.5000 -28.7500 Du        
   6753 ****        -3.7500 -31.5000 -28.5000 Du        
   6754 ****        -3.7500 -31.5000 -28.2500 Du        
   6755 ****        -3.7500 -31.2500 -29.0000 Du        
   6756 ****        -3.7500 -31.2500 -28.7500 Du        
   6757 ****        -3.7500 -31.2500 -28.5000 Du        
   6758 ****        -3.7500 -31.0000 -29.2500 Du        
   6759 ****        -3.7500 -31.0000 -29.0000 Du        
   6760 ****        -3.7500 -31.0000 -28.7500 Du        
   6761 ****        -3.7500 -30.7500 -29.2500 Du        
   6762 ****        -3.7500 -30.7500 -29.0000 Du        
   6763 ****        -3.7500 -30.7500 -28.7500 Du        
   6764 ****        -3.7500 -30.5000 -29.2500 Du        
   6765 ****        -3.7500 -30.5000 -29.0000 Du        
   6766 ****        -3.7500 -30.5000 -28.7500 Du        
   6767 ****        -3.7500 -30.2500 -29.5000 Du        
   6768 ****        -3.7500 -30.2500 -29.2500 Du        
   6769 ****        -3.7500 -30.2500 -29.0000 Du        
   6770 ****        -3.7500 -30.2500 -28.7500 Du        
   6771 ****        -3.7500 -30.0000 -29.7500 Du        
   6772 ****        -3.7500 -30.0000 -29.5000 Du        
   6773 ****        -3.7500 -30.0000 -29.2500 Du        
   6774 ****        -3.7500 -30.0000 -29.0000 Du        
   6775 ****        -3.7500 -30.0000 -28.7500 Du        
   6776 ****        -3.7500 -29.7500 -29.7500 Du        
   6777 ****        -3.7500 -29.7500 -29.5000 Du        
   6778 ****        -3.7500 -29.7500 -29.2500 Du        
   6779 ****        -3.7500 -29.7500 -29.0000 Du        
   6780 ****        -3.7500 -29.5000 -30.0000 Du        
   6781 ****        -3.7500 -29.5000 -29.7500 Du        
   6782 ****        -3.7500 -29.5000 -29.5000 Du        
   6783 ****        -3.7500 -29.5000 -29.2500 Du        
   6784 ****        -3.7500 -29.2500 -30.2500 Du        
   6785 ****        -3.7500 -29.2500 -30.0000 Du        
   6786 ****        -3.7500 -29.2500 -29.7500 Du        
   6787 ****        -3.7500 -29.2500 -29.5000 Du        
   6788 ****        -3.7500 -29.2500 -29.2500 Du        
   6789 ****        -3.7500 -29.0000 -30.2500 Du        
   6790 ****        -3.7500 -29.0000 -30.0000 Du        
   6791 ****        -3.7500 -29.0000 -29.7500 Du        
   6792 ****        -3.7500 -29.0000 -29.5000 Du        
   6793 ****        -3.7500 -29.0000 -29.2500 Du        
   6794 ****        -3.7500 -29.0000 -29.0000 Du        
   6795 ****        -3.7500 -28.7500 -30.0000 Du        
   6796 ****        -3.7500 -28.7500 -29.7500 Du        
   6797 ****        -3.7500 -28.7500 -29.5000 Du        
   6798 ****        -3.7500 -28.7500 -29.2500 Du        
   6799 ****        -3.7500 -28.5000 -29.7500 Du        
   6800 ****        -3.7500 -27.7500 -29.0000 Du        
   6801 ****        -3.7500 -27.2500 -29.2500 Du        
   6802 ****        -3.7500 -27.2500 -29.0000 Du        
   6803 ****        -3.7500 -27.2500 -28.7500 Du        
   6804 ****        -3.7500 -27.2500 -28.5000 Du        
   6805 ****        -3.7500 -27.2500 -28.2500 Du        
   6806 ****        -3.7500 -27.2500 -28.0000 Du        
   6807 ****        -3.7500 -27.0000 -29.2500 Du        
   6808 ****        -3.7500 -27.0000 -29.0000 Du        
   6809 ****        -3.7500 -27.0000 -28.7500 Du        
   6810 ****        -3.7500 -27.0000 -28.5000 Du        
   6811 ****        -3.7500 -27.0000 -28.2500 Du        
   6812 ****        -3.7500 -27.0000 -28.0000 Du        
   6813 ****        -3.7500 -27.0000 -27.7500 Du        
   6814 ****        -3.7500 -26.7500 -29.5000 Du        
   6815 ****        -3.7500 -26.7500 -29.2500 Du        
   6816 ****        -3.7500 -26.7500 -29.0000 Du        
   6817 ****        -3.7500 -26.7500 -28.7500 Du        
   6818 ****        -3.7500 -26.7500 -28.5000 Du        
   6819 ****        -3.7500 -26.7500 -28.2500 Du        
   6820 ****        -3.7500 -26.7500 -28.0000 Du        
   6821 ****        -3.7500 -26.7500 -27.7500 Du        
   6822 ****        -3.7500 -26.5000 -29.5000 Du        
   6823 ****        -3.7500 -26.5000 -29.2500 Du        
   6824 ****        -3.7500 -26.5000 -29.0000 Du        
   6825 ****        -3.7500 -26.5000 -28.7500 Du        
   6826 ****        -3.7500 -26.5000 -28.5000 Du        
   6827 ****        -3.7500 -26.5000 -28.2500 Du        
   6828 ****        -3.7500 -26.5000 -28.0000 Du        
   6829 ****        -3.7500 -26.5000 -27.7500 Du        
   6830 ****        -3.7500 -26.2500 -29.5000 Du        
   6831 ****        -3.7500 -26.2500 -29.2500 Du        
   6832 ****        -3.7500 -26.2500 -29.0000 Du        
   6833 ****        -3.7500 -26.2500 -28.7500 Du        
   6834 ****        -3.7500 -26.2500 -28.5000 Du        
   6835 ****        -3.7500 -26.2500 -28.2500 Du        
   6836 ****        -3.7500 -26.2500 -28.0000 Du        
   6837 ****        -3.7500 -26.2500 -27.7500 Du        
   6838 ****        -3.7500 -26.0000 -29.7500 Du        
   6839 ****        -3.7500 -26.0000 -29.5000 Du        
   6840 ****        -3.7500 -26.0000 -29.2500 Du        
   6841 ****        -3.7500 -26.0000 -29.0000 Du        
   6842 ****        -3.7500 -26.0000 -28.7500 Du        
   6843 ****        -3.7500 -26.0000 -28.5000 Du        
   6844 ****        -3.7500 -26.0000 -28.2500 Du        
   6845 ****        -3.7500 -26.0000 -28.0000 Du        
   6846 ****        -3.7500 -26.0000 -27.7500 Du        
   6847 ****        -3.7500 -25.7500 -29.7500 Du        
   6848 ****        -3.7500 -25.7500 -29.5000 Du        
   6849 ****        -3.7500 -25.7500 -29.2500 Du        
   6850 ****        -3.7500 -25.7500 -29.0000 Du        
   6851 ****        -3.7500 -25.7500 -28.7500 Du        
   6852 ****        -3.7500 -25.7500 -28.5000 Du        
   6853 ****        -3.7500 -25.7500 -28.2500 Du        
   6854 ****        -3.7500 -25.7500 -28.0000 Du        
   6855 ****        -3.7500 -25.5000 -29.5000 Du        
   6856 ****        -3.7500 -25.5000 -29.2500 Du        
   6857 ****        -3.7500 -25.5000 -29.0000 Du        
   6858 ****        -3.7500 -25.5000 -28.7500 Du        
   6859 ****        -3.7500 -25.2500 -29.5000 Du        
   6860 ****        -3.7500 -25.2500 -29.2500 Du        
   6861 ****        -3.7500 -25.2500 -29.0000 Du        
   6862 ****        -3.7500 -24.7500 -21.0000 Du        
   6863 ****        -3.7500 -24.5000 -21.0000 Du        
   6864 ****        -3.7500 -24.5000 -20.7500 Du        
   6865 ****        -3.7500 -24.2500 -21.0000 Du        
   6866 ****        -3.7500 -24.2500 -20.7500 Du        
   6867 ****        -3.7500 -21.0000 -22.5000 Du        
   6868 ****        -3.7500 -20.7500 -22.7500 Du        
   6869 ****        -3.7500 -20.7500 -22.5000 Du        
   6870 ****        -3.7500 -20.7500 -22.2500 Du        
   6871 ****        -3.7500 -20.5000 -22.7500 Du        
   6872 ****        -3.7500 -20.5000 -22.5000 Du        
   6873 ****        -3.7500 -20.2500 -22.7500 Du        
   6874 ****        -3.7500 -20.2500 -22.5000 Du        
   6875 ****        -3.7500 -20.0000 -23.0000 Du        
   6876 ****        -3.7500 -20.0000 -22.7500 Du        
   6877 ****        -3.7500 -20.0000 -22.5000 Du        
   6878 ****        -3.7500 -19.7500 -22.7500 Du        
   6879 ****        -3.7500 -19.7500 -22.5000 Du        
   6880 ****        -3.7500 -19.7500 -22.2500 Du        
   6881 ****        -3.7500 -19.5000 -22.7500 Du        
   6882 ****        -3.7500 -19.5000 -22.5000 Du        
   6883 ****        -3.7500 -19.2500 -22.7500 Du        
   6884 ****        -3.7500 -19.2500 -22.5000 Du        
   6885 ****        -3.7500 -19.2500 -22.2500 Du        
   6886 ****        -3.7500 -19.0000 -22.7500 Du        
   6887 ****        -3.7500 -19.0000 -22.5000 Du        
   6888 ****        -3.7500 -19.0000 -22.2500 Du        
   6889 ****        -3.7500 -18.7500 -22.7500 Du        
   6890 ****        -3.7500 -18.7500 -22.5000 Du        
   6891 ****        -3.7500 -18.7500 -22.2500 Du        
   6892 ****        -3.7500 -18.5000 -22.7500 Du        
   6893 ****        -3.7500 -18.5000 -22.5000 Du        
   6894 ****        -3.7500 -18.5000 -22.2500 Du        
   6895 ****        -3.7500 -18.2500 -22.7500 Du        
   6896 ****        -3.7500 -18.2500 -22.5000 Du        
   6897 ****        -3.7500 -18.2500 -22.2500 Du        
   6898 ****        -3.7500 -18.2500 -22.0000 Du        
   6899 ****        -3.7500 -18.0000 -22.7500 Du        
   6900 ****        -3.7500 -18.0000 -22.5000 Du        
   6901 ****        -3.7500 -18.0000 -22.2500 Du        
   6902 ****        -3.7500 -18.0000 -22.0000 Du        
   6903 ****        -3.5000 -34.5000 -28.5000 Du        
   6904 ****        -3.5000 -34.5000 -28.2500 Du        
   6905 ****        -3.5000 -34.5000 -28.0000 Du        
   6906 ****        -3.5000 -34.2500 -28.5000 Du        
   6907 ****        -3.5000 -34.2500 -28.2500 Du        
   6908 ****        -3.5000 -34.2500 -28.0000 Du        
   6909 ****        -3.5000 -34.2500 -27.7500 Du        
   6910 ****        -3.5000 -34.0000 -28.5000 Du        
   6911 ****        -3.5000 -34.0000 -28.2500 Du        
   6912 ****        -3.5000 -34.0000 -28.0000 Du        
   6913 ****        -3.5000 -34.0000 -27.7500 Du        
   6914 ****        -3.5000 -33.7500 -28.5000 Du        
   6915 ****        -3.5000 -33.7500 -28.2500 Du        
   6916 ****        -3.5000 -33.7500 -28.0000 Du        
   6917 ****        -3.5000 -33.7500 -27.7500 Du        
   6918 ****        -3.5000 -33.5000 -28.7500 Du        
   6919 ****        -3.5000 -33.5000 -28.5000 Du        
   6920 ****        -3.5000 -33.5000 -28.2500 Du        
   6921 ****        -3.5000 -33.5000 -28.0000 Du        
   6922 ****        -3.5000 -33.5000 -27.7500 Du        
   6923 ****        -3.5000 -33.5000 -27.5000 Du        
   6924 ****        -3.5000 -33.2500 -28.7500 Du        
   6925 ****        -3.5000 -33.2500 -28.5000 Du        
   6926 ****        -3.5000 -33.2500 -28.2500 Du        
   6927 ****        -3.5000 -33.2500 -28.0000 Du        
   6928 ****        -3.5000 -33.2500 -27.7500 Du        
   6929 ****        -3.5000 -33.2500 -27.5000 Du        
   6930 ****        -3.5000 -33.2500 -27.2500 Du        
   6931 ****        -3.5000 -33.2500 -27.0000 Du        
   6932 ****        -3.5000 -33.0000 -29.0000 Du        
   6933 ****        -3.5000 -33.0000 -28.7500 Du        
   6934 ****        -3.5000 -33.0000 -28.5000 Du        
   6935 ****        -3.5000 -33.0000 -28.2500 Du        
   6936 ****        -3.5000 -33.0000 -28.0000 Du        
   6937 ****        -3.5000 -33.0000 -27.7500 Du        
   6938 ****        -3.5000 -33.0000 -27.5000 Du        
   6939 ****        -3.5000 -33.0000 -27.2500 Du        
   6940 ****        -3.5000 -33.0000 -27.0000 Du        
   6941 ****        -3.5000 -32.7500 -29.0000 Du        
   6942 ****        -3.5000 -32.7500 -28.7500 Du        
   6943 ****        -3.5000 -32.7500 -28.5000 Du        
   6944 ****        -3.5000 -32.7500 -28.2500 Du        
   6945 ****        -3.5000 -32.7500 -28.0000 Du        
   6946 ****        -3.5000 -32.7500 -27.7500 Du        
   6947 ****        -3.5000 -32.7500 -27.5000 Du        
   6948 ****        -3.5000 -32.7500 -27.2500 Du        
   6949 ****        -3.5000 -32.7500 -27.0000 Du        
   6950 ****        -3.5000 -32.5000 -29.0000 Du        
   6951 ****        -3.5000 -32.5000 -28.7500 Du        
   6952 ****        -3.5000 -32.5000 -28.5000 Du        
   6953 ****        -3.5000 -32.5000 -28.2500 Du        
   6954 ****        -3.5000 -32.5000 -28.0000 Du        
   6955 ****        -3.5000 -32.2500 -29.0000 Du        
   6956 ****        -3.5000 -32.2500 -28.7500 Du        
   6957 ****        -3.5000 -32.2500 -28.5000 Du        
   6958 ****        -3.5000 -32.2500 -28.2500 Du        
   6959 ****        -3.5000 -32.2500 -28.0000 Du        
   6960 ****        -3.5000 -32.2500 -27.7500 Du        
   6961 ****        -3.5000 -32.0000 -29.0000 Du        
   6962 ****        -3.5000 -32.0000 -28.7500 Du        
   6963 ****        -3.5000 -32.0000 -28.5000 Du        
   6964 ****        -3.5000 -32.0000 -28.2500 Du        
   6965 ****        -3.5000 -32.0000 -28.0000 Du        
   6966 ****        -3.5000 -31.7500 -29.0000 Du        
   6967 ****        -3.5000 -31.7500 -28.7500 Du        
   6968 ****        -3.5000 -31.7500 -28.5000 Du        
   6969 ****        -3.5000 -31.7500 -28.2500 Du        
   6970 ****        -3.5000 -31.5000 -29.0000 Du        
   6971 ****        -3.5000 -31.5000 -28.7500 Du        
   6972 ****        -3.5000 -31.2500 -29.2500 Du        
   6973 ****        -3.5000 -31.2500 -29.0000 Du        
   6974 ****        -3.5000 -31.2500 -28.7500 Du        
   6975 ****        -3.5000 -31.0000 -29.2500 Du        
   6976 ****        -3.5000 -31.0000 -29.0000 Du        
   6977 ****        -3.5000 -31.0000 -28.7500 Du        
   6978 ****        -3.5000 -30.7500 -29.2500 Du        
   6979 ****        -3.5000 -30.7500 -29.0000 Du        
   6980 ****        -3.5000 -30.7500 -28.7500 Du        
   6981 ****        -3.5000 -30.5000 -29.2500 Du        
   6982 ****        -3.5000 -30.2500 -29.7500 Du        
   6983 ****        -3.5000 -30.2500 -29.5000 Du        
   6984 ****        -3.5000 -30.2500 -29.2500 Du        
   6985 ****        -3.5000 -30.0000 -29.7500 Du        
   6986 ****        -3.5000 -30.0000 -29.5000 Du        
   6987 ****        -3.5000 -30.0000 -29.2500 Du        
   6988 ****        -3.5000 -29.7500 -30.0000 Du        
   6989 ****        -3.5000 -29.7500 -29.7500 Du        
   6990 ****        -3.5000 -29.7500 -29.5000 Du        
   6991 ****        -3.5000 -29.7500 -29.2500 Du        
   6992 ****        -3.5000 -29.5000 -30.0000 Du        
   6993 ****        -3.5000 -29.5000 -29.7500 Du        
   6994 ****        -3.5000 -29.2500 -30.0000 Du        
   6995 ****        -3.5000 -29.2500 -29.7500 Du        
   6996 ****        -3.5000 -29.0000 -29.7500 Du        
   6997 ****        -3.5000 -27.2500 -28.5000 Du        
   6998 ****        -3.5000 -27.2500 -28.2500 Du        
   6999 ****        -3.5000 -27.2500 -28.0000 Du        
   7000 ****        -3.5000 -27.2500 -27.7500 Du        
   7001 ****        -3.5000 -27.0000 -29.0000 Du        
   7002 ****        -3.5000 -27.0000 -28.7500 Du        
   7003 ****        -3.5000 -27.0000 -28.5000 Du        
   7004 ****        -3.5000 -27.0000 -28.2500 Du        
   7005 ****        -3.5000 -27.0000 -28.0000 Du        
   7006 ****        -3.5000 -27.0000 -27.7500 Du        
   7007 ****        -3.5000 -27.0000 -27.5000 Du        
   7008 ****        -3.5000 -26.7500 -29.2500 Du        
   7009 ****        -3.5000 -26.7500 -29.0000 Du        
   7010 ****        -3.5000 -26.7500 -28.7500 Du        
   7011 ****        -3.5000 -26.7500 -28.5000 Du        
   7012 ****        -3.5000 -26.7500 -28.2500 Du        
   7013 ****        -3.5000 -26.7500 -28.0000 Du        
   7014 ****        -3.5000 -26.7500 -27.7500 Du        
   7015 ****        -3.5000 -26.7500 -27.5000 Du        
   7016 ****        -3.5000 -26.5000 -29.2500 Du        
   7017 ****        -3.5000 -26.5000 -29.0000 Du        
   7018 ****        -3.5000 -26.5000 -28.7500 Du        
   7019 ****        -3.5000 -26.5000 -28.5000 Du        
   7020 ****        -3.5000 -26.5000 -28.2500 Du        
   7021 ****        -3.5000 -26.5000 -28.0000 Du        
   7022 ****        -3.5000 -26.5000 -27.7500 Du        
   7023 ****        -3.5000 -26.5000 -27.5000 Du        
   7024 ****        -3.5000 -26.2500 -29.5000 Du        
   7025 ****        -3.5000 -26.2500 -29.2500 Du        
   7026 ****        -3.5000 -26.2500 -29.0000 Du        
   7027 ****        -3.5000 -26.2500 -28.7500 Du        
   7028 ****        -3.5000 -26.2500 -28.5000 Du        
   7029 ****        -3.5000 -26.2500 -28.2500 Du        
   7030 ****        -3.5000 -26.2500 -28.0000 Du        
   7031 ****        -3.5000 -26.2500 -27.7500 Du        
   7032 ****        -3.5000 -26.2500 -27.5000 Du        
   7033 ****        -3.5000 -26.0000 -29.5000 Du        
   7034 ****        -3.5000 -26.0000 -29.2500 Du        
   7035 ****        -3.5000 -26.0000 -29.0000 Du        
   7036 ****        -3.5000 -26.0000 -28.7500 Du        
   7037 ****        -3.5000 -26.0000 -28.5000 Du        
   7038 ****        -3.5000 -26.0000 -28.2500 Du        
   7039 ****        -3.5000 -26.0000 -28.0000 Du        
   7040 ****        -3.5000 -26.0000 -27.7500 Du        
   7041 ****        -3.5000 -25.7500 -29.5000 Du        
   7042 ****        -3.5000 -25.7500 -29.2500 Du        
   7043 ****        -3.5000 -25.7500 -29.0000 Du        
   7044 ****        -3.5000 -25.7500 -28.7500 Du        
   7045 ****        -3.5000 -25.7500 -28.5000 Du        
   7046 ****        -3.5000 -25.7500 -28.2500 Du        
   7047 ****        -3.5000 -25.7500 -28.0000 Du        
   7048 ****        -3.5000 -25.5000 -29.5000 Du        
   7049 ****        -3.5000 -25.5000 -29.2500 Du        
   7050 ****        -3.5000 -25.5000 -29.0000 Du        
   7051 ****        -3.5000 -25.5000 -28.7500 Du        
   7052 ****        -3.5000 -25.2500 -21.2500 Du        
   7053 ****        -3.5000 -25.2500 -21.0000 Du        
   7054 ****        -3.5000 -25.2500 -20.7500 Du        
   7055 ****        -3.5000 -25.0000 -21.5000 Du        
   7056 ****        -3.5000 -25.0000 -21.2500 Du        
   7057 ****        -3.5000 -25.0000 -21.0000 Du        
   7058 ****        -3.5000 -25.0000 -20.7500 Du        
   7059 ****        -3.5000 -24.7500 -21.5000 Du        
   7060 ****        -3.5000 -24.7500 -21.2500 Du        
   7061 ****        -3.5000 -24.7500 -21.0000 Du        
   7062 ****        -3.5000 -24.7500 -20.7500 Du        
   7063 ****        -3.5000 -24.7500 -20.5000 Du        
   7064 ****        -3.5000 -24.5000 -21.5000 Du        
   7065 ****        -3.5000 -24.5000 -21.2500 Du        
   7066 ****        -3.5000 -24.5000 -21.0000 Du        
   7067 ****        -3.5000 -24.5000 -20.7500 Du        
   7068 ****        -3.5000 -24.5000 -20.5000 Du        
   7069 ****        -3.5000 -24.2500 -21.5000 Du        
   7070 ****        -3.5000 -24.2500 -21.2500 Du        
   7071 ****        -3.5000 -24.2500 -21.0000 Du        
   7072 ****        -3.5000 -24.2500 -20.7500 Du        
   7073 ****        -3.5000 -24.2500 -20.5000 Du        
   7074 ****        -3.5000 -24.0000 -21.5000 Du        
   7075 ****        -3.5000 -24.0000 -21.2500 Du        
   7076 ****        -3.5000 -24.0000 -21.0000 Du        
   7077 ****        -3.5000 -24.0000 -20.7500 Du        
   7078 ****        -3.5000 -23.7500 -21.2500 Du        
   7079 ****        -3.5000 -23.7500 -21.0000 Du        
   7080 ****        -3.5000 -21.5000 -22.2500 Du        
   7081 ****        -3.5000 -21.2500 -22.5000 Du        
   7082 ****        -3.5000 -21.2500 -22.2500 Du        
   7083 ****        -3.5000 -21.0000 -22.7500 Du        
   7084 ****        -3.5000 -21.0000 -22.5000 Du        
   7085 ****        -3.5000 -21.0000 -22.2500 Du        
   7086 ****        -3.5000 -20.7500 -22.7500 Du        
   7087 ****        -3.5000 -20.7500 -22.5000 Du        
   7088 ****        -3.5000 -20.7500 -22.2500 Du        
   7089 ****        -3.5000 -20.5000 -22.7500 Du        
   7090 ****        -3.5000 -20.5000 -22.5000 Du        
   7091 ****        -3.5000 -20.5000 -22.2500 Du        
   7092 ****        -3.5000 -20.2500 -22.7500 Du        
   7093 ****        -3.5000 -20.2500 -22.5000 Du        
   7094 ****        -3.5000 -20.2500 -22.2500 Du        
   7095 ****        -3.5000 -20.0000 -22.7500 Du        
   7096 ****        -3.5000 -20.0000 -22.5000 Du        
   7097 ****        -3.5000 -20.0000 -22.2500 Du        
   7098 ****        -3.5000 -19.7500 -22.7500 Du        
   7099 ****        -3.5000 -19.7500 -22.5000 Du        
   7100 ****        -3.5000 -19.7500 -22.2500 Du        
   7101 ****        -3.5000 -19.5000 -22.7500 Du        
   7102 ****        -3.5000 -19.5000 -22.5000 Du        
   7103 ****        -3.5000 -19.5000 -22.2500 Du        
   7104 ****        -3.5000 -19.2500 -22.7500 Du        
   7105 ****        -3.5000 -19.2500 -22.5000 Du        
   7106 ****        -3.5000 -19.2500 -22.2500 Du        
   7107 ****        -3.5000 -19.0000 -22.7500 Du        
   7108 ****        -3.5000 -19.0000 -22.5000 Du        
   7109 ****        -3.5000 -19.0000 -22.2500 Du        
   7110 ****        -3.5000 -18.7500 -22.7500 Du        
   7111 ****        -3.5000 -18.7500 -22.5000 Du        
   7112 ****        -3.5000 -18.7500 -22.2500 Du        
   7113 ****        -3.5000 -18.7500 -22.0000 Du        
   7114 ****        -3.5000 -18.5000 -22.5000 Du        
   7115 ****        -3.5000 -18.5000 -22.2500 Du        
   7116 ****        -3.5000 -18.5000 -22.0000 Du        
   7117 ****        -3.5000 -18.2500 -22.5000 Du        
   7118 ****        -3.5000 -18.2500 -22.2500 Du        
   7119 ****        -3.5000 -18.2500 -22.0000 Du        
   7120 ****        -3.5000 -18.0000 -22.5000 Du        
   7121 ****        -3.5000 -18.0000 -22.2500 Du        
   7122 ****        -3.5000 -18.0000 -22.0000 Du        
   7123 ****        -3.2500 -34.5000 -28.5000 Du        
   7124 ****        -3.2500 -34.5000 -28.0000 Du        
   7125 ****        -3.2500 -34.2500 -28.5000 Du        
   7126 ****        -3.2500 -34.2500 -28.2500 Du        
   7127 ****        -3.2500 -34.2500 -28.0000 Du        
   7128 ****        -3.2500 -34.0000 -28.5000 Du        
   7129 ****        -3.2500 -34.0000 -28.2500 Du        
   7130 ****        -3.2500 -34.0000 -28.0000 Du        
   7131 ****        -3.2500 -34.0000 -27.7500 Du        
   7132 ****        -3.2500 -33.7500 -28.5000 Du        
   7133 ****        -3.2500 -33.7500 -28.2500 Du        
   7134 ****        -3.2500 -33.7500 -28.0000 Du        
   7135 ****        -3.2500 -33.7500 -27.7500 Du        
   7136 ****        -3.2500 -33.5000 -28.5000 Du        
   7137 ****        -3.2500 -33.5000 -28.2500 Du        
   7138 ****        -3.2500 -33.5000 -28.0000 Du        
   7139 ****        -3.2500 -33.5000 -27.7500 Du        
   7140 ****        -3.2500 -33.2500 -29.0000 Du        
   7141 ****        -3.2500 -33.2500 -28.7500 Du        
   7142 ****        -3.2500 -33.2500 -28.5000 Du        
   7143 ****        -3.2500 -33.2500 -28.2500 Du        
   7144 ****        -3.2500 -33.2500 -28.0000 Du        
   7145 ****        -3.2500 -33.2500 -27.7500 Du        
   7146 ****        -3.2500 -33.2500 -27.0000 Du        
   7147 ****        -3.2500 -33.0000 -29.0000 Du        
   7148 ****        -3.2500 -33.0000 -28.7500 Du        
   7149 ****        -3.2500 -33.0000 -28.5000 Du        
   7150 ****        -3.2500 -33.0000 -28.2500 Du        
   7151 ****        -3.2500 -33.0000 -28.0000 Du        
   7152 ****        -3.2500 -33.0000 -27.7500 Du        
   7153 ****        -3.2500 -33.0000 -27.2500 Du        
   7154 ****        -3.2500 -33.0000 -27.0000 Du        
   7155 ****        -3.2500 -32.7500 -28.7500 Du        
   7156 ****        -3.2500 -32.7500 -28.5000 Du        
   7157 ****        -3.2500 -32.7500 -28.2500 Du        
   7158 ****        -3.2500 -32.7500 -28.0000 Du        
   7159 ****        -3.2500 -32.7500 -27.7500 Du        
   7160 ****        -3.2500 -32.7500 -27.2500 Du        
   7161 ****        -3.2500 -32.7500 -27.0000 Du        
   7162 ****        -3.2500 -32.5000 -28.7500 Du        
   7163 ****        -3.2500 -32.5000 -28.5000 Du        
   7164 ****        -3.2500 -32.5000 -28.0000 Du        
   7165 ****        -3.2500 -32.2500 -29.0000 Du        
   7166 ****        -3.2500 -32.2500 -28.7500 Du        
   7167 ****        -3.2500 -32.2500 -28.2500 Du        
   7168 ****        -3.2500 -32.0000 -29.0000 Du        
   7169 ****        -3.2500 -32.0000 -28.7500 Du        
   7170 ****        -3.2500 -32.0000 -28.2500 Du        
   7171 ****        -3.2500 -31.7500 -29.0000 Du        
   7172 ****        -3.2500 -31.7500 -28.7500 Du        
   7173 ****        -3.2500 -31.5000 -29.0000 Du        
   7174 ****        -3.2500 -31.5000 -28.7500 Du        
   7175 ****        -3.2500 -31.2500 -29.2500 Du        
   7176 ****        -3.2500 -31.2500 -29.0000 Du        
   7177 ****        -3.2500 -31.2500 -28.7500 Du        
   7178 ****        -3.2500 -31.0000 -29.2500 Du        
   7179 ****        -3.2500 -31.0000 -29.0000 Du        
   7180 ****        -3.2500 -31.0000 -28.7500 Du        
   7181 ****        -3.2500 -30.7500 -29.5000 Du        
   7182 ****        -3.2500 -30.7500 -29.2500 Du        
   7183 ****        -3.2500 -30.7500 -29.0000 Du        
   7184 ****        -3.2500 -30.5000 -29.5000 Du        
   7185 ****        -3.2500 -30.5000 -29.2500 Du        
   7186 ****        -3.2500 -30.5000 -29.0000 Du        
   7187 ****        -3.2500 -30.2500 -29.7500 Du        
   7188 ****        -3.2500 -30.2500 -29.5000 Du        
   7189 ****        -3.2500 -30.2500 -29.2500 Du        
   7190 ****        -3.2500 -30.0000 -30.0000 Du        
   7191 ****        -3.2500 -30.0000 -29.7500 Du        
   7192 ****        -3.2500 -30.0000 -29.5000 Du        
   7193 ****        -3.2500 -30.0000 -29.2500 Du        
   7194 ****        -3.2500 -30.0000 -29.0000 Du        
   7195 ****        -3.2500 -29.7500 -30.0000 Du        
   7196 ****        -3.2500 -29.7500 -29.7500 Du        
   7197 ****        -3.2500 -29.7500 -29.5000 Du        
   7198 ****        -3.2500 -29.7500 -29.2500 Du        
   7199 ****        -3.2500 -29.5000 -30.0000 Du        
   7200 ****        -3.2500 -29.5000 -29.7500 Du        
   7201 ****        -3.2500 -29.2500 -30.0000 Du        
   7202 ****        -3.2500 -29.2500 -29.7500 Du        
   7203 ****        -3.2500 -27.5000 -28.0000 Du        
   7204 ****        -3.2500 -27.2500 -28.5000 Du        
   7205 ****        -3.2500 -27.2500 -28.2500 Du        
   7206 ****        -3.2500 -27.2500 -28.0000 Du        
   7207 ****        -3.2500 -27.2500 -27.7500 Du        
   7208 ****        -3.2500 -27.2500 -27.5000 Du        
   7209 ****        -3.2500 -27.0000 -29.0000 Du        
   7210 ****        -3.2500 -27.0000 -28.7500 Du        
   7211 ****        -3.2500 -27.0000 -28.5000 Du        
   7212 ****        -3.2500 -27.0000 -28.2500 Du        
   7213 ****        -3.2500 -27.0000 -28.0000 Du        
   7214 ****        -3.2500 -27.0000 -27.7500 Du        
   7215 ****        -3.2500 -27.0000 -27.5000 Du        
   7216 ****        -3.2500 -27.0000 -27.2500 Du        
   7217 ****        -3.2500 -26.7500 -29.0000 Du        
   7218 ****        -3.2500 -26.7500 -28.7500 Du        
   7219 ****        -3.2500 -26.7500 -28.5000 Du        
   7220 ****        -3.2500 -26.7500 -28.2500 Du        
   7221 ****        -3.2500 -26.7500 -28.0000 Du        
   7222 ****        -3.2500 -26.7500 -27.7500 Du        
   7223 ****        -3.2500 -26.7500 -27.5000 Du        
   7224 ****        -3.2500 -26.7500 -27.2500 Du        
   7225 ****        -3.2500 -26.5000 -29.2500 Du        
   7226 ****        -3.2500 -26.5000 -29.0000 Du        
   7227 ****        -3.2500 -26.5000 -28.7500 Du        
   7228 ****        -3.2500 -26.5000 -28.5000 Du        
   7229 ****        -3.2500 -26.5000 -28.2500 Du        
   7230 ****        -3.2500 -26.5000 -28.0000 Du        
   7231 ****        -3.2500 -26.5000 -27.7500 Du        
   7232 ****        -3.2500 -26.5000 -27.5000 Du        
   7233 ****        -3.2500 -26.2500 -29.2500 Du        
   7234 ****        -3.2500 -26.2500 -29.0000 Du        
   7235 ****        -3.2500 -26.2500 -28.7500 Du        
   7236 ****        -3.2500 -26.2500 -28.5000 Du        
   7237 ****        -3.2500 -26.2500 -28.2500 Du        
   7238 ****        -3.2500 -26.2500 -28.0000 Du        
   7239 ****        -3.2500 -26.2500 -27.7500 Du        
   7240 ****        -3.2500 -26.2500 -27.5000 Du        
   7241 ****        -3.2500 -26.0000 -29.5000 Du        
   7242 ****        -3.2500 -26.0000 -29.2500 Du        
   7243 ****        -3.2500 -26.0000 -29.0000 Du        
   7244 ****        -3.2500 -26.0000 -28.7500 Du        
   7245 ****        -3.2500 -26.0000 -28.5000 Du        
   7246 ****        -3.2500 -26.0000 -28.2500 Du        
   7247 ****        -3.2500 -26.0000 -28.0000 Du        
   7248 ****        -3.2500 -26.0000 -27.7500 Du        
   7249 ****        -3.2500 -25.7500 -29.5000 Du        
   7250 ****        -3.2500 -25.7500 -29.2500 Du        
   7251 ****        -3.2500 -25.7500 -29.0000 Du        
   7252 ****        -3.2500 -25.7500 -28.7500 Du        
   7253 ****        -3.2500 -25.7500 -28.5000 Du        
   7254 ****        -3.2500 -25.7500 -28.2500 Du        
   7255 ****        -3.2500 -25.7500 -28.0000 Du        
   7256 ****        -3.2500 -25.5000 -29.2500 Du        
   7257 ****        -3.2500 -25.5000 -29.0000 Du        
   7258 ****        -3.2500 -25.5000 -28.7500 Du        
   7259 ****        -3.2500 -25.5000 -21.5000 Du        
   7260 ****        -3.2500 -25.5000 -21.2500 Du        
   7261 ****        -3.2500 -25.5000 -21.0000 Du        
   7262 ****        -3.2500 -25.5000 -20.7500 Du        
   7263 ****        -3.2500 -25.2500 -21.7500 Du        
   7264 ****        -3.2500 -25.2500 -21.5000 Du        
   7265 ****        -3.2500 -25.2500 -21.2500 Du        
   7266 ****        -3.2500 -25.2500 -21.0000 Du        
   7267 ****        -3.2500 -25.2500 -20.7500 Du        
   7268 ****        -3.2500 -25.2500 -20.5000 Du        
   7269 ****        -3.2500 -25.0000 -21.7500 Du        
   7270 ****        -3.2500 -25.0000 -21.5000 Du        
   7271 ****        -3.2500 -25.0000 -21.2500 Du        
   7272 ****        -3.2500 -25.0000 -21.0000 Du        
   7273 ****        -3.2500 -25.0000 -20.7500 Du        
   7274 ****        -3.2500 -25.0000 -20.5000 Du        
   7275 ****        -3.2500 -25.0000 -20.2500 Du        
   7276 ****        -3.2500 -24.7500 -21.7500 Du        
   7277 ****        -3.2500 -24.7500 -21.5000 Du        
   7278 ****        -3.2500 -24.7500 -21.2500 Du        
   7279 ****        -3.2500 -24.7500 -21.0000 Du        
   7280 ****        -3.2500 -24.7500 -20.7500 Du        
   7281 ****        -3.2500 -24.7500 -20.5000 Du        
   7282 ****        -3.2500 -24.7500 -20.2500 Du        
   7283 ****        -3.2500 -24.5000 -22.0000 Du        
   7284 ****        -3.2500 -24.5000 -21.7500 Du        
   7285 ****        -3.2500 -24.5000 -21.5000 Du        
   7286 ****        -3.2500 -24.5000 -21.2500 Du        
   7287 ****        -3.2500 -24.5000 -21.0000 Du        
   7288 ****        -3.2500 -24.5000 -20.7500 Du        
   7289 ****        -3.2500 -24.5000 -20.5000 Du        
   7290 ****        -3.2500 -24.2500 -21.7500 Du        
   7291 ****        -3.2500 -24.2500 -21.5000 Du        
   7292 ****        -3.2500 -24.2500 -21.2500 Du        
   7293 ****        -3.2500 -24.2500 -21.0000 Du        
   7294 ****        -3.2500 -24.2500 -20.7500 Du        
   7295 ****        -3.2500 -24.2500 -20.5000 Du        
   7296 ****        -3.2500 -24.0000 -21.7500 Du        
   7297 ****        -3.2500 -24.0000 -21.5000 Du        
   7298 ****        -3.2500 -24.0000 -21.2500 Du        
   7299 ****        -3.2500 -24.0000 -21.0000 Du        
   7300 ****        -3.2500 -24.0000 -20.7500 Du        
   7301 ****        -3.2500 -23.7500 -21.7500 Du        
   7302 ****        -3.2500 -23.7500 -21.5000 Du        
   7303 ****        -3.2500 -23.7500 -21.2500 Du        
   7304 ****        -3.2500 -23.7500 -21.0000 Du        
   7305 ****        -3.2500 -23.5000 -21.7500 Du        
   7306 ****        -3.2500 -23.5000 -21.5000 Du        
   7307 ****        -3.2500 -23.5000 -21.2500 Du        
   7308 ****        -3.2500 -23.5000 -21.0000 Du        
   7309 ****        -3.2500 -23.2500 -21.7500 Du        
   7310 ****        -3.2500 -23.2500 -21.5000 Du        
   7311 ****        -3.2500 -23.2500 -21.2500 Du        
   7312 ****        -3.2500 -23.0000 -21.7500 Du        
   7313 ****        -3.2500 -23.0000 -21.5000 Du        
   7314 ****        -3.2500 -22.7500 -21.7500 Du        
   7315 ****        -3.2500 -22.2500 -22.0000 Du        
   7316 ****        -3.2500 -22.0000 -22.2500 Du        
   7317 ****        -3.2500 -22.0000 -22.0000 Du        
   7318 ****        -3.2500 -21.7500 -22.2500 Du        
   7319 ****        -3.2500 -21.7500 -22.0000 Du        
   7320 ****        -3.2500 -21.5000 -22.5000 Du        
   7321 ****        -3.2500 -21.5000 -22.2500 Du        
   7322 ****        -3.2500 -21.5000 -22.0000 Du        
   7323 ****        -3.2500 -21.2500 -22.5000 Du        
   7324 ****        -3.2500 -21.2500 -22.2500 Du        
   7325 ****        -3.2500 -21.2500 -22.0000 Du        
   7326 ****        -3.2500 -21.0000 -22.5000 Du        
   7327 ****        -3.2500 -21.0000 -22.2500 Du        
   7328 ****        -3.2500 -21.0000 -22.0000 Du        
   7329 ****        -3.2500 -20.7500 -22.5000 Du        
   7330 ****        -3.2500 -20.7500 -22.2500 Du        
   7331 ****        -3.2500 -20.7500 -22.0000 Du        
   7332 ****        -3.2500 -20.5000 -22.5000 Du        
   7333 ****        -3.2500 -20.5000 -22.2500 Du        
   7334 ****        -3.2500 -20.2500 -22.5000 Du        
   7335 ****        -3.2500 -20.2500 -22.2500 Du        
   7336 ****        -3.2500 -20.0000 -22.5000 Du        
   7337 ****        -3.2500 -20.0000 -22.2500 Du        
   7338 ****        -3.2500 -19.7500 -22.5000 Du        
   7339 ****        -3.2500 -19.7500 -22.2500 Du        
   7340 ****        -3.2500 -19.5000 -22.5000 Du        
   7341 ****        -3.2500 -19.5000 -22.2500 Du        
   7342 ****        -3.2500 -19.2500 -22.5000 Du        
   7343 ****        -3.2500 -19.2500 -22.2500 Du        
   7344 ****        -3.2500 -19.0000 -22.5000 Du        
   7345 ****        -3.2500 -19.0000 -22.2500 Du        
   7346 ****        -3.2500 -19.0000 -22.0000 Du        
   7347 ****        -3.2500 -18.7500 -22.2500 Du        
   7348 ****        -3.2500 -18.7500 -22.0000 Du        
   7349 ****        -3.2500 -18.5000 -22.2500 Du        
   7350 ****        -3.2500 -18.5000 -22.0000 Du        
   7351 ****        -3.2500 -18.2500 -22.2500 Du        
   7352 ****        -3.2500 -18.2500 -22.0000 Du        
   7353 ****        -3.2500 -18.0000 -22.2500 Du        
   7354 ****        -3.2500 -18.0000 -22.0000 Du        
   7355 ****        -3.2500 -18.0000 -21.7500 Du        
   7356 ****        -3.2500 -17.7500 -22.2500 Du        
   7357 ****        -3.2500 -17.7500 -22.0000 Du        
   7358 ****        -3.0000 -34.2500 -28.2500 Du        
   7359 ****        -3.0000 -34.0000 -28.5000 Du        
   7360 ****        -3.0000 -34.0000 -28.2500 Du        
   7361 ****        -3.0000 -33.7500 -28.5000 Du        
   7362 ****        -3.0000 -33.7500 -28.2500 Du        
   7363 ****        -3.0000 -33.5000 -28.5000 Du        
   7364 ****        -3.0000 -33.5000 -28.2500 Du        
   7365 ****        -3.0000 -33.2500 -29.0000 Du        
   7366 ****        -3.0000 -33.2500 -28.5000 Du        
   7367 ****        -3.0000 -33.2500 -28.2500 Du        
   7368 ****        -3.0000 -33.2500 -27.0000 Du        
   7369 ****        -3.0000 -33.0000 -29.0000 Du        
   7370 ****        -3.0000 -33.0000 -28.7500 Du        
   7371 ****        -3.0000 -33.0000 -28.2500 Du        
   7372 ****        -3.0000 -33.0000 -28.0000 Du        
   7373 ****        -3.0000 -33.0000 -27.0000 Du        
   7374 ****        -3.0000 -32.7500 -28.0000 Du        
   7375 ****        -3.0000 -32.7500 -27.2500 Du        
   7376 ****        -3.0000 -32.7500 -27.0000 Du        
   7377 ****        -3.0000 -32.2500 -29.0000 Du        
   7378 ****        -3.0000 -32.0000 -29.0000 Du        
   7379 ****        -3.0000 -31.7500 -28.7500 Du        
   7380 ****        -3.0000 -31.5000 -29.0000 Du        
   7381 ****        -3.0000 -31.2500 -29.2500 Du        
   7382 ****        -3.0000 -31.2500 -29.0000 Du        
   7383 ****        -3.0000 -31.0000 -29.2500 Du        
   7384 ****        -3.0000 -31.0000 -29.0000 Du        
   7385 ****        -3.0000 -30.7500 -29.5000 Du        
   7386 ****        -3.0000 -30.7500 -29.2500 Du        
   7387 ****        -3.0000 -30.7500 -29.0000 Du        
   7388 ****        -3.0000 -30.5000 -29.5000 Du        
   7389 ****        -3.0000 -30.5000 -29.2500 Du        
   7390 ****        -3.0000 -30.2500 -29.7500 Du        
   7391 ****        -3.0000 -30.2500 -29.5000 Du        
   7392 ****        -3.0000 -30.2500 -29.2500 Du        
   7393 ****        -3.0000 -30.0000 -30.0000 Du        
   7394 ****        -3.0000 -30.0000 -29.7500 Du        
   7395 ****        -3.0000 -30.0000 -29.5000 Du        
   7396 ****        -3.0000 -30.0000 -29.2500 Du        
   7397 ****        -3.0000 -29.7500 -30.0000 Du        
   7398 ****        -3.0000 -29.7500 -29.7500 Du        
   7399 ****        -3.0000 -29.7500 -29.5000 Du        
   7400 ****        -3.0000 -29.5000 -30.0000 Du        
   7401 ****        -3.0000 -29.5000 -29.7500 Du        
   7402 ****        -3.0000 -27.5000 -28.2500 Du        
   7403 ****        -3.0000 -27.5000 -28.0000 Du        
   7404 ****        -3.0000 -27.5000 -27.7500 Du        
   7405 ****        -3.0000 -27.5000 -27.5000 Du        
   7406 ****        -3.0000 -27.5000 -27.2500 Du        
   7407 ****        -3.0000 -27.5000 -27.0000 Du        
   7408 ****        -3.0000 -27.2500 -28.5000 Du        
   7409 ****        -3.0000 -27.2500 -28.2500 Du        
   7410 ****        -3.0000 -27.2500 -28.0000 Du        
   7411 ****        -3.0000 -27.2500 -27.7500 Du        
   7412 ****        -3.0000 -27.2500 -27.5000 Du        
   7413 ****        -3.0000 -27.2500 -27.2500 Du        
   7414 ****        -3.0000 -27.2500 -27.0000 Du        
   7415 ****        -3.0000 -27.2500 -26.7500 Du        
   7416 ****        -3.0000 -27.0000 -29.0000 Du        
   7417 ****        -3.0000 -27.0000 -28.7500 Du        
   7418 ****        -3.0000 -27.0000 -28.5000 Du        
   7419 ****        -3.0000 -27.0000 -28.2500 Du        
   7420 ****        -3.0000 -27.0000 -28.0000 Du        
   7421 ****        -3.0000 -27.0000 -27.7500 Du        
   7422 ****        -3.0000 -27.0000 -27.5000 Du        
   7423 ****        -3.0000 -27.0000 -27.2500 Du        
   7424 ****        -3.0000 -27.0000 -27.0000 Du        
   7425 ****        -3.0000 -26.7500 -29.0000 Du        
   7426 ****        -3.0000 -26.7500 -28.7500 Du        
   7427 ****        -3.0000 -26.7500 -28.5000 Du        
   7428 ****        -3.0000 -26.7500 -28.2500 Du        
   7429 ****        -3.0000 -26.7500 -28.0000 Du        
   7430 ****        -3.0000 -26.7500 -27.7500 Du        
   7431 ****        -3.0000 -26.7500 -27.5000 Du        
   7432 ****        -3.0000 -26.7500 -27.2500 Du        
   7433 ****        -3.0000 -26.7500 -27.0000 Du        
   7434 ****        -3.0000 -26.5000 -29.2500 Du        
   7435 ****        -3.0000 -26.5000 -29.0000 Du        
   7436 ****        -3.0000 -26.5000 -28.7500 Du        
   7437 ****        -3.0000 -26.5000 -28.5000 Du        
   7438 ****        -3.0000 -26.5000 -28.2500 Du        
   7439 ****        -3.0000 -26.5000 -28.0000 Du        
   7440 ****        -3.0000 -26.5000 -27.7500 Du        
   7441 ****        -3.0000 -26.5000 -27.5000 Du        
   7442 ****        -3.0000 -26.5000 -27.2500 Du        
   7443 ****        -3.0000 -26.2500 -29.2500 Du        
   7444 ****        -3.0000 -26.2500 -29.0000 Du        
   7445 ****        -3.0000 -26.2500 -28.7500 Du        
   7446 ****        -3.0000 -26.2500 -28.5000 Du        
   7447 ****        -3.0000 -26.2500 -28.2500 Du        
   7448 ****        -3.0000 -26.2500 -28.0000 Du        
   7449 ****        -3.0000 -26.2500 -27.7500 Du        
   7450 ****        -3.0000 -26.2500 -27.5000 Du        
   7451 ****        -3.0000 -26.2500 -27.2500 Du        
   7452 ****        -3.0000 -26.0000 -29.2500 Du        
   7453 ****        -3.0000 -26.0000 -29.0000 Du        
   7454 ****        -3.0000 -26.0000 -28.7500 Du        
   7455 ****        -3.0000 -26.0000 -28.5000 Du        
   7456 ****        -3.0000 -26.0000 -28.2500 Du        
   7457 ****        -3.0000 -26.0000 -28.0000 Du        
   7458 ****        -3.0000 -26.0000 -27.7500 Du        
   7459 ****        -3.0000 -26.0000 -27.5000 Du        
   7460 ****        -3.0000 -25.7500 -29.2500 Du        
   7461 ****        -3.0000 -25.7500 -29.0000 Du        
   7462 ****        -3.0000 -25.7500 -28.7500 Du        
   7463 ****        -3.0000 -25.7500 -28.5000 Du        
   7464 ****        -3.0000 -25.7500 -28.2500 Du        
   7465 ****        -3.0000 -25.7500 -21.7500 Du        
   7466 ****        -3.0000 -25.7500 -21.5000 Du        
   7467 ****        -3.0000 -25.7500 -21.2500 Du        
   7468 ****        -3.0000 -25.7500 -21.0000 Du        
   7469 ****        -3.0000 -25.7500 -20.7500 Du        
   7470 ****        -3.0000 -25.5000 -29.0000 Du        
   7471 ****        -3.0000 -25.5000 -22.0000 Du        
   7472 ****        -3.0000 -25.5000 -21.7500 Du        
   7473 ****        -3.0000 -25.5000 -21.5000 Du        
   7474 ****        -3.0000 -25.5000 -21.2500 Du        
   7475 ****        -3.0000 -25.5000 -21.0000 Du        
   7476 ****        -3.0000 -25.5000 -20.7500 Du        
   7477 ****        -3.0000 -25.5000 -20.5000 Du        
   7478 ****        -3.0000 -25.2500 -22.0000 Du        
   7479 ****        -3.0000 -25.2500 -21.7500 Du        
   7480 ****        -3.0000 -25.2500 -21.5000 Du        
   7481 ****        -3.0000 -25.2500 -21.2500 Du        
   7482 ****        -3.0000 -25.2500 -21.0000 Du        
   7483 ****        -3.0000 -25.2500 -20.7500 Du        
   7484 ****        -3.0000 -25.2500 -20.5000 Du        
   7485 ****        -3.0000 -25.2500 -20.2500 Du        
   7486 ****        -3.0000 -25.0000 -22.0000 Du        
   7487 ****        -3.0000 -25.0000 -21.7500 Du        
   7488 ****        -3.0000 -25.0000 -21.5000 Du        
   7489 ****        -3.0000 -25.0000 -21.2500 Du        
   7490 ****        -3.0000 -25.0000 -21.0000 Du        
   7491 ****        -3.0000 -25.0000 -20.7500 Du        
   7492 ****        -3.0000 -25.0000 -20.5000 Du        
   7493 ****        -3.0000 -25.0000 -20.2500 Du        
   7494 ****        -3.0000 -24.7500 -22.2500 Du        
   7495 ****        -3.0000 -24.7500 -22.0000 Du        
   7496 ****        -3.0000 -24.7500 -21.7500 Du        
   7497 ****        -3.0000 -24.7500 -21.5000 Du        
   7498 ****        -3.0000 -24.7500 -21.2500 Du        
   7499 ****        -3.0000 -24.7500 -21.0000 Du        
   7500 ****        -3.0000 -24.7500 -20.7500 Du        
   7501 ****        -3.0000 -24.7500 -20.5000 Du        
   7502 ****        -3.0000 -24.7500 -20.2500 Du        
   7503 ****        -3.0000 -24.5000 -22.2500 Du        
   7504 ****        -3.0000 -24.5000 -22.0000 Du        
   7505 ****        -3.0000 -24.5000 -21.7500 Du        
   7506 ****        -3.0000 -24.5000 -21.5000 Du        
   7507 ****        -3.0000 -24.5000 -21.2500 Du        
   7508 ****        -3.0000 -24.5000 -21.0000 Du        
   7509 ****        -3.0000 -24.5000 -20.7500 Du        
   7510 ****        -3.0000 -24.5000 -20.5000 Du        
   7511 ****        -3.0000 -24.2500 -22.2500 Du        
   7512 ****        -3.0000 -24.2500 -22.0000 Du        
   7513 ****        -3.0000 -24.2500 -21.7500 Du        
   7514 ****        -3.0000 -24.2500 -21.5000 Du        
   7515 ****        -3.0000 -24.2500 -21.2500 Du        
   7516 ****        -3.0000 -24.2500 -21.0000 Du        
   7517 ****        -3.0000 -24.2500 -20.7500 Du        
   7518 ****        -3.0000 -24.2500 -20.5000 Du        
   7519 ****        -3.0000 -24.0000 -22.2500 Du        
   7520 ****        -3.0000 -24.0000 -22.0000 Du        
   7521 ****        -3.0000 -24.0000 -21.7500 Du        
   7522 ****        -3.0000 -24.0000 -21.5000 Du        
   7523 ****        -3.0000 -24.0000 -21.2500 Du        
   7524 ****        -3.0000 -24.0000 -21.0000 Du        
   7525 ****        -3.0000 -24.0000 -20.7500 Du        
   7526 ****        -3.0000 -23.7500 -22.2500 Du        
   7527 ****        -3.0000 -23.7500 -22.0000 Du        
   7528 ****        -3.0000 -23.7500 -21.7500 Du        
   7529 ****        -3.0000 -23.7500 -21.5000 Du        
   7530 ****        -3.0000 -23.7500 -21.2500 Du        
   7531 ****        -3.0000 -23.7500 -21.0000 Du        
   7532 ****        -3.0000 -23.7500 -20.7500 Du        
   7533 ****        -3.0000 -23.5000 -22.2500 Du        
   7534 ****        -3.0000 -23.5000 -22.0000 Du        
   7535 ****        -3.0000 -23.5000 -21.7500 Du        
   7536 ****        -3.0000 -23.5000 -21.5000 Du        
   7537 ****        -3.0000 -23.5000 -21.2500 Du        
   7538 ****        -3.0000 -23.5000 -21.0000 Du        
   7539 ****        -3.0000 -23.2500 -22.2500 Du        
   7540 ****        -3.0000 -23.2500 -22.0000 Du        
   7541 ****        -3.0000 -23.2500 -21.7500 Du        
   7542 ****        -3.0000 -23.2500 -21.5000 Du        
   7543 ****        -3.0000 -23.2500 -21.2500 Du        
   7544 ****        -3.0000 -23.0000 -22.2500 Du        
   7545 ****        -3.0000 -23.0000 -22.0000 Du        
   7546 ****        -3.0000 -23.0000 -21.7500 Du        
   7547 ****        -3.0000 -23.0000 -21.5000 Du        
   7548 ****        -3.0000 -22.7500 -22.2500 Du        
   7549 ****        -3.0000 -22.7500 -22.0000 Du        
   7550 ****        -3.0000 -22.7500 -21.7500 Du        
   7551 ****        -3.0000 -22.7500 -21.5000 Du        
   7552 ****        -3.0000 -22.5000 -22.2500 Du        
   7553 ****        -3.0000 -22.5000 -22.0000 Du        
   7554 ****        -3.0000 -22.5000 -21.7500 Du        
   7555 ****        -3.0000 -22.2500 -22.2500 Du        
   7556 ****        -3.0000 -22.2500 -22.0000 Du        
   7557 ****        -3.0000 -22.2500 -21.7500 Du        
   7558 ****        -3.0000 -22.0000 -22.2500 Du        
   7559 ****        -3.0000 -22.0000 -22.0000 Du        
   7560 ****        -3.0000 -22.0000 -21.7500 Du        
   7561 ****        -3.0000 -21.7500 -22.2500 Du        
   7562 ****        -3.0000 -21.7500 -22.0000 Du        
   7563 ****        -3.0000 -21.5000 -22.2500 Du        
   7564 ****        -3.0000 -21.5000 -22.0000 Du        
   7565 ****        -3.0000 -21.2500 -22.2500 Du        
   7566 ****        -3.0000 -21.2500 -22.0000 Du        
   7567 ****        -3.0000 -21.0000 -22.2500 Du        
   7568 ****        -3.0000 -21.0000 -22.0000 Du        
   7569 ****        -3.0000 -20.7500 -22.2500 Du        
   7570 ****        -3.0000 -20.7500 -22.0000 Du        
   7571 ****        -3.0000 -20.5000 -22.2500 Du        
   7572 ****        -3.0000 -20.5000 -22.0000 Du        
   7573 ****        -3.0000 -20.2500 -22.2500 Du        
   7574 ****        -3.0000 -20.2500 -22.0000 Du        
   7575 ****        -3.0000 -20.0000 -22.2500 Du        
   7576 ****        -3.0000 -20.0000 -22.0000 Du        
   7577 ****        -3.0000 -19.7500 -22.2500 Du        
   7578 ****        -3.0000 -19.2500 -22.0000 Du        
   7579 ****        -3.0000 -19.0000 -22.0000 Du        
   7580 ****        -3.0000 -18.7500 -22.0000 Du        
   7581 ****        -3.0000 -18.5000 -22.0000 Du        
   7582 ****        -3.0000 -18.2500 -22.0000 Du        
   7583 ****        -3.0000 -18.2500 -21.7500 Du        
   7584 ****        -3.0000 -18.0000 -22.0000 Du        
   7585 ****        -3.0000 -18.0000 -21.7500 Du        
   7586 ****        -3.0000 -17.7500 -22.0000 Du        
   7587 ****        -3.0000 -17.7500 -21.7500 Du        
   7588 ****        -2.7500 -33.2500 -29.0000 Du        
   7589 ****        -2.7500 -33.0000 -29.0000 Du        
   7590 ****        -2.7500 -31.2500 -29.2500 Du        
   7591 ****        -2.7500 -31.0000 -29.2500 Du        
   7592 ****        -2.7500 -30.7500 -29.5000 Du        
   7593 ****        -2.7500 -30.7500 -29.2500 Du        
   7594 ****        -2.7500 -30.5000 -29.2500 Du        
   7595 ****        -2.7500 -30.2500 -29.7500 Du        
   7596 ****        -2.7500 -30.2500 -29.5000 Du        
   7597 ****        -2.7500 -30.2500 -29.2500 Du        
   7598 ****        -2.7500 -30.0000 -30.0000 Du        
   7599 ****        -2.7500 -30.0000 -29.7500 Du        
   7600 ****        -2.7500 -30.0000 -29.5000 Du        
   7601 ****        -2.7500 -29.7500 -30.0000 Du        
   7602 ****        -2.7500 -29.7500 -29.7500 Du        
   7603 ****        -2.7500 -27.7500 -27.0000 Du        
   7604 ****        -2.7500 -27.5000 -28.2500 Du        
   7605 ****        -2.7500 -27.5000 -28.0000 Du        
   7606 ****        -2.7500 -27.5000 -27.7500 Du        
   7607 ****        -2.7500 -27.5000 -27.5000 Du        
   7608 ****        -2.7500 -27.5000 -27.2500 Du        
   7609 ****        -2.7500 -27.5000 -27.0000 Du        
   7610 ****        -2.7500 -27.5000 -26.7500 Du        
   7611 ****        -2.7500 -27.5000 -26.5000 Du        
   7612 ****        -2.7500 -27.2500 -28.5000 Du        
   7613 ****        -2.7500 -27.2500 -28.2500 Du        
   7614 ****        -2.7500 -27.2500 -28.0000 Du        
   7615 ****        -2.7500 -27.2500 -27.7500 Du        
   7616 ****        -2.7500 -27.2500 -27.5000 Du        
   7617 ****        -2.7500 -27.2500 -27.2500 Du        
   7618 ****        -2.7500 -27.2500 -27.0000 Du        
   7619 ****        -2.7500 -27.2500 -26.7500 Du        
   7620 ****        -2.7500 -27.2500 -26.5000 Du        
   7621 ****        -2.7500 -27.0000 -28.7500 Du        
   7622 ****        -2.7500 -27.0000 -28.5000 Du        
   7623 ****        -2.7500 -27.0000 -28.2500 Du        
   7624 ****        -2.7500 -27.0000 -28.0000 Du        
   7625 ****        -2.7500 -27.0000 -27.7500 Du        
   7626 ****        -2.7500 -27.0000 -27.5000 Du        
   7627 ****        -2.7500 -27.0000 -27.2500 Du        
   7628 ****        -2.7500 -27.0000 -27.0000 Du        
   7629 ****        -2.7500 -27.0000 -26.7500 Du        
   7630 ****        -2.7500 -26.7500 -29.0000 Du        
   7631 ****        -2.7500 -26.7500 -28.7500 Du        
   7632 ****        -2.7500 -26.7500 -28.5000 Du        
   7633 ****        -2.7500 -26.7500 -28.2500 Du        
   7634 ****        -2.7500 -26.7500 -28.0000 Du        
   7635 ****        -2.7500 -26.7500 -27.7500 Du        
   7636 ****        -2.7500 -26.7500 -27.5000 Du        
   7637 ****        -2.7500 -26.7500 -27.2500 Du        
   7638 ****        -2.7500 -26.7500 -27.0000 Du        
   7639 ****        -2.7500 -26.7500 -26.7500 Du        
   7640 ****        -2.7500 -26.5000 -29.0000 Du        
   7641 ****        -2.7500 -26.5000 -28.7500 Du        
   7642 ****        -2.7500 -26.5000 -28.5000 Du        
   7643 ****        -2.7500 -26.5000 -28.2500 Du        
   7644 ****        -2.7500 -26.5000 -28.0000 Du        
   7645 ****        -2.7500 -26.5000 -27.7500 Du        
   7646 ****        -2.7500 -26.5000 -27.5000 Du        
   7647 ****        -2.7500 -26.5000 -27.2500 Du        
   7648 ****        -2.7500 -26.5000 -27.0000 Du        
   7649 ****        -2.7500 -26.2500 -29.2500 Du        
   7650 ****        -2.7500 -26.2500 -29.0000 Du        
   7651 ****        -2.7500 -26.2500 -28.7500 Du        
   7652 ****        -2.7500 -26.2500 -28.5000 Du        
   7653 ****        -2.7500 -26.2500 -28.2500 Du        
   7654 ****        -2.7500 -26.2500 -28.0000 Du        
   7655 ****        -2.7500 -26.2500 -27.7500 Du        
   7656 ****        -2.7500 -26.2500 -27.5000 Du        
   7657 ****        -2.7500 -26.2500 -27.2500 Du        
   7658 ****        -2.7500 -26.2500 -27.0000 Du        
   7659 ****        -2.7500 -26.0000 -29.2500 Du        
   7660 ****        -2.7500 -26.0000 -29.0000 Du        
   7661 ****        -2.7500 -26.0000 -28.7500 Du        
   7662 ****        -2.7500 -26.0000 -28.5000 Du        
   7663 ****        -2.7500 -26.0000 -28.2500 Du        
   7664 ****        -2.7500 -26.0000 -28.0000 Du        
   7665 ****        -2.7500 -26.0000 -27.7500 Du        
   7666 ****        -2.7500 -26.0000 -27.5000 Du        
   7667 ****        -2.7500 -26.0000 -27.2500 Du        
   7668 ****        -2.7500 -26.0000 -21.7500 Du        
   7669 ****        -2.7500 -26.0000 -21.5000 Du        
   7670 ****        -2.7500 -26.0000 -21.2500 Du        
   7671 ****        -2.7500 -26.0000 -21.0000 Du        
   7672 ****        -2.7500 -26.0000 -20.7500 Du        
   7673 ****        -2.7500 -25.7500 -29.2500 Du        
   7674 ****        -2.7500 -25.7500 -29.0000 Du        
   7675 ****        -2.7500 -25.7500 -28.7500 Du        
   7676 ****        -2.7500 -25.7500 -28.5000 Du        
   7677 ****        -2.7500 -25.7500 -22.0000 Du        
   7678 ****        -2.7500 -25.7500 -21.7500 Du        
   7679 ****        -2.7500 -25.7500 -21.5000 Du        
   7680 ****        -2.7500 -25.7500 -21.2500 Du        
   7681 ****        -2.7500 -25.7500 -21.0000 Du        
   7682 ****        -2.7500 -25.7500 -20.7500 Du        
   7683 ****        -2.7500 -25.7500 -20.5000 Du        
   7684 ****        -2.7500 -25.5000 -29.0000 Du        
   7685 ****        -2.7500 -25.5000 -22.2500 Du        
   7686 ****        -2.7500 -25.5000 -22.0000 Du        
   7687 ****        -2.7500 -25.5000 -21.7500 Du        
   7688 ****        -2.7500 -25.5000 -21.5000 Du        
   7689 ****        -2.7500 -25.5000 -21.2500 Du        
   7690 ****        -2.7500 -25.5000 -21.0000 Du        
   7691 ****        -2.7500 -25.5000 -20.7500 Du        
   7692 ****        -2.7500 -25.5000 -20.5000 Du        
   7693 ****        -2.7500 -25.2500 -22.2500 Du        
   7694 ****        -2.7500 -25.2500 -22.0000 Du        
   7695 ****        -2.7500 -25.2500 -21.7500 Du        
   7696 ****        -2.7500 -25.2500 -21.5000 Du        
   7697 ****        -2.7500 -25.2500 -21.2500 Du        
   7698 ****        -2.7500 -25.2500 -21.0000 Du        
   7699 ****        -2.7500 -25.2500 -20.7500 Du        
   7700 ****        -2.7500 -25.2500 -20.5000 Du        
   7701 ****        -2.7500 -25.0000 -22.5000 Du        
   7702 ****        -2.7500 -25.0000 -22.2500 Du        
   7703 ****        -2.7500 -25.0000 -22.0000 Du        
   7704 ****        -2.7500 -25.0000 -21.7500 Du        
   7705 ****        -2.7500 -25.0000 -21.5000 Du        
   7706 ****        -2.7500 -25.0000 -21.2500 Du        
   7707 ****        -2.7500 -25.0000 -21.0000 Du        
   7708 ****        -2.7500 -25.0000 -20.7500 Du        
   7709 ****        -2.7500 -25.0000 -20.5000 Du        
   7710 ****        -2.7500 -24.7500 -22.5000 Du        
   7711 ****        -2.7500 -24.7500 -22.2500 Du        
   7712 ****        -2.7500 -24.7500 -22.0000 Du        
   7713 ****        -2.7500 -24.7500 -21.7500 Du        
   7714 ****        -2.7500 -24.7500 -21.5000 Du        
   7715 ****        -2.7500 -24.7500 -21.2500 Du        
   7716 ****        -2.7500 -24.7500 -21.0000 Du        
   7717 ****        -2.7500 -24.7500 -20.7500 Du        
   7718 ****        -2.7500 -24.7500 -20.5000 Du        
   7719 ****        -2.7500 -24.5000 -22.7500 Du        
   7720 ****        -2.7500 -24.5000 -22.5000 Du        
   7721 ****        -2.7500 -24.5000 -22.2500 Du        
   7722 ****        -2.7500 -24.5000 -22.0000 Du        
   7723 ****        -2.7500 -24.5000 -21.7500 Du        
   7724 ****        -2.7500 -24.5000 -21.5000 Du        
   7725 ****        -2.7500 -24.5000 -21.2500 Du        
   7726 ****        -2.7500 -24.5000 -21.0000 Du        
   7727 ****        -2.7500 -24.5000 -20.7500 Du        
   7728 ****        -2.7500 -24.2500 -22.7500 Du        
   7729 ****        -2.7500 -24.2500 -22.5000 Du        
   7730 ****        -2.7500 -24.2500 -22.2500 Du        
   7731 ****        -2.7500 -24.2500 -22.0000 Du        
   7732 ****        -2.7500 -24.2500 -21.7500 Du        
   7733 ****        -2.7500 -24.2500 -21.5000 Du        
   7734 ****        -2.7500 -24.2500 -21.2500 Du        
   7735 ****        -2.7500 -24.2500 -21.0000 Du        
   7736 ****        -2.7500 -24.2500 -20.7500 Du        
   7737 ****        -2.7500 -24.0000 -22.7500 Du        
   7738 ****        -2.7500 -24.0000 -22.5000 Du        
   7739 ****        -2.7500 -24.0000 -22.2500 Du        
   7740 ****        -2.7500 -24.0000 -22.0000 Du        
   7741 ****        -2.7500 -24.0000 -21.7500 Du        
   7742 ****        -2.7500 -24.0000 -21.5000 Du        
   7743 ****        -2.7500 -24.0000 -21.2500 Du        
   7744 ****        -2.7500 -24.0000 -21.0000 Du        
   7745 ****        -2.7500 -24.0000 -20.7500 Du        
   7746 ****        -2.7500 -23.7500 -22.7500 Du        
   7747 ****        -2.7500 -23.7500 -22.5000 Du        
   7748 ****        -2.7500 -23.7500 -22.2500 Du        
   7749 ****        -2.7500 -23.7500 -22.0000 Du        
   7750 ****        -2.7500 -23.7500 -21.7500 Du        
   7751 ****        -2.7500 -23.7500 -21.5000 Du        
   7752 ****        -2.7500 -23.7500 -21.2500 Du        
   7753 ****        -2.7500 -23.7500 -21.0000 Du        
   7754 ****        -2.7500 -23.5000 -22.7500 Du        
   7755 ****        -2.7500 -23.5000 -22.5000 Du        
   7756 ****        -2.7500 -23.5000 -22.2500 Du        
   7757 ****        -2.7500 -23.5000 -22.0000 Du        
   7758 ****        -2.7500 -23.5000 -21.7500 Du        
   7759 ****        -2.7500 -23.5000 -21.5000 Du        
   7760 ****        -2.7500 -23.5000 -21.2500 Du        
   7761 ****        -2.7500 -23.2500 -22.7500 Du        
   7762 ****        -2.7500 -23.2500 -22.5000 Du        
   7763 ****        -2.7500 -23.2500 -22.2500 Du        
   7764 ****        -2.7500 -23.2500 -22.0000 Du        
   7765 ****        -2.7500 -23.2500 -21.7500 Du        
   7766 ****        -2.7500 -23.2500 -21.5000 Du        
   7767 ****        -2.7500 -23.2500 -21.2500 Du        
   7768 ****        -2.7500 -23.0000 -22.5000 Du        
   7769 ****        -2.7500 -23.0000 -22.2500 Du        
   7770 ****        -2.7500 -23.0000 -22.0000 Du        
   7771 ****        -2.7500 -23.0000 -21.7500 Du        
   7772 ****        -2.7500 -22.7500 -22.5000 Du        
   7773 ****        -2.7500 -22.7500 -22.2500 Du        
   7774 ****        -2.7500 -22.7500 -22.0000 Du        
   7775 ****        -2.7500 -22.7500 -21.7500 Du        
   7776 ****        -2.7500 -22.5000 -22.2500 Du        
   7777 ****        -2.7500 -22.2500 -22.2500 Du        
   7778 ****        -2.7500 -18.0000 -21.7500 Du        
   7779 ****        -2.5000 -28.0000 -27.0000 Du        
   7780 ****        -2.5000 -28.0000 -26.7500 Du        
   7781 ****        -2.5000 -28.0000 -26.5000 Du        
   7782 ****        -2.5000 -28.0000 -26.2500 Du        
   7783 ****        -2.5000 -27.7500 -27.2500 Du        
   7784 ****        -2.5000 -27.7500 -27.0000 Du        
   7785 ****        -2.5000 -27.7500 -26.7500 Du        
   7786 ****        -2.5000 -27.7500 -26.5000 Du        
   7787 ****        -2.5000 -27.7500 -26.2500 Du        
   7788 ****        -2.5000 -27.5000 -28.0000 Du        
   7789 ****        -2.5000 -27.5000 -27.7500 Du        
   7790 ****        -2.5000 -27.5000 -27.5000 Du        
   7791 ****        -2.5000 -27.5000 -27.2500 Du        
   7792 ****        -2.5000 -27.5000 -27.0000 Du        
   7793 ****        -2.5000 -27.5000 -26.7500 Du        
   7794 ****        -2.5000 -27.5000 -26.5000 Du        
   7795 ****        -2.5000 -27.5000 -26.2500 Du        
   7796 ****        -2.5000 -27.2500 -28.0000 Du        
   7797 ****        -2.5000 -27.2500 -27.7500 Du        
   7798 ****        -2.5000 -27.2500 -27.5000 Du        
   7799 ****        -2.5000 -27.2500 -27.2500 Du        
   7800 ****        -2.5000 -27.2500 -27.0000 Du        
   7801 ****        -2.5000 -27.2500 -26.7500 Du        
   7802 ****        -2.5000 -27.2500 -26.5000 Du        
   7803 ****        -2.5000 -27.2500 -26.2500 Du        
   7804 ****        -2.5000 -27.0000 -28.7500 Du        
   7805 ****        -2.5000 -27.0000 -28.5000 Du        
   7806 ****        -2.5000 -27.0000 -28.2500 Du        
   7807 ****        -2.5000 -27.0000 -28.0000 Du        
   7808 ****        -2.5000 -27.0000 -27.7500 Du        
   7809 ****        -2.5000 -27.0000 -27.5000 Du        
   7810 ****        -2.5000 -27.0000 -27.2500 Du        
   7811 ****        -2.5000 -27.0000 -27.0000 Du        
   7812 ****        -2.5000 -27.0000 -26.7500 Du        
   7813 ****        -2.5000 -27.0000 -26.5000 Du        
   7814 ****        -2.5000 -26.7500 -28.7500 Du        
   7815 ****        -2.5000 -26.7500 -28.5000 Du        
   7816 ****        -2.5000 -26.7500 -28.2500 Du        
   7817 ****        -2.5000 -26.7500 -28.0000 Du        
   7818 ****        -2.5000 -26.7500 -27.7500 Du        
   7819 ****        -2.5000 -26.7500 -27.5000 Du        
   7820 ****        -2.5000 -26.7500 -27.2500 Du        
   7821 ****        -2.5000 -26.7500 -27.0000 Du        
   7822 ****        -2.5000 -26.7500 -26.7500 Du        
   7823 ****        -2.5000 -26.7500 -26.5000 Du        
   7824 ****        -2.5000 -26.5000 -29.0000 Du        
   7825 ****        -2.5000 -26.5000 -28.7500 Du        
   7826 ****        -2.5000 -26.5000 -28.5000 Du        
   7827 ****        -2.5000 -26.5000 -28.2500 Du        
   7828 ****        -2.5000 -26.5000 -28.0000 Du        
   7829 ****        -2.5000 -26.5000 -27.7500 Du        
   7830 ****        -2.5000 -26.5000 -27.5000 Du        
   7831 ****        -2.5000 -26.5000 -27.2500 Du        
   7832 ****        -2.5000 -26.5000 -27.0000 Du        
   7833 ****        -2.5000 -26.5000 -26.7500 Du        
   7834 ****        -2.5000 -26.2500 -29.0000 Du        
   7835 ****        -2.5000 -26.2500 -28.7500 Du        
   7836 ****        -2.5000 -26.2500 -28.5000 Du        
   7837 ****        -2.5000 -26.2500 -28.2500 Du        
   7838 ****        -2.5000 -26.2500 -28.0000 Du        
   7839 ****        -2.5000 -26.2500 -27.7500 Du        
   7840 ****        -2.5000 -26.2500 -27.5000 Du        
   7841 ****        -2.5000 -26.2500 -27.2500 Du        
   7842 ****        -2.5000 -26.2500 -27.0000 Du        
   7843 ****        -2.5000 -26.0000 -29.0000 Du        
   7844 ****        -2.5000 -26.0000 -28.7500 Du        
   7845 ****        -2.5000 -26.0000 -28.5000 Du        
   7846 ****        -2.5000 -26.0000 -28.2500 Du        
   7847 ****        -2.5000 -26.0000 -28.0000 Du        
   7848 ****        -2.5000 -26.0000 -27.7500 Du        
   7849 ****        -2.5000 -26.0000 -27.5000 Du        
   7850 ****        -2.5000 -26.0000 -22.2500 Du        
   7851 ****        -2.5000 -26.0000 -22.0000 Du        
   7852 ****        -2.5000 -26.0000 -21.7500 Du        
   7853 ****        -2.5000 -26.0000 -21.5000 Du        
   7854 ****        -2.5000 -26.0000 -21.2500 Du        
   7855 ****        -2.5000 -26.0000 -21.0000 Du        
   7856 ****        -2.5000 -25.7500 -29.0000 Du        
   7857 ****        -2.5000 -25.7500 -28.7500 Du        
   7858 ****        -2.5000 -25.7500 -28.5000 Du        
   7859 ****        -2.5000 -25.7500 -28.2500 Du        
   7860 ****        -2.5000 -25.7500 -22.5000 Du        
   7861 ****        -2.5000 -25.7500 -22.2500 Du        
   7862 ****        -2.5000 -25.7500 -22.0000 Du        
   7863 ****        -2.5000 -25.7500 -21.7500 Du        
   7864 ****        -2.5000 -25.7500 -21.5000 Du        
   7865 ****        -2.5000 -25.7500 -21.2500 Du        
   7866 ****        -2.5000 -25.7500 -21.0000 Du        
   7867 ****        -2.5000 -25.7500 -20.7500 Du        
   7868 ****        -2.5000 -25.5000 -22.5000 Du        
   7869 ****        -2.5000 -25.5000 -22.2500 Du        
   7870 ****        -2.5000 -25.5000 -22.0000 Du        
   7871 ****        -2.5000 -25.5000 -21.7500 Du        
   7872 ****        -2.5000 -25.5000 -21.5000 Du        
   7873 ****        -2.5000 -25.5000 -21.2500 Du        
   7874 ****        -2.5000 -25.5000 -21.0000 Du        
   7875 ****        -2.5000 -25.5000 -20.7500 Du        
   7876 ****        -2.5000 -25.2500 -22.7500 Du        
   7877 ****        -2.5000 -25.2500 -22.5000 Du        
   7878 ****        -2.5000 -25.2500 -22.2500 Du        
   7879 ****        -2.5000 -25.2500 -22.0000 Du        
   7880 ****        -2.5000 -25.2500 -21.7500 Du        
   7881 ****        -2.5000 -25.2500 -21.5000 Du        
   7882 ****        -2.5000 -25.2500 -21.2500 Du        
   7883 ****        -2.5000 -25.2500 -21.0000 Du        
   7884 ****        -2.5000 -25.2500 -20.7500 Du        
   7885 ****        -2.5000 -25.0000 -22.7500 Du        
   7886 ****        -2.5000 -25.0000 -22.5000 Du        
   7887 ****        -2.5000 -25.0000 -22.2500 Du        
   7888 ****        -2.5000 -25.0000 -22.0000 Du        
   7889 ****        -2.5000 -25.0000 -21.7500 Du        
   7890 ****        -2.5000 -25.0000 -21.5000 Du        
   7891 ****        -2.5000 -25.0000 -21.2500 Du        
   7892 ****        -2.5000 -25.0000 -21.0000 Du        
   7893 ****        -2.5000 -25.0000 -20.7500 Du        
   7894 ****        -2.5000 -24.7500 -23.0000 Du        
   7895 ****        -2.5000 -24.7500 -22.7500 Du        
   7896 ****        -2.5000 -24.7500 -22.5000 Du        
   7897 ****        -2.5000 -24.7500 -22.2500 Du        
   7898 ****        -2.5000 -24.7500 -22.0000 Du        
   7899 ****        -2.5000 -24.7500 -21.7500 Du        
   7900 ****        -2.5000 -24.7500 -21.5000 Du        
   7901 ****        -2.5000 -24.7500 -21.2500 Du        
   7902 ****        -2.5000 -24.7500 -21.0000 Du        
   7903 ****        -2.5000 -24.5000 -23.0000 Du        
   7904 ****        -2.5000 -24.5000 -22.7500 Du        
   7905 ****        -2.5000 -24.5000 -22.5000 Du        
   7906 ****        -2.5000 -24.5000 -22.2500 Du        
   7907 ****        -2.5000 -24.5000 -22.0000 Du        
   7908 ****        -2.5000 -24.5000 -21.7500 Du        
   7909 ****        -2.5000 -24.5000 -21.5000 Du        
   7910 ****        -2.5000 -24.5000 -21.2500 Du        
   7911 ****        -2.5000 -24.5000 -21.0000 Du        
   7912 ****        -2.5000 -24.2500 -23.2500 Du        
   7913 ****        -2.5000 -24.2500 -23.0000 Du        
   7914 ****        -2.5000 -24.2500 -22.7500 Du        
   7915 ****        -2.5000 -24.2500 -22.5000 Du        
   7916 ****        -2.5000 -24.2500 -22.2500 Du        
   7917 ****        -2.5000 -24.2500 -22.0000 Du        
   7918 ****        -2.5000 -24.2500 -21.7500 Du        
   7919 ****        -2.5000 -24.2500 -21.5000 Du        
   7920 ****        -2.5000 -24.2500 -21.2500 Du        
   7921 ****        -2.5000 -24.2500 -21.0000 Du        
   7922 ****        -2.5000 -24.0000 -23.2500 Du        
   7923 ****        -2.5000 -24.0000 -23.0000 Du        
   7924 ****        -2.5000 -24.0000 -22.7500 Du        
   7925 ****        -2.5000 -24.0000 -22.5000 Du        
   7926 ****        -2.5000 -24.0000 -22.2500 Du        
   7927 ****        -2.5000 -24.0000 -22.0000 Du        
   7928 ****        -2.5000 -24.0000 -21.7500 Du        
   7929 ****        -2.5000 -24.0000 -21.5000 Du        
   7930 ****        -2.5000 -24.0000 -21.2500 Du        
   7931 ****        -2.5000 -23.7500 -23.0000 Du        
   7932 ****        -2.5000 -23.7500 -22.7500 Du        
   7933 ****        -2.5000 -23.7500 -22.5000 Du        
   7934 ****        -2.5000 -23.7500 -22.2500 Du        
   7935 ****        -2.5000 -23.7500 -22.0000 Du        
   7936 ****        -2.5000 -23.7500 -21.7500 Du        
   7937 ****        -2.5000 -23.7500 -21.5000 Du        
   7938 ****        -2.5000 -23.7500 -21.2500 Du        
   7939 ****        -2.5000 -23.5000 -23.0000 Du        
   7940 ****        -2.5000 -23.5000 -22.7500 Du        
   7941 ****        -2.5000 -23.5000 -22.5000 Du        
   7942 ****        -2.5000 -23.5000 -22.2500 Du        
   7943 ****        -2.5000 -23.5000 -22.0000 Du        
   7944 ****        -2.5000 -23.5000 -21.7500 Du        
   7945 ****        -2.5000 -23.5000 -21.5000 Du        
   7946 ****        -2.5000 -23.2500 -22.7500 Du        
   7947 ****        -2.5000 -23.2500 -22.5000 Du        
   7948 ****        -2.5000 -23.2500 -22.2500 Du        
   7949 ****        -2.5000 -23.2500 -22.0000 Du        
   7950 ****        -2.5000 -23.2500 -21.7500 Du        
   7951 ****        -2.5000 -23.0000 -22.5000 Du        
   7952 ****        -2.5000 -23.0000 -22.2500 Du        
   7953 ****        -2.5000 -23.0000 -22.0000 Du        
   7954 ****        -2.5000 -22.7500 -22.5000 Du        
   7955 ****        -2.5000 -22.7500 -22.2500 Du        
   7956 ****        -2.2500 -28.5000 -27.0000 Du        
   7957 ****        -2.2500 -28.5000 -26.7500 Du        
   7958 ****        -2.2500 -28.5000 -26.5000 Du        
   7959 ****        -2.2500 -28.5000 -26.2500 Du        
   7960 ****        -2.2500 -28.5000 -26.0000 Du        
   7961 ****        -2.2500 -28.2500 -27.0000 Du        
   7962 ****        -2.2500 -28.2500 -26.7500 Du        
   7963 ****        -2.2500 -28.2500 -26.5000 Du        
   7964 ****        -2.2500 -28.2500 -26.2500 Du        
   7965 ****        -2.2500 -28.2500 -26.0000 Du        
   7966 ****        -2.2500 -28.0000 -27.2500 Du        
   7967 ****        -2.2500 -28.0000 -27.0000 Du        
   7968 ****        -2.2500 -28.0000 -26.7500 Du        
   7969 ****        -2.2500 -28.0000 -26.5000 Du        
   7970 ****        -2.2500 -28.0000 -26.2500 Du        
   7971 ****        -2.2500 -28.0000 -26.0000 Du        
   7972 ****        -2.2500 -27.7500 -27.2500 Du        
   7973 ****        -2.2500 -27.7500 -27.0000 Du        
   7974 ****        -2.2500 -27.7500 -26.7500 Du        
   7975 ****        -2.2500 -27.7500 -26.5000 Du        
   7976 ****        -2.2500 -27.7500 -26.2500 Du        
   7977 ****        -2.2500 -27.7500 -26.0000 Du        
   7978 ****        -2.2500 -27.5000 -28.0000 Du        
   7979 ****        -2.2500 -27.5000 -27.7500 Du        
   7980 ****        -2.2500 -27.5000 -27.5000 Du        
   7981 ****        -2.2500 -27.5000 -27.2500 Du        
   7982 ****        -2.2500 -27.5000 -27.0000 Du        
   7983 ****        -2.2500 -27.5000 -26.7500 Du        
   7984 ****        -2.2500 -27.5000 -26.5000 Du        
   7985 ****        -2.2500 -27.5000 -26.2500 Du        
   7986 ****        -2.2500 -27.2500 -28.0000 Du        
   7987 ****        -2.2500 -27.2500 -27.7500 Du        
   7988 ****        -2.2500 -27.2500 -27.5000 Du        
   7989 ****        -2.2500 -27.2500 -27.2500 Du        
   7990 ****        -2.2500 -27.2500 -27.0000 Du        
   7991 ****        -2.2500 -27.2500 -26.7500 Du        
   7992 ****        -2.2500 -27.2500 -26.5000 Du        
   7993 ****        -2.2500 -27.2500 -26.2500 Du        
   7994 ****        -2.2500 -27.0000 -28.7500 Du        
   7995 ****        -2.2500 -27.0000 -28.2500 Du        
   7996 ****        -2.2500 -27.0000 -28.0000 Du        
   7997 ****        -2.2500 -27.0000 -27.7500 Du        
   7998 ****        -2.2500 -27.0000 -27.5000 Du        
   7999 ****        -2.2500 -27.0000 -27.2500 Du        
   8000 ****        -2.2500 -27.0000 -27.0000 Du        
   8001 ****        -2.2500 -27.0000 -26.7500 Du        
   8002 ****        -2.2500 -27.0000 -26.5000 Du        
   8003 ****        -2.2500 -27.0000 -26.2500 Du        
   8004 ****        -2.2500 -26.7500 -28.7500 Du        
   8005 ****        -2.2500 -26.7500 -28.2500 Du        
   8006 ****        -2.2500 -26.7500 -28.0000 Du        
   8007 ****        -2.2500 -26.7500 -27.7500 Du        
   8008 ****        -2.2500 -26.7500 -27.5000 Du        
   8009 ****        -2.2500 -26.7500 -27.2500 Du        
   8010 ****        -2.2500 -26.7500 -27.0000 Du        
   8011 ****        -2.2500 -26.7500 -26.7500 Du        
   8012 ****        -2.2500 -26.7500 -26.5000 Du        
   8013 ****        -2.2500 -26.5000 -28.7500 Du        
   8014 ****        -2.2500 -26.5000 -28.5000 Du        
   8015 ****        -2.2500 -26.5000 -28.2500 Du        
   8016 ****        -2.2500 -26.5000 -28.0000 Du        
   8017 ****        -2.2500 -26.5000 -27.7500 Du        
   8018 ****        -2.2500 -26.5000 -27.5000 Du        
   8019 ****        -2.2500 -26.5000 -27.2500 Du        
   8020 ****        -2.2500 -26.5000 -27.0000 Du        
   8021 ****        -2.2500 -26.5000 -26.7500 Du        
   8022 ****        -2.2500 -26.2500 -29.0000 Du        
   8023 ****        -2.2500 -26.2500 -28.7500 Du        
   8024 ****        -2.2500 -26.2500 -28.5000 Du        
   8025 ****        -2.2500 -26.2500 -28.2500 Du        
   8026 ****        -2.2500 -26.2500 -28.0000 Du        
   8027 ****        -2.2500 -26.2500 -27.7500 Du        
   8028 ****        -2.2500 -26.2500 -27.5000 Du        
   8029 ****        -2.2500 -26.2500 -27.2500 Du        
   8030 ****        -2.2500 -26.2500 -27.0000 Du        
   8031 ****        -2.2500 -26.0000 -29.0000 Du        
   8032 ****        -2.2500 -26.0000 -28.7500 Du        
   8033 ****        -2.2500 -26.0000 -28.5000 Du        
   8034 ****        -2.2500 -26.0000 -28.2500 Du        
   8035 ****        -2.2500 -26.0000 -28.0000 Du        
   8036 ****        -2.2500 -26.0000 -27.7500 Du        
   8037 ****        -2.2500 -26.0000 -22.2500 Du        
   8038 ****        -2.2500 -26.0000 -22.0000 Du        
   8039 ****        -2.2500 -26.0000 -21.7500 Du        
   8040 ****        -2.2500 -26.0000 -21.5000 Du        
   8041 ****        -2.2500 -25.7500 -29.0000 Du        
   8042 ****        -2.2500 -25.7500 -28.7500 Du        
   8043 ****        -2.2500 -25.7500 -28.5000 Du        
   8044 ****        -2.2500 -25.7500 -28.2500 Du        
   8045 ****        -2.2500 -25.7500 -22.7500 Du        
   8046 ****        -2.2500 -25.7500 -22.5000 Du        
   8047 ****        -2.2500 -25.7500 -22.2500 Du        
   8048 ****        -2.2500 -25.7500 -22.0000 Du        
   8049 ****        -2.2500 -25.7500 -21.7500 Du        
   8050 ****        -2.2500 -25.7500 -21.5000 Du        
   8051 ****        -2.2500 -25.7500 -21.2500 Du        
   8052 ****        -2.2500 -25.5000 -22.7500 Du        
   8053 ****        -2.2500 -25.5000 -22.5000 Du        
   8054 ****        -2.2500 -25.5000 -22.2500 Du        
   8055 ****        -2.2500 -25.5000 -22.0000 Du        
   8056 ****        -2.2500 -25.5000 -21.7500 Du        
   8057 ****        -2.2500 -25.5000 -21.5000 Du        
   8058 ****        -2.2500 -25.5000 -21.2500 Du        
   8059 ****        -2.2500 -25.5000 -21.0000 Du        
   8060 ****        -2.2500 -25.2500 -23.0000 Du        
   8061 ****        -2.2500 -25.2500 -22.7500 Du        
   8062 ****        -2.2500 -25.2500 -22.5000 Du        
   8063 ****        -2.2500 -25.2500 -22.2500 Du        
   8064 ****        -2.2500 -25.2500 -22.0000 Du        
   8065 ****        -2.2500 -25.2500 -21.7500 Du        
   8066 ****        -2.2500 -25.2500 -21.5000 Du        
   8067 ****        -2.2500 -25.2500 -21.2500 Du        
   8068 ****        -2.2500 -25.2500 -21.0000 Du        
   8069 ****        -2.2500 -25.0000 -23.0000 Du        
   8070 ****        -2.2500 -25.0000 -22.7500 Du        
   8071 ****        -2.2500 -25.0000 -22.5000 Du        
   8072 ****        -2.2500 -25.0000 -22.2500 Du        
   8073 ****        -2.2500 -25.0000 -22.0000 Du        
   8074 ****        -2.2500 -25.0000 -21.7500 Du        
   8075 ****        -2.2500 -25.0000 -21.5000 Du        
   8076 ****        -2.2500 -25.0000 -21.2500 Du        
   8077 ****        -2.2500 -24.7500 -23.2500 Du        
   8078 ****        -2.2500 -24.7500 -23.0000 Du        
   8079 ****        -2.2500 -24.7500 -22.7500 Du        
   8080 ****        -2.2500 -24.7500 -22.5000 Du        
   8081 ****        -2.2500 -24.7500 -22.2500 Du        
   8082 ****        -2.2500 -24.7500 -22.0000 Du        
   8083 ****        -2.2500 -24.7500 -21.7500 Du        
   8084 ****        -2.2500 -24.7500 -21.5000 Du        
   8085 ****        -2.2500 -24.7500 -21.2500 Du        
   8086 ****        -2.2500 -24.5000 -23.2500 Du        
   8087 ****        -2.2500 -24.5000 -23.0000 Du        
   8088 ****        -2.2500 -24.5000 -22.7500 Du        
   8089 ****        -2.2500 -24.5000 -22.5000 Du        
   8090 ****        -2.2500 -24.5000 -22.2500 Du        
   8091 ****        -2.2500 -24.5000 -22.0000 Du        
   8092 ****        -2.2500 -24.5000 -21.7500 Du        
   8093 ****        -2.2500 -24.5000 -21.5000 Du        
   8094 ****        -2.2500 -24.5000 -21.2500 Du        
   8095 ****        -2.2500 -24.2500 -23.2500 Du        
   8096 ****        -2.2500 -24.2500 -23.0000 Du        
   8097 ****        -2.2500 -24.2500 -22.7500 Du        
   8098 ****        -2.2500 -24.2500 -22.5000 Du        
   8099 ****        -2.2500 -24.2500 -22.2500 Du        
   8100 ****        -2.2500 -24.2500 -22.0000 Du        
   8101 ****        -2.2500 -24.2500 -21.7500 Du        
   8102 ****        -2.2500 -24.2500 -21.5000 Du        
   8103 ****        -2.2500 -24.0000 -23.2500 Du        
   8104 ****        -2.2500 -24.0000 -23.0000 Du        
   8105 ****        -2.2500 -24.0000 -22.7500 Du        
   8106 ****        -2.2500 -24.0000 -22.5000 Du        
   8107 ****        -2.2500 -24.0000 -22.2500 Du        
   8108 ****        -2.2500 -24.0000 -22.0000 Du        
   8109 ****        -2.2500 -24.0000 -21.7500 Du        
   8110 ****        -2.2500 -24.0000 -21.5000 Du        
   8111 ****        -2.2500 -23.7500 -23.2500 Du        
   8112 ****        -2.2500 -23.7500 -23.0000 Du        
   8113 ****        -2.2500 -23.7500 -22.7500 Du        
   8114 ****        -2.2500 -23.7500 -22.5000 Du        
   8115 ****        -2.2500 -23.7500 -22.2500 Du        
   8116 ****        -2.2500 -23.7500 -22.0000 Du        
   8117 ****        -2.2500 -23.7500 -21.7500 Du        
   8118 ****        -2.2500 -23.5000 -23.0000 Du        
   8119 ****        -2.2500 -23.5000 -22.7500 Du        
   8120 ****        -2.2500 -23.5000 -22.5000 Du        
   8121 ****        -2.2500 -23.5000 -22.2500 Du        
   8122 ****        -2.2500 -23.5000 -22.0000 Du        
   8123 ****        -2.2500 -23.2500 -22.7500 Du        
   8124 ****        -2.2500 -23.2500 -22.5000 Du        
   8125 ****        -2.2500 -23.2500 -22.2500 Du        
   8126 ****        -2.0000 -32.7500 -25.5000 Du        
   8127 ****        -2.0000 -32.5000 -25.5000 Du        
   8128 ****        -2.0000 -32.2500 -25.5000 Du        
   8129 ****        -2.0000 -32.0000 -25.5000 Du        
   8130 ****        -2.0000 -32.0000 -25.2500 Du        
   8131 ****        -2.0000 -31.7500 -25.5000 Du        
   8132 ****        -2.0000 -31.7500 -25.2500 Du        
   8133 ****        -2.0000 -31.5000 -25.7500 Du        
   8134 ****        -2.0000 -31.2500 -25.7500 Du        
   8135 ****        -2.0000 -31.0000 -25.7500 Du        
   8136 ****        -2.0000 -31.0000 -25.5000 Du        
   8137 ****        -2.0000 -30.7500 -26.0000 Du        
   8138 ****        -2.0000 -30.7500 -25.7500 Du        
   8139 ****        -2.0000 -30.5000 -26.2500 Du        
   8140 ****        -2.0000 -30.5000 -26.0000 Du        
   8141 ****        -2.0000 -30.5000 -25.7500 Du        
   8142 ****        -2.0000 -30.2500 -26.2500 Du        
   8143 ****        -2.0000 -30.2500 -26.0000 Du        
   8144 ****        -2.0000 -30.2500 -25.7500 Du        
   8145 ****        -2.0000 -30.0000 -26.2500 Du        
   8146 ****        -2.0000 -30.0000 -26.0000 Du        
   8147 ****        -2.0000 -30.0000 -25.7500 Du        
   8148 ****        -2.0000 -30.0000 -25.5000 Du        
   8149 ****        -2.0000 -29.7500 -26.5000 Du        
   8150 ****        -2.0000 -29.7500 -26.2500 Du        
   8151 ****        -2.0000 -29.7500 -26.0000 Du        
   8152 ****        -2.0000 -29.7500 -25.7500 Du        
   8153 ****        -2.0000 -29.7500 -25.5000 Du        
   8154 ****        -2.0000 -29.5000 -26.5000 Du        
   8155 ****        -2.0000 -29.5000 -26.2500 Du        
   8156 ****        -2.0000 -29.5000 -26.0000 Du        
   8157 ****        -2.0000 -29.5000 -25.7500 Du        
   8158 ****        -2.0000 -29.5000 -25.5000 Du        
   8159 ****        -2.0000 -29.2500 -26.5000 Du        
   8160 ****        -2.0000 -29.2500 -26.2500 Du        
   8161 ****        -2.0000 -29.2500 -26.0000 Du        
   8162 ****        -2.0000 -29.2500 -25.7500 Du        
   8163 ****        -2.0000 -29.2500 -25.5000 Du        
   8164 ****        -2.0000 -29.2500 -25.2500 Du        
   8165 ****        -2.0000 -29.0000 -26.7500 Du        
   8166 ****        -2.0000 -29.0000 -26.5000 Du        
   8167 ****        -2.0000 -29.0000 -26.2500 Du        
   8168 ****        -2.0000 -29.0000 -26.0000 Du        
   8169 ****        -2.0000 -29.0000 -25.7500 Du        
   8170 ****        -2.0000 -29.0000 -25.5000 Du        
   8171 ****        -2.0000 -29.0000 -25.2500 Du        
   8172 ****        -2.0000 -28.7500 -27.0000 Du        
   8173 ****        -2.0000 -28.7500 -26.7500 Du        
   8174 ****        -2.0000 -28.7500 -26.5000 Du        
   8175 ****        -2.0000 -28.7500 -26.2500 Du        
   8176 ****        -2.0000 -28.7500 -26.0000 Du        
   8177 ****        -2.0000 -28.7500 -25.7500 Du        
   8178 ****        -2.0000 -28.7500 -25.5000 Du        
   8179 ****        -2.0000 -28.5000 -27.2500 Du        
   8180 ****        -2.0000 -28.5000 -27.0000 Du        
   8181 ****        -2.0000 -28.5000 -26.7500 Du        
   8182 ****        -2.0000 -28.5000 -26.5000 Du        
   8183 ****        -2.0000 -28.5000 -26.2500 Du        
   8184 ****        -2.0000 -28.5000 -26.0000 Du        
   8185 ****        -2.0000 -28.5000 -25.7500 Du        
   8186 ****        -2.0000 -28.5000 -25.5000 Du        
   8187 ****        -2.0000 -28.2500 -27.0000 Du        
   8188 ****        -2.0000 -28.2500 -26.7500 Du        
   8189 ****        -2.0000 -28.2500 -26.5000 Du        
   8190 ****        -2.0000 -28.2500 -26.2500 Du        
   8191 ****        -2.0000 -28.2500 -26.0000 Du        
   8192 ****        -2.0000 -28.2500 -25.7500 Du        
   8193 ****        -2.0000 -28.0000 -27.2500 Du        
   8194 ****        -2.0000 -28.0000 -27.0000 Du        
   8195 ****        -2.0000 -28.0000 -26.7500 Du        
   8196 ****        -2.0000 -28.0000 -26.5000 Du        
   8197 ****        -2.0000 -28.0000 -26.2500 Du        
   8198 ****        -2.0000 -28.0000 -26.0000 Du        
   8199 ****        -2.0000 -27.7500 -27.2500 Du        
   8200 ****        -2.0000 -27.7500 -27.0000 Du        
   8201 ****        -2.0000 -27.7500 -26.7500 Du        
   8202 ****        -2.0000 -27.7500 -26.5000 Du        
   8203 ****        -2.0000 -27.7500 -26.2500 Du        
   8204 ****        -2.0000 -27.5000 -28.0000 Du        
   8205 ****        -2.0000 -27.5000 -27.7500 Du        
   8206 ****        -2.0000 -27.5000 -27.5000 Du        
   8207 ****        -2.0000 -27.5000 -27.2500 Du        
   8208 ****        -2.0000 -27.5000 -27.0000 Du        
   8209 ****        -2.0000 -27.5000 -26.7500 Du        
   8210 ****        -2.0000 -27.5000 -26.5000 Du        
   8211 ****        -2.0000 -27.5000 -26.2500 Du        
   8212 ****        -2.0000 -27.2500 -28.2500 Du        
   8213 ****        -2.0000 -27.2500 -28.0000 Du        
   8214 ****        -2.0000 -27.2500 -27.7500 Du        
   8215 ****        -2.0000 -27.2500 -27.5000 Du        
   8216 ****        -2.0000 -27.2500 -27.2500 Du        
   8217 ****        -2.0000 -27.2500 -27.0000 Du        
   8218 ****        -2.0000 -27.2500 -26.7500 Du        
   8219 ****        -2.0000 -27.2500 -26.5000 Du        
   8220 ****        -2.0000 -27.0000 -28.2500 Du        
   8221 ****        -2.0000 -27.0000 -28.0000 Du        
   8222 ****        -2.0000 -27.0000 -27.7500 Du        
   8223 ****        -2.0000 -27.0000 -27.5000 Du        
   8224 ****        -2.0000 -27.0000 -27.2500 Du        
   8225 ****        -2.0000 -27.0000 -27.0000 Du        
   8226 ****        -2.0000 -27.0000 -26.7500 Du        
   8227 ****        -2.0000 -27.0000 -26.5000 Du        
   8228 ****        -2.0000 -26.7500 -28.7500 Du        
   8229 ****        -2.0000 -26.7500 -28.5000 Du        
   8230 ****        -2.0000 -26.7500 -28.2500 Du        
   8231 ****        -2.0000 -26.7500 -28.0000 Du        
   8232 ****        -2.0000 -26.7500 -27.7500 Du        
   8233 ****        -2.0000 -26.7500 -27.5000 Du        
   8234 ****        -2.0000 -26.7500 -27.2500 Du        
   8235 ****        -2.0000 -26.7500 -27.0000 Du        
   8236 ****        -2.0000 -26.7500 -26.7500 Du        
   8237 ****        -2.0000 -26.5000 -28.7500 Du        
   8238 ****        -2.0000 -26.5000 -28.5000 Du        
   8239 ****        -2.0000 -26.5000 -28.2500 Du        
   8240 ****        -2.0000 -26.5000 -28.0000 Du        
   8241 ****        -2.0000 -26.5000 -27.7500 Du        
   8242 ****        -2.0000 -26.5000 -27.5000 Du        
   8243 ****        -2.0000 -26.5000 -27.2500 Du        
   8244 ****        -2.0000 -26.5000 -27.0000 Du        
   8245 ****        -2.0000 -26.2500 -29.0000 Du        
   8246 ****        -2.0000 -26.2500 -28.7500 Du        
   8247 ****        -2.0000 -26.2500 -28.5000 Du        
   8248 ****        -2.0000 -26.2500 -28.2500 Du        
   8249 ****        -2.0000 -26.2500 -28.0000 Du        
   8250 ****        -2.0000 -26.2500 -27.7500 Du        
   8251 ****        -2.0000 -26.2500 -27.5000 Du        
   8252 ****        -2.0000 -26.2500 -27.2500 Du        
   8253 ****        -2.0000 -26.0000 -29.0000 Du        
   8254 ****        -2.0000 -26.0000 -28.7500 Du        
   8255 ****        -2.0000 -26.0000 -28.5000 Du        
   8256 ****        -2.0000 -26.0000 -28.2500 Du        
   8257 ****        -2.0000 -26.0000 -28.0000 Du        
   8258 ****        -2.0000 -26.0000 -27.7500 Du        
   8259 ****        -2.0000 -25.7500 -29.0000 Du        
   8260 ****        -2.0000 -25.7500 -28.7500 Du        
   8261 ****        -2.0000 -25.7500 -28.5000 Du        
   8262 ****        -2.0000 -25.7500 -28.2500 Du        
   8263 ****        -2.0000 -25.7500 -22.5000 Du        
   8264 ****        -2.0000 -25.7500 -22.2500 Du        
   8265 ****        -2.0000 -25.7500 -22.0000 Du        
   8266 ****        -2.0000 -25.7500 -21.7500 Du        
   8267 ****        -2.0000 -25.5000 -29.0000 Du        
   8268 ****        -2.0000 -25.5000 -22.7500 Du        
   8269 ****        -2.0000 -25.5000 -22.5000 Du        
   8270 ****        -2.0000 -25.5000 -22.2500 Du        
   8271 ****        -2.0000 -25.5000 -22.0000 Du        
   8272 ****        -2.0000 -25.5000 -21.7500 Du        
   8273 ****        -2.0000 -25.5000 -21.5000 Du        
   8274 ****        -2.0000 -25.2500 -23.0000 Du        
   8275 ****        -2.0000 -25.2500 -22.7500 Du        
   8276 ****        -2.0000 -25.2500 -22.5000 Du        
   8277 ****        -2.0000 -25.2500 -22.2500 Du        
   8278 ****        -2.0000 -25.2500 -22.0000 Du        
   8279 ****        -2.0000 -25.2500 -21.7500 Du        
   8280 ****        -2.0000 -25.2500 -21.5000 Du        
   8281 ****        -2.0000 -25.0000 -23.2500 Du        
   8282 ****        -2.0000 -25.0000 -23.0000 Du        
   8283 ****        -2.0000 -25.0000 -22.7500 Du        
   8284 ****        -2.0000 -25.0000 -22.5000 Du        
   8285 ****        -2.0000 -25.0000 -22.2500 Du        
   8286 ****        -2.0000 -25.0000 -22.0000 Du        
   8287 ****        -2.0000 -25.0000 -21.7500 Du        
   8288 ****        -2.0000 -25.0000 -21.5000 Du        
   8289 ****        -2.0000 -24.7500 -23.2500 Du        
   8290 ****        -2.0000 -24.7500 -23.0000 Du        
   8291 ****        -2.0000 -24.7500 -22.7500 Du        
   8292 ****        -2.0000 -24.7500 -22.5000 Du        
   8293 ****        -2.0000 -24.7500 -22.2500 Du        
   8294 ****        -2.0000 -24.7500 -22.0000 Du        
   8295 ****        -2.0000 -24.7500 -21.7500 Du        
   8296 ****        -2.0000 -24.5000 -23.2500 Du        
   8297 ****        -2.0000 -24.5000 -23.0000 Du        
   8298 ****        -2.0000 -24.5000 -22.7500 Du        
   8299 ****        -2.0000 -24.5000 -22.5000 Du        
   8300 ****        -2.0000 -24.5000 -22.2500 Du        
   8301 ****        -2.0000 -24.5000 -22.0000 Du        
   8302 ****        -2.0000 -24.5000 -21.7500 Du        
   8303 ****        -2.0000 -24.2500 -23.2500 Du        
   8304 ****        -2.0000 -24.2500 -23.0000 Du        
   8305 ****        -2.0000 -24.2500 -22.7500 Du        
   8306 ****        -2.0000 -24.2500 -22.5000 Du        
   8307 ****        -2.0000 -24.2500 -22.2500 Du        
   8308 ****        -2.0000 -24.2500 -22.0000 Du        
   8309 ****        -2.0000 -24.2500 -21.7500 Du        
   8310 ****        -2.0000 -24.0000 -23.2500 Du        
   8311 ****        -2.0000 -24.0000 -23.0000 Du        
   8312 ****        -2.0000 -24.0000 -22.7500 Du        
   8313 ****        -2.0000 -24.0000 -22.5000 Du        
   8314 ****        -2.0000 -24.0000 -22.2500 Du        
   8315 ****        -2.0000 -24.0000 -22.0000 Du        
   8316 ****        -2.0000 -23.7500 -23.2500 Du        
   8317 ****        -2.0000 -23.7500 -23.0000 Du        
   8318 ****        -2.0000 -23.7500 -22.7500 Du        
   8319 ****        -2.0000 -23.7500 -22.5000 Du        
   8320 ****        -2.0000 -23.7500 -22.2500 Du        
   8321 ****        -2.0000 -23.7500 -22.0000 Du        
   8322 ****        -2.0000 -23.5000 -23.0000 Du        
   8323 ****        -2.0000 -23.5000 -22.7500 Du        
   8324 ****        -2.0000 -23.5000 -22.5000 Du        
   8325 ****        -1.7500 -32.0000 -25.5000 Du        
   8326 ****        -1.7500 -31.7500 -25.5000 Du        
   8327 ****        -1.7500 -31.5000 -26.0000 Du        
   8328 ****        -1.7500 -31.5000 -25.7500 Du        
   8329 ****        -1.7500 -31.5000 -25.5000 Du        
   8330 ****        -1.7500 -31.2500 -26.0000 Du        
   8331 ****        -1.7500 -31.2500 -25.7500 Du        
   8332 ****        -1.7500 -31.2500 -25.5000 Du        
   8333 ****        -1.7500 -31.0000 -26.0000 Du        
   8334 ****        -1.7500 -31.0000 -25.7500 Du        
   8335 ****        -1.7500 -31.0000 -25.5000 Du        
   8336 ****        -1.7500 -30.7500 -26.0000 Du        
   8337 ****        -1.7500 -30.7500 -25.7500 Du        
   8338 ****        -1.7500 -30.7500 -25.5000 Du        
   8339 ****        -1.7500 -30.5000 -26.2500 Du        
   8340 ****        -1.7500 -30.5000 -26.0000 Du        
   8341 ****        -1.7500 -30.5000 -25.7500 Du        
   8342 ****        -1.7500 -30.5000 -25.5000 Du        
   8343 ****        -1.7500 -30.2500 -26.2500 Du        
   8344 ****        -1.7500 -30.2500 -26.0000 Du        
   8345 ****        -1.7500 -30.2500 -25.7500 Du        
   8346 ****        -1.7500 -30.2500 -25.5000 Du        
   8347 ****        -1.7500 -30.2500 -25.2500 Du        
   8348 ****        -1.7500 -30.0000 -26.5000 Du        
   8349 ****        -1.7500 -30.0000 -26.2500 Du        
   8350 ****        -1.7500 -30.0000 -26.0000 Du        
   8351 ****        -1.7500 -30.0000 -25.7500 Du        
   8352 ****        -1.7500 -30.0000 -25.5000 Du        
   8353 ****        -1.7500 -30.0000 -25.2500 Du        
   8354 ****        -1.7500 -29.7500 -26.5000 Du        
   8355 ****        -1.7500 -29.7500 -26.2500 Du        
   8356 ****        -1.7500 -29.7500 -26.0000 Du        
   8357 ****        -1.7500 -29.7500 -25.7500 Du        
   8358 ****        -1.7500 -29.7500 -25.5000 Du        
   8359 ****        -1.7500 -29.7500 -25.2500 Du        
   8360 ****        -1.7500 -29.5000 -26.5000 Du        
   8361 ****        -1.7500 -29.5000 -26.2500 Du        
   8362 ****        -1.7500 -29.5000 -26.0000 Du        
   8363 ****        -1.7500 -29.5000 -25.7500 Du        
   8364 ****        -1.7500 -29.5000 -25.5000 Du        
   8365 ****        -1.7500 -29.5000 -25.2500 Du        
   8366 ****        -1.7500 -29.5000 -25.0000 Du        
   8367 ****        -1.7500 -29.2500 -26.5000 Du        
   8368 ****        -1.7500 -29.2500 -26.2500 Du        
   8369 ****        -1.7500 -29.2500 -26.0000 Du        
   8370 ****        -1.7500 -29.2500 -25.7500 Du        
   8371 ****        -1.7500 -29.2500 -25.5000 Du        
   8372 ****        -1.7500 -29.2500 -25.2500 Du        
   8373 ****        -1.7500 -29.2500 -25.0000 Du        
   8374 ****        -1.7500 -29.0000 -27.0000 Du        
   8375 ****        -1.7500 -29.0000 -26.7500 Du        
   8376 ****        -1.7500 -29.0000 -26.5000 Du        
   8377 ****        -1.7500 -29.0000 -26.2500 Du        
   8378 ****        -1.7500 -29.0000 -26.0000 Du        
   8379 ****        -1.7500 -29.0000 -25.7500 Du        
   8380 ****        -1.7500 -29.0000 -25.5000 Du        
   8381 ****        -1.7500 -29.0000 -25.2500 Du        
   8382 ****        -1.7500 -29.0000 -25.0000 Du        
   8383 ****        -1.7500 -28.7500 -27.0000 Du        
   8384 ****        -1.7500 -28.7500 -26.7500 Du        
   8385 ****        -1.7500 -28.7500 -26.5000 Du        
   8386 ****        -1.7500 -28.7500 -26.2500 Du        
   8387 ****        -1.7500 -28.7500 -26.0000 Du        
   8388 ****        -1.7500 -28.7500 -25.7500 Du        
   8389 ****        -1.7500 -28.7500 -25.5000 Du        
   8390 ****        -1.7500 -28.5000 -27.2500 Du        
   8391 ****        -1.7500 -28.5000 -27.0000 Du        
   8392 ****        -1.7500 -28.5000 -26.7500 Du        
   8393 ****        -1.7500 -28.5000 -26.5000 Du        
   8394 ****        -1.7500 -28.5000 -26.2500 Du        
   8395 ****        -1.7500 -28.5000 -26.0000 Du        
   8396 ****        -1.7500 -28.2500 -27.2500 Du        
   8397 ****        -1.7500 -28.2500 -27.0000 Du        
   8398 ****        -1.7500 -28.2500 -26.7500 Du        
   8399 ****        -1.7500 -28.2500 -26.5000 Du        
   8400 ****        -1.7500 -28.2500 -26.2500 Du        
   8401 ****        -1.7500 -28.2500 -26.0000 Du        
   8402 ****        -1.7500 -28.0000 -27.2500 Du        
   8403 ****        -1.7500 -28.0000 -27.0000 Du        
   8404 ****        -1.7500 -28.0000 -26.7500 Du        
   8405 ****        -1.7500 -28.0000 -26.5000 Du        
   8406 ****        -1.7500 -28.0000 -26.2500 Du        
   8407 ****        -1.7500 -27.7500 -27.2500 Du        
   8408 ****        -1.7500 -27.7500 -27.0000 Du        
   8409 ****        -1.7500 -27.7500 -26.7500 Du        
   8410 ****        -1.7500 -27.7500 -26.5000 Du        
   8411 ****        -1.7500 -27.5000 -28.0000 Du        
   8412 ****        -1.7500 -27.5000 -27.7500 Du        
   8413 ****        -1.7500 -27.5000 -27.5000 Du        
   8414 ****        -1.7500 -27.5000 -27.2500 Du        
   8415 ****        -1.7500 -27.5000 -27.0000 Du        
   8416 ****        -1.7500 -27.5000 -26.7500 Du        
   8417 ****        -1.7500 -27.2500 -28.2500 Du        
   8418 ****        -1.7500 -27.2500 -28.0000 Du        
   8419 ****        -1.7500 -27.2500 -27.7500 Du        
   8420 ****        -1.7500 -27.2500 -27.5000 Du        
   8421 ****        -1.7500 -27.2500 -27.2500 Du        
   8422 ****        -1.7500 -27.2500 -27.0000 Du        
   8423 ****        -1.7500 -27.2500 -26.7500 Du        
   8424 ****        -1.7500 -27.0000 -28.2500 Du        
   8425 ****        -1.7500 -27.0000 -28.0000 Du        
   8426 ****        -1.7500 -27.0000 -27.7500 Du        
   8427 ****        -1.7500 -27.0000 -27.5000 Du        
   8428 ****        -1.7500 -27.0000 -27.2500 Du        
   8429 ****        -1.7500 -27.0000 -27.0000 Du        
   8430 ****        -1.7500 -26.7500 -28.7500 Du        
   8431 ****        -1.7500 -26.7500 -28.5000 Du        
   8432 ****        -1.7500 -26.7500 -28.2500 Du        
   8433 ****        -1.7500 -26.7500 -28.0000 Du        
   8434 ****        -1.7500 -26.7500 -27.7500 Du        
   8435 ****        -1.7500 -26.7500 -27.5000 Du        
   8436 ****        -1.7500 -26.7500 -27.2500 Du        
   8437 ****        -1.7500 -26.5000 -28.7500 Du        
   8438 ****        -1.7500 -26.5000 -28.5000 Du        
   8439 ****        -1.7500 -26.5000 -28.2500 Du        
   8440 ****        -1.7500 -26.5000 -28.0000 Du        
   8441 ****        -1.7500 -26.5000 -27.7500 Du        
   8442 ****        -1.7500 -26.5000 -27.5000 Du        
   8443 ****        -1.7500 -26.5000 -27.2500 Du        
   8444 ****        -1.7500 -26.2500 -29.0000 Du        
   8445 ****        -1.7500 -26.2500 -28.7500 Du        
   8446 ****        -1.7500 -26.2500 -28.5000 Du        
   8447 ****        -1.7500 -26.2500 -28.2500 Du        
   8448 ****        -1.7500 -26.2500 -28.0000 Du        
   8449 ****        -1.7500 -26.2500 -27.7500 Du        
   8450 ****        -1.7500 -26.0000 -29.0000 Du        
   8451 ****        -1.7500 -26.0000 -28.7500 Du        
   8452 ****        -1.7500 -26.0000 -28.5000 Du        
   8453 ****        -1.7500 -26.0000 -28.2500 Du        
   8454 ****        -1.7500 -26.0000 -28.0000 Du        
   8455 ****        -1.7500 -25.7500 -29.0000 Du        
   8456 ****        -1.7500 -25.7500 -28.7500 Du        
   8457 ****        -1.7500 -25.7500 -28.5000 Du        
   8458 ****        -1.7500 -25.7500 -28.2500 Du        
   8459 ****        -1.7500 -25.5000 -29.0000 Du        
   8460 ****        -1.7500 -25.5000 -28.7500 Du        
   8461 ****        -1.7500 -25.2500 -22.7500 Du        
   8462 ****        -1.7500 -25.2500 -22.5000 Du        
   8463 ****        -1.7500 -25.2500 -22.2500 Du        
   8464 ****        -1.7500 -25.2500 -22.0000 Du        
   8465 ****        -1.7500 -25.0000 -22.7500 Du        
   8466 ****        -1.7500 -25.0000 -22.5000 Du        
   8467 ****        -1.7500 -25.0000 -22.2500 Du        
   8468 ****        -1.7500 -25.0000 -22.0000 Du        
   8469 ****        -1.7500 -24.7500 -23.0000 Du        
   8470 ****        -1.7500 -24.7500 -22.7500 Du        
   8471 ****        -1.7500 -24.7500 -22.5000 Du        
   8472 ****        -1.7500 -24.7500 -22.2500 Du        
   8473 ****        -1.7500 -24.7500 -22.0000 Du        
   8474 ****        -1.7500 -24.5000 -23.0000 Du        
   8475 ****        -1.7500 -24.5000 -22.7500 Du        
   8476 ****        -1.7500 -24.5000 -22.5000 Du        
   8477 ****        -1.7500 -24.5000 -22.2500 Du        
   8478 ****        -1.7500 -24.5000 -22.0000 Du        
   8479 ****        -1.7500 -24.2500 -23.0000 Du        
   8480 ****        -1.7500 -24.2500 -22.7500 Du        
   8481 ****        -1.7500 -24.2500 -22.5000 Du        
   8482 ****        -1.7500 -24.2500 -22.2500 Du        
   8483 ****        -1.7500 -24.0000 -23.0000 Du        
   8484 ****        -1.7500 -24.0000 -22.7500 Du        
   8485 ****        -1.7500 -24.0000 -22.5000 Du        
   8486 ****        -1.7500 -24.0000 -22.2500 Du        
   8487 ****        -1.7500 -23.7500 -23.0000 Du        
   8488 ****        -1.7500 -23.7500 -22.7500 Du        
   8489 ****        -1.7500 -23.7500 -22.5000 Du        
   8490 ****        -1.5000 -30.7500 -26.0000 Du        
   8491 ****        -1.5000 -30.5000 -26.2500 Du        
   8492 ****        -1.5000 -30.5000 -26.0000 Du        
   8493 ****        -1.5000 -30.5000 -25.7500 Du        
   8494 ****        -1.5000 -30.5000 -25.5000 Du        
   8495 ****        -1.5000 -30.2500 -26.2500 Du        
   8496 ****        -1.5000 -30.2500 -26.0000 Du        
   8497 ****        -1.5000 -30.2500 -25.7500 Du        
   8498 ****        -1.5000 -30.2500 -25.5000 Du        
   8499 ****        -1.5000 -30.0000 -26.5000 Du        
   8500 ****        -1.5000 -30.0000 -26.2500 Du        
   8501 ****        -1.5000 -30.0000 -26.0000 Du        
   8502 ****        -1.5000 -30.0000 -25.7500 Du        
   8503 ****        -1.5000 -30.0000 -25.5000 Du        
   8504 ****        -1.5000 -29.7500 -26.5000 Du        
   8505 ****        -1.5000 -29.7500 -26.2500 Du        
   8506 ****        -1.5000 -29.7500 -26.0000 Du        
   8507 ****        -1.5000 -29.7500 -25.7500 Du        
   8508 ****        -1.5000 -29.7500 -25.5000 Du        
   8509 ****        -1.5000 -29.7500 -25.2500 Du        
   8510 ****        -1.5000 -29.5000 -26.5000 Du        
   8511 ****        -1.5000 -29.5000 -26.2500 Du        
   8512 ****        -1.5000 -29.5000 -26.0000 Du        
   8513 ****        -1.5000 -29.5000 -25.7500 Du        
   8514 ****        -1.5000 -29.5000 -25.5000 Du        
   8515 ****        -1.5000 -29.5000 -25.2500 Du        
   8516 ****        -1.5000 -29.2500 -26.5000 Du        
   8517 ****        -1.5000 -29.2500 -26.2500 Du        
   8518 ****        -1.5000 -29.2500 -26.0000 Du        
   8519 ****        -1.5000 -29.2500 -25.7500 Du        
   8520 ****        -1.5000 -29.2500 -25.5000 Du        
   8521 ****        -1.5000 -29.0000 -26.7500 Du        
   8522 ****        -1.5000 -29.0000 -26.5000 Du        
   8523 ****        -1.5000 -29.0000 -26.2500 Du        
   8524 ****        -1.5000 -29.0000 -26.0000 Du        
   8525 ****        -1.5000 -29.0000 -25.7500 Du        
   8526 ****        -1.5000 -29.0000 -25.5000 Du        
   8527 ****        -1.5000 -28.7500 -27.0000 Du        
   8528 ****        -1.5000 -28.7500 -26.7500 Du        
   8529 ****        -1.5000 -28.7500 -26.5000 Du        
   8530 ****        -1.5000 -28.7500 -26.2500 Du        
   8531 ****        -1.5000 -28.7500 -26.0000 Du        
   8532 ****        -1.5000 -28.5000 -26.7500 Du        
   8533 ****        -1.5000 -28.5000 -26.5000 Du        
   8534 ****        -1.5000 -28.5000 -26.2500 Du        
   8535 ****        -1.5000 -28.2500 -27.2500 Du        
   8536 ****        -1.5000 -28.2500 -27.0000 Du        
   8537 ****        -1.5000 -28.2500 -26.7500 Du        
   8538 ****        -1.5000 -28.2500 -26.5000 Du        
   8539 ****        -1.5000 -28.0000 -27.2500 Du        
   8540 ****        -1.5000 -28.0000 -27.0000 Du        
   8541 ****        -1.5000 -27.7500 -27.2500 Du        
   8542 ****        -1.5000 -27.7500 -27.0000 Du        
   8543 ****        -1.5000 -27.5000 -27.2500 Du        
   8544 ****        -1.5000 -27.5000 -27.0000 Du        
   8545 ****        -1.5000 -27.2500 -28.0000 Du        
   8546 ****        -1.5000 -27.2500 -27.7500 Du        
   8547 ****        -1.5000 -27.2500 -27.5000 Du        
   8548 ****        -1.5000 -27.2500 -27.2500 Du        
   8549 ****        -1.5000 -27.0000 -28.2500 Du        
   8550 ****        -1.5000 -27.0000 -28.0000 Du        
   8551 ****        -1.5000 -27.0000 -27.7500 Du        
   8552 ****        -1.5000 -27.0000 -27.5000 Du        
   8553 ****        -1.5000 -26.7500 -28.5000 Du        
   8554 ****        -1.5000 -26.7500 -28.2500 Du        
   8555 ****        -1.5000 -26.7500 -28.0000 Du        
   8556 ****        -1.5000 -26.7500 -27.7500 Du        
   8557 ****        -1.5000 -26.5000 -28.7500 Du        
   8558 ****        -1.5000 -26.5000 -28.5000 Du        
   8559 ****        -1.5000 -26.5000 -28.2500 Du        
   8560 ****        -1.5000 -26.5000 -28.0000 Du        
   8561 ****        -1.5000 -26.5000 -27.7500 Du        
   8562 ****        -1.5000 -26.2500 -29.0000 Du        
   8563 ****        -1.5000 -26.2500 -28.7500 Du        
   8564 ****        -1.5000 -26.2500 -28.5000 Du        
   8565 ****        -1.5000 -26.2500 -28.2500 Du        
   8566 ****        -1.5000 -26.2500 -28.0000 Du        
   8567 ****        -1.5000 -26.0000 -29.0000 Du        
   8568 ****        -1.5000 -26.0000 -28.7500 Du        
   8569 ****        -1.5000 -26.0000 -28.5000 Du        
   8570 ****        -1.5000 -26.0000 -28.2500 Du        
   8571 ****        -1.5000 -26.0000 -28.0000 Du        
   8572 ****        -1.5000 -25.7500 -29.0000 Du        
   8573 ****        -1.5000 -25.7500 -28.7500 Du        
   8574 ****        -1.5000 -25.7500 -28.5000 Du        
   8575 ****        -1.5000 -25.7500 -28.2500 Du        
   8576 ****        -1.5000 -25.5000 -29.0000 Du        
   8577 ****        -1.5000 -25.5000 -28.7500 Du        
   8578 ****        -1.5000 -16.5000 -27.2500 Du        
   8579 ****        -1.5000 -16.5000 -27.0000 Du        
   8580 ****        -1.5000 -16.2500 -27.2500 Du        
   8581 ****        -1.5000 -16.2500 -27.0000 Du        
   8582 ****        -1.5000 -16.2500 -26.7500 Du        
   8583 ****        -1.5000 -16.0000 -27.0000 Du        
   8584 ****        -1.2500 -30.2500 -26.2500 Du        
   8585 ****        -1.2500 -30.2500 -26.0000 Du        
   8586 ****        -1.2500 -30.0000 -30.0000 Du        
   8587 ****        -1.2500 -30.0000 -26.5000 Du        
   8588 ****        -1.2500 -30.0000 -26.2500 Du        
   8589 ****        -1.2500 -30.0000 -26.0000 Du        
   8590 ****        -1.2500 -29.7500 -26.5000 Du        
   8591 ****        -1.2500 -29.7500 -26.2500 Du        
   8592 ****        -1.2500 -29.7500 -26.0000 Du        
   8593 ****        -1.2500 -29.5000 -26.2500 Du        
   8594 ****        -1.2500 -29.5000 -26.0000 Du        
   8595 ****        -1.2500 -29.2500 -26.5000 Du        
   8596 ****        -1.2500 -29.2500 -26.2500 Du        
   8597 ****        -1.2500 -29.2500 -26.0000 Du        
   8598 ****        -1.2500 -29.0000 -26.5000 Du        
   8599 ****        -1.2500 -29.0000 -26.2500 Du        
   8600 ****        -1.2500 -27.2500 -27.7500 Du        
   8601 ****        -1.2500 -27.0000 -28.2500 Du        
   8602 ****        -1.2500 -27.0000 -28.0000 Du        
   8603 ****        -1.2500 -27.0000 -27.7500 Du        
   8604 ****        -1.2500 -26.7500 -28.5000 Du        
   8605 ****        -1.2500 -26.7500 -28.2500 Du        
   8606 ****        -1.2500 -26.7500 -28.0000 Du        
   8607 ****        -1.2500 -26.7500 -27.7500 Du        
   8608 ****        -1.2500 -26.5000 -29.0000 Du        
   8609 ****        -1.2500 -26.5000 -28.7500 Du        
   8610 ****        -1.2500 -26.5000 -28.5000 Du        
   8611 ****        -1.2500 -26.5000 -28.2500 Du        
   8612 ****        -1.2500 -26.5000 -28.0000 Du        
   8613 ****        -1.2500 -26.2500 -29.0000 Du        
   8614 ****        -1.2500 -26.2500 -28.7500 Du        
   8615 ****        -1.2500 -26.2500 -28.5000 Du        
   8616 ****        -1.2500 -26.2500 -28.2500 Du        
   8617 ****        -1.2500 -26.2500 -28.0000 Du        
   8618 ****        -1.2500 -26.0000 -29.0000 Du        
   8619 ****        -1.2500 -26.0000 -28.7500 Du        
   8620 ****        -1.2500 -26.0000 -28.5000 Du        
   8621 ****        -1.2500 -26.0000 -28.2500 Du        
   8622 ****        -1.2500 -25.7500 -29.2500 Du        
   8623 ****        -1.2500 -25.7500 -29.0000 Du        
   8624 ****        -1.2500 -25.7500 -28.7500 Du        
   8625 ****        -1.2500 -25.7500 -28.5000 Du        
   8626 ****        -1.2500 -25.7500 -28.2500 Du        
   8627 ****        -1.2500 -25.5000 -29.2500 Du        
   8628 ****        -1.2500 -25.5000 -29.0000 Du        
   8629 ****        -1.2500 -25.5000 -28.7500 Du        
   8630 ****        -1.2500 -25.2500 -29.0000 Du        
   8631 ****        -1.2500 -16.5000 -27.2500 Du        
   8632 ****        -1.2500 -16.5000 -27.0000 Du        
   8633 ****        -1.0000 -30.0000 -30.0000 Du        
   8634 ****        -1.0000 -27.0000 -28.0000 Du        
   8635 ****        -1.0000 -26.7500 -28.2500 Du        
   8636 ****        -1.0000 -26.7500 -28.0000 Du        
   8637 ****        -1.0000 -26.5000 -29.0000 Du        
   8638 ****        -1.0000 -26.5000 -28.7500 Du        
   8639 ****        -1.0000 -26.5000 -28.5000 Du        
   8640 ****        -1.0000 -26.5000 -28.2500 Du        
   8641 ****        -1.0000 -26.2500 -29.0000 Du        
   8642 ****        -1.0000 -26.2500 -28.7500 Du        
   8643 ****        -1.0000 -26.2500 -28.5000 Du        
   8644 ****        -1.0000 -26.2500 -28.2500 Du        
   8645 ****        -1.0000 -26.0000 -29.2500 Du        
   8646 ****        -1.0000 -26.0000 -29.0000 Du        
   8647 ****        -1.0000 -26.0000 -28.7500 Du        
   8648 ****        -1.0000 -26.0000 -28.5000 Du        
   8649 ****        -1.0000 -26.0000 -28.2500 Du        
   8650 ****        -1.0000 -25.7500 -29.2500 Du        
   8651 ****        -1.0000 -25.7500 -29.0000 Du        
   8652 ****        -1.0000 -25.7500 -28.7500 Du        
   8653 ****        -1.0000 -25.7500 -28.5000 Du        
   8654 ****        -1.0000 -25.5000 -29.2500 Du        
   8655 ****        -1.0000 -25.5000 -29.0000 Du        
   8656 ****        -1.0000 -25.5000 -28.7500 Du        
   8657 ****        -1.0000 -25.2500 -29.0000 Du        
   8658 ****        -1.0000 -25.2500 -28.7500 Du        
   8659 ****        -1.0000 -17.0000 -27.7500 Du        
   8660 ****        -1.0000 -16.7500 -27.7500 Du        
   8661 ****        -1.0000 -16.7500 -27.5000 Du        
   8662 ****        -1.0000 -16.7500 -27.2500 Du        
   8663 ****        -1.0000 -16.5000 -27.7500 Du        
   8664 ****        -1.0000 -16.5000 -27.5000 Du        
   8665 ****        -1.0000 -16.5000 -27.2500 Du        
   8666 ****        -1.0000 -16.5000 -27.0000 Du        
   8667 ****        -0.7500 -30.0000 -30.0000 Du        
   8668 ****        -0.7500 -26.7500 -28.7500 Du        
   8669 ****        -0.7500 -26.5000 -29.0000 Du        
   8670 ****        -0.7500 -26.5000 -28.7500 Du        
   8671 ****        -0.7500 -26.5000 -28.5000 Du        
   8672 ****        -0.7500 -26.5000 -28.2500 Du        
   8673 ****        -0.7500 -26.2500 -29.2500 Du        
   8674 ****        -0.7500 -26.2500 -29.0000 Du        
   8675 ****        -0.7500 -26.2500 -28.7500 Du        
   8676 ****        -0.7500 -26.2500 -28.5000 Du        
   8677 ****        -0.7500 -26.2500 -28.2500 Du        
   8678 ****        -0.7500 -26.0000 -29.2500 Du        
   8679 ****        -0.7500 -26.0000 -29.0000 Du        
   8680 ****        -0.7500 -26.0000 -28.7500 Du        
   8681 ****        -0.7500 -26.0000 -28.5000 Du        
   8682 ****        -0.7500 -25.7500 -29.2500 Du        
   8683 ****        -0.7500 -25.7500 -29.0000 Du        
   8684 ****        -0.7500 -25.7500 -28.7500 Du        
   8685 ****        -0.7500 -25.7500 -28.5000 Du        
   8686 ****        -0.7500 -25.5000 -29.2500 Du        
   8687 ****        -0.7500 -25.5000 -29.0000 Du        
   8688 ****        -0.7500 -25.5000 -28.7500 Du        
   8689 ****        -0.7500 -25.2500 -29.2500 Du        
   8690 ****        -0.7500 -25.2500 -29.0000 Du        
   8691 ****        -0.7500 -25.2500 -28.7500 Du        
   8692 ****        -0.7500 -25.0000 -29.0000 Du        
   8693 ****        -0.7500 -17.2500 -28.0000 Du        
   8694 ****        -0.7500 -17.2500 -27.7500 Du        
   8695 ****        -0.7500 -17.0000 -28.0000 Du        
   8696 ****        -0.7500 -17.0000 -27.7500 Du        
   8697 ****        -0.7500 -16.7500 -28.0000 Du        
   8698 ****        -0.7500 -16.7500 -27.7500 Du        
   8699 ****        -0.7500 -16.7500 -27.5000 Du        
   8700 ****        -0.7500 -16.7500 -27.2500 Du        
   8701 ****        -0.7500 -16.5000 -28.0000 Du        
   8702 ****        -0.7500 -16.5000 -27.7500 Du        
   8703 ****        -0.7500 -16.5000 -27.5000 Du        
   8704 ****        -0.7500 -16.5000 -27.2500 Du        
   8705 ****        -0.5000 -26.5000 -29.0000 Du        
   8706 ****        -0.5000 -26.5000 -28.7500 Du        
   8707 ****        -0.5000 -26.2500 -29.2500 Du        
   8708 ****        -0.5000 -26.2500 -29.0000 Du        
   8709 ****        -0.5000 -26.2500 -28.7500 Du        
   8710 ****        -0.5000 -26.2500 -28.5000 Du        
   8711 ****        -0.5000 -26.0000 -29.2500 Du        
   8712 ****        -0.5000 -26.0000 -29.0000 Du        
   8713 ****        -0.5000 -26.0000 -28.7500 Du        
   8714 ****        -0.5000 -25.7500 -29.2500 Du        
   8715 ****        -0.5000 -25.7500 -29.0000 Du        
   8716 ****        -0.5000 -25.7500 -28.7500 Du        
   8717 ****        -0.5000 -25.5000 -29.2500 Du        
   8718 ****        -0.5000 -25.5000 -29.0000 Du        
   8719 ****        -0.5000 -25.5000 -28.7500 Du        
   8720 ****        -0.5000 -25.2500 -29.2500 Du        
   8721 ****        -0.5000 -25.2500 -29.0000 Du        
   8722 ****        -0.5000 -25.2500 -28.7500 Du        
   8723 ****        -0.5000 -25.0000 -29.2500 Du        
   8724 ****        -0.5000 -25.0000 -29.0000 Du        
   8725 ****        -0.5000 -17.7500 -28.2500 Du        
   8726 ****        -0.5000 -17.7500 -28.0000 Du        
   8727 ****        -0.5000 -17.5000 -28.2500 Du        
   8728 ****        -0.5000 -17.5000 -28.0000 Du        
   8729 ****        -0.5000 -17.5000 -27.7500 Du        
   8730 ****        -0.5000 -17.2500 -28.2500 Du        
   8731 ****        -0.5000 -17.2500 -28.0000 Du        
   8732 ****        -0.5000 -17.2500 -27.7500 Du        
   8733 ****        -0.5000 -17.0000 -28.2500 Du        
   8734 ****        -0.5000 -17.0000 -28.0000 Du        
   8735 ****        -0.5000 -17.0000 -27.7500 Du        
   8736 ****        -0.5000 -17.0000 -27.5000 Du        
   8737 ****        -0.5000 -16.7500 -28.2500 Du        
   8738 ****        -0.5000 -16.7500 -28.0000 Du        
   8739 ****        -0.5000 -16.7500 -27.7500 Du        
   8740 ****        -0.5000 -16.7500 -27.5000 Du        
   8741 ****        -0.5000 -16.7500 -27.2500 Du        
   8742 ****        -0.5000 -16.5000 -28.2500 Du        
   8743 ****        -0.5000 -16.5000 -28.0000 Du        
   8744 ****        -0.5000 -16.5000 -27.7500 Du        
   8745 ****        -0.5000 -16.5000 -27.5000 Du        
   8746 ****        -0.5000 -16.5000 -27.2500 Du        
   8747 ****        -0.2500 -26.7500 -28.7500 Du        
   8748 ****        -0.2500 -26.5000 -29.0000 Du        
   8749 ****        -0.2500 -26.5000 -28.7500 Du        
   8750 ****        -0.2500 -26.2500 -29.2500 Du        
   8751 ****        -0.2500 -26.2500 -29.0000 Du        
   8752 ****        -0.2500 -26.2500 -28.7500 Du        
   8753 ****        -0.2500 -26.0000 -29.2500 Du        
   8754 ****        -0.2500 -26.0000 -29.0000 Du        
   8755 ****        -0.2500 -26.0000 -28.7500 Du        
   8756 ****        -0.2500 -25.7500 -29.5000 Du        
   8757 ****        -0.2500 -25.7500 -29.2500 Du        
   8758 ****        -0.2500 -25.7500 -29.0000 Du        
   8759 ****        -0.2500 -25.7500 -28.7500 Du        
   8760 ****        -0.2500 -25.5000 -29.5000 Du        
   8761 ****        -0.2500 -25.5000 -29.2500 Du        
   8762 ****        -0.2500 -25.5000 -29.0000 Du        
   8763 ****        -0.2500 -25.5000 -28.7500 Du        
   8764 ****        -0.2500 -25.2500 -29.5000 Du        
   8765 ****        -0.2500 -25.2500 -29.2500 Du        
   8766 ****        -0.2500 -25.2500 -29.0000 Du        
   8767 ****        -0.2500 -25.0000 -29.2500 Du        
   8768 ****        -0.2500 -25.0000 -29.0000 Du        
   8769 ****        -0.2500 -24.7500 -29.2500 Du        
   8770 ****         0.0000 -26.7500 -29.0000 Du        
   8771 ****         0.0000 -26.7500 -28.7500 Du        
   8772 ****         0.0000 -26.5000 -29.2500 Du        
   8773 ****         0.0000 -26.5000 -29.0000 Du        
   8774 ****         0.0000 -26.5000 -28.7500 Du        
   8775 ****         0.0000 -26.2500 -29.2500 Du        
   8776 ****         0.0000 -26.2500 -29.0000 Du        
   8777 ****         0.0000 -26.2500 -28.7500 Du        
   8778 ****         0.0000 -26.0000 -29.5000 Du        
   8779 ****         0.0000 -26.0000 -29.2500 Du        
   8780 ****         0.0000 -26.0000 -29.0000 Du        
   8781 ****         0.0000 -26.0000 -28.7500 Du        
   8782 ****         0.0000 -25.7500 -29.5000 Du        
   8783 ****         0.0000 -25.7500 -29.2500 Du        
   8784 ****         0.0000 -25.7500 -29.0000 Du        
   8785 ****         0.0000 -25.5000 -29.5000 Du        
   8786 ****         0.0000 -25.5000 -29.2500 Du        
   8787 ****         0.0000 -25.5000 -29.0000 Du        
   8788 ****         0.0000 -25.2500 -29.5000 Du        
   8789 ****         0.0000 -25.2500 -29.2500 Du        
   8790 ****         0.0000 -25.2500 -29.0000 Du        
   8791 ****         0.0000 -25.0000 -29.5000 Du        
   8792 ****         0.0000 -25.0000 -29.2500 Du        
   8793 ****         0.0000 -25.0000 -29.0000 Du        
   8794 ****         0.0000 -24.7500 -29.5000 Du        
   8795 ****         0.0000 -24.7500 -29.2500 Du        
   8796 ****         0.0000 -24.5000 -29.5000 Du        
   8797 ****         0.0000 -24.5000 -29.2500 Du        
   8798 ****         0.2500 -26.7500 -29.0000 Du        
   8799 ****         0.2500 -26.7500 -28.7500 Du        
   8800 ****         0.2500 -26.5000 -29.2500 Du        
   8801 ****         0.2500 -26.5000 -29.0000 Du        
   8802 ****         0.2500 -26.5000 -28.7500 Du        
   8803 ****         0.2500 -26.2500 -29.5000 Du        
   8804 ****         0.2500 -26.2500 -29.2500 Du        
   8805 ****         0.2500 -26.2500 -29.0000 Du        
   8806 ****         0.2500 -26.2500 -28.7500 Du        
   8807 ****         0.2500 -26.0000 -29.5000 Du        
   8808 ****         0.2500 -26.0000 -29.2500 Du        
   8809 ****         0.2500 -26.0000 -29.0000 Du        
   8810 ****         0.2500 -26.0000 -28.7500 Du        
   8811 ****         0.2500 -25.7500 -29.5000 Du        
   8812 ****         0.2500 -25.7500 -29.2500 Du        
   8813 ****         0.2500 -25.7500 -29.0000 Du        
   8814 ****         0.2500 -25.5000 -29.7500 Du        
   8815 ****         0.2500 -25.5000 -29.5000 Du        
   8816 ****         0.2500 -25.5000 -29.2500 Du        
   8817 ****         0.2500 -25.5000 -29.0000 Du        
   8818 ****         0.2500 -25.2500 -29.7500 Du        
   8819 ****         0.2500 -25.2500 -29.5000 Du        
   8820 ****         0.2500 -25.2500 -29.2500 Du        
   8821 ****         0.2500 -25.2500 -29.0000 Du        
   8822 ****         0.2500 -25.0000 -29.5000 Du        
   8823 ****         0.2500 -25.0000 -29.2500 Du        
   8824 ****         0.2500 -24.7500 -29.5000 Du        
   8825 ****         0.2500 -24.7500 -29.2500 Du        
   8826 ****         0.2500 -24.5000 -29.5000 Du        
   8827 ****         0.2500 -24.5000 -29.2500 Du        
   8828 ****         0.2500 -24.2500 -29.5000 Du        
   8829 ****         0.2500 -24.2500 -29.2500 Du        
   8830 ****         0.5000 -26.7500 -29.0000 Du        
   8831 ****         0.5000 -26.7500 -28.7500 Du        
   8832 ****         0.5000 -26.5000 -29.2500 Du        
   8833 ****         0.5000 -26.5000 -29.0000 Du        
   8834 ****         0.5000 -26.5000 -28.7500 Du        
   8835 ****         0.5000 -26.2500 -29.7500 Du        
   8836 ****         0.5000 -26.2500 -29.5000 Du        
   8837 ****         0.5000 -26.2500 -29.2500 Du        
   8838 ****         0.5000 -26.2500 -29.0000 Du        
   8839 ****         0.5000 -26.0000 -29.7500 Du        
   8840 ****         0.5000 -26.0000 -29.5000 Du        
   8841 ****         0.5000 -26.0000 -29.2500 Du        
   8842 ****         0.5000 -26.0000 -29.0000 Du        
   8843 ****         0.5000 -25.7500 -29.7500 Du        
   8844 ****         0.5000 -25.7500 -29.5000 Du        
   8845 ****         0.5000 -25.7500 -29.2500 Du        
   8846 ****         0.5000 -25.7500 -29.0000 Du        
   8847 ****         0.5000 -25.5000 -29.7500 Du        
   8848 ****         0.5000 -25.5000 -29.5000 Du        
   8849 ****         0.5000 -25.5000 -29.2500 Du        
   8850 ****         0.5000 -25.2500 -29.7500 Du        
   8851 ****         0.5000 -25.2500 -29.5000 Du        
   8852 ****         0.5000 -25.2500 -29.2500 Du        
   8853 ****         0.5000 -25.0000 -29.7500 Du        
   8854 ****         0.5000 -25.0000 -29.5000 Du        
   8855 ****         0.5000 -25.0000 -29.2500 Du        
   8856 ****         0.5000 -24.7500 -29.5000 Du        
   8857 ****         0.5000 -24.7500 -29.2500 Du        
   8858 ****         0.5000 -24.5000 -29.5000 Du        
   8859 ****         0.5000 -19.5000 -28.5000 Du        
   8860 ****         0.7500 -30.0000 -30.7500 Du        
   8861 ****         0.7500 -27.0000 -29.0000 Du        
   8862 ****         0.7500 -27.0000 -28.7500 Du        
   8863 ****         0.7500 -26.7500 -29.2500 Du        
   8864 ****         0.7500 -26.7500 -29.0000 Du        
   8865 ****         0.7500 -26.7500 -28.7500 Du        
   8866 ****         0.7500 -26.5000 -29.7500 Du        
   8867 ****         0.7500 -26.5000 -29.5000 Du        
   8868 ****         0.7500 -26.5000 -29.2500 Du        
   8869 ****         0.7500 -26.5000 -29.0000 Du        
   8870 ****         0.7500 -26.5000 -28.7500 Du        
   8871 ****         0.7500 -26.2500 -29.7500 Du        
   8872 ****         0.7500 -26.2500 -29.5000 Du        
   8873 ****         0.7500 -26.2500 -29.2500 Du        
   8874 ****         0.7500 -26.2500 -29.0000 Du        
   8875 ****         0.7500 -26.2500 -28.7500 Du        
   8876 ****         0.7500 -26.0000 -30.0000 Du        
   8877 ****         0.7500 -26.0000 -29.7500 Du        
   8878 ****         0.7500 -26.0000 -29.5000 Du        
   8879 ****         0.7500 -26.0000 -29.2500 Du        
   8880 ****         0.7500 -26.0000 -29.0000 Du        
   8881 ****         0.7500 -25.7500 -30.0000 Du        
   8882 ****         0.7500 -25.7500 -29.7500 Du        
   8883 ****         0.7500 -25.7500 -29.5000 Du        
   8884 ****         0.7500 -25.7500 -29.2500 Du        
   8885 ****         0.7500 -25.7500 -29.0000 Du        
   8886 ****         0.7500 -25.5000 -30.0000 Du        
   8887 ****         0.7500 -25.5000 -29.7500 Du        
   8888 ****         0.7500 -25.5000 -29.5000 Du        
   8889 ****         0.7500 -25.5000 -29.2500 Du        
   8890 ****         0.7500 -25.2500 -29.7500 Du        
   8891 ****         0.7500 -25.2500 -29.5000 Du        
   8892 ****         0.7500 -25.2500 -29.2500 Du        
   8893 ****         0.7500 -20.2500 -28.5000 Du        
   8894 ****         0.7500 -20.2500 -28.2500 Du        
   8895 ****         0.7500 -20.0000 -28.7500 Du        
   8896 ****         0.7500 -20.0000 -28.5000 Du        
   8897 ****         0.7500 -20.0000 -28.2500 Du        
   8898 ****         0.7500 -19.7500 -28.7500 Du        
   8899 ****         0.7500 -19.7500 -28.5000 Du        
   8900 ****         0.7500 -19.7500 -28.2500 Du        
   8901 ****         0.7500 -19.5000 -29.0000 Du        
   8902 ****         0.7500 -19.5000 -28.7500 Du        
   8903 ****         0.7500 -19.5000 -28.5000 Du        
   8904 ****         0.7500 -19.5000 -28.2500 Du        
   8905 ****         0.7500 -19.5000 -28.0000 Du        
   8906 ****         1.0000 -29.7500 -30.7500 Du        
   8907 ****         1.0000 -27.2500 -29.2500 Du        
   8908 ****         1.0000 -27.2500 -29.0000 Du        
   8909 ****         1.0000 -27.2500 -28.7500 Du        
   8910 ****         1.0000 -27.0000 -29.2500 Du        
   8911 ****         1.0000 -27.0000 -29.0000 Du        
   8912 ****         1.0000 -27.0000 -28.7500 Du        
   8913 ****         1.0000 -26.7500 -29.5000 Du        
   8914 ****         1.0000 -26.7500 -29.2500 Du        
   8915 ****         1.0000 -26.7500 -29.0000 Du        
   8916 ****         1.0000 -26.7500 -28.7500 Du        
   8917 ****         1.0000 -26.5000 -29.7500 Du        
   8918 ****         1.0000 -26.5000 -29.5000 Du        
   8919 ****         1.0000 -26.5000 -29.2500 Du        
   8920 ****         1.0000 -26.5000 -29.0000 Du        
   8921 ****         1.0000 -26.5000 -28.7500 Du        
   8922 ****         1.0000 -26.2500 -30.0000 Du        
   8923 ****         1.0000 -26.2500 -29.7500 Du        
   8924 ****         1.0000 -26.2500 -29.5000 Du        
   8925 ****         1.0000 -26.2500 -29.2500 Du        
   8926 ****         1.0000 -26.2500 -29.0000 Du        
   8927 ****         1.0000 -26.2500 -28.7500 Du        
   8928 ****         1.0000 -26.0000 -30.0000 Du        
   8929 ****         1.0000 -26.0000 -29.7500 Du        
   8930 ****         1.0000 -26.0000 -29.5000 Du        
   8931 ****         1.0000 -26.0000 -29.2500 Du        
   8932 ****         1.0000 -26.0000 -29.0000 Du        
   8933 ****         1.0000 -25.7500 -30.0000 Du        
   8934 ****         1.0000 -25.7500 -29.7500 Du        
   8935 ****         1.0000 -25.7500 -29.5000 Du        
   8936 ****         1.0000 -25.7500 -29.2500 Du        
   8937 ****         1.0000 -25.5000 -29.7500 Du        
   8938 ****         1.0000 -25.5000 -29.5000 Du        
   8939 ****         1.0000 -25.5000 -29.2500 Du        
   8940 ****         1.0000 -21.7500 -28.7500 Du        
   8941 ****         1.0000 -21.5000 -28.7500 Du        
   8942 ****         1.0000 -21.5000 -28.5000 Du        
   8943 ****         1.0000 -21.2500 -28.7500 Du        
   8944 ****         1.0000 -21.2500 -28.5000 Du        
   8945 ****         1.0000 -21.2500 -28.2500 Du        
   8946 ****         1.0000 -21.0000 -28.7500 Du        
   8947 ****         1.0000 -21.0000 -28.5000 Du        
   8948 ****         1.0000 -21.0000 -28.2500 Du        
   8949 ****         1.0000 -20.7500 -28.7500 Du        
   8950 ****         1.0000 -20.7500 -28.5000 Du        
   8951 ****         1.0000 -20.7500 -28.2500 Du        
   8952 ****         1.0000 -20.5000 -28.7500 Du        
   8953 ****         1.0000 -20.5000 -28.5000 Du        
   8954 ****         1.0000 -20.5000 -28.2500 Du        
   8955 ****         1.0000 -20.5000 -28.0000 Du        
   8956 ****         1.0000 -20.2500 -29.0000 Du        
   8957 ****         1.0000 -20.2500 -28.7500 Du        
   8958 ****         1.0000 -20.2500 -28.5000 Du        
   8959 ****         1.0000 -20.2500 -28.2500 Du        
   8960 ****         1.0000 -20.2500 -28.0000 Du        
   8961 ****         1.0000 -20.0000 -29.0000 Du        
   8962 ****         1.0000 -20.0000 -28.7500 Du        
   8963 ****         1.0000 -20.0000 -28.5000 Du        
   8964 ****         1.0000 -20.0000 -28.2500 Du        
   8965 ****         1.0000 -20.0000 -28.0000 Du        
   8966 ****         1.0000 -19.7500 -29.0000 Du        
   8967 ****         1.0000 -19.7500 -28.7500 Du        
   8968 ****         1.0000 -19.7500 -28.5000 Du        
   8969 ****         1.0000 -19.7500 -28.2500 Du        
   8970 ****         1.0000 -19.7500 -28.0000 Du        
   8971 ****         1.0000 -19.5000 -29.2500 Du        
   8972 ****         1.0000 -19.5000 -29.0000 Du        
   8973 ****         1.0000 -19.5000 -28.7500 Du        
   8974 ****         1.0000 -19.5000 -28.5000 Du        
   8975 ****         1.0000 -19.5000 -28.2500 Du        
   8976 ****         1.0000 -19.5000 -28.0000 Du        
   8977 ****         1.2500 -30.0000 -28.0000 Du        
   8978 ****         1.2500 -29.5000 -27.7500 Du        
   8979 ****         1.2500 -29.5000 -27.5000 Du        
   8980 ****         1.2500 -29.2500 -28.0000 Du        
   8981 ****         1.2500 -29.2500 -27.7500 Du        
   8982 ****         1.2500 -29.2500 -27.5000 Du        
   8983 ****         1.2500 -29.0000 -28.0000 Du        
   8984 ****         1.2500 -29.0000 -27.7500 Du        
   8985 ****         1.2500 -27.2500 -29.2500 Du        
   8986 ****         1.2500 -27.2500 -29.0000 Du        
   8987 ****         1.2500 -27.2500 -28.7500 Du        
   8988 ****         1.2500 -27.2500 -28.5000 Du        
   8989 ****         1.2500 -27.0000 -29.5000 Du        
   8990 ****         1.2500 -27.0000 -29.2500 Du        
   8991 ****         1.2500 -27.0000 -29.0000 Du        
   8992 ****         1.2500 -27.0000 -28.7500 Du        
   8993 ****         1.2500 -27.0000 -28.5000 Du        
   8994 ****         1.2500 -26.7500 -29.5000 Du        
   8995 ****         1.2500 -26.7500 -29.2500 Du        
   8996 ****         1.2500 -26.7500 -29.0000 Du        
   8997 ****         1.2500 -26.7500 -28.7500 Du        
   8998 ****         1.2500 -26.5000 -30.0000 Du        
   8999 ****         1.2500 -26.5000 -29.7500 Du        
   9000 ****         1.2500 -26.5000 -29.5000 Du        
   9001 ****         1.2500 -26.5000 -29.2500 Du        
   9002 ****         1.2500 -26.5000 -29.0000 Du        
   9003 ****         1.2500 -26.5000 -28.7500 Du        
   9004 ****         1.2500 -26.2500 -30.0000 Du        
   9005 ****         1.2500 -26.2500 -29.7500 Du        
   9006 ****         1.2500 -26.2500 -29.5000 Du        
   9007 ****         1.2500 -26.2500 -29.2500 Du        
   9008 ****         1.2500 -26.2500 -29.0000 Du        
   9009 ****         1.2500 -26.0000 -30.0000 Du        
   9010 ****         1.2500 -26.0000 -29.7500 Du        
   9011 ****         1.2500 -26.0000 -29.5000 Du        
   9012 ****         1.2500 -26.0000 -29.2500 Du        
   9013 ****         1.2500 -26.0000 -29.0000 Du        
   9014 ****         1.2500 -25.7500 -29.7500 Du        
   9015 ****         1.2500 -25.7500 -29.5000 Du        
   9016 ****         1.2500 -25.7500 -29.2500 Du        
   9017 ****         1.2500 -21.5000 -28.7500 Du        
   9018 ****         1.2500 -21.5000 -28.5000 Du        
   9019 ****         1.2500 -21.2500 -28.7500 Du        
   9020 ****         1.2500 -21.2500 -28.5000 Du        
   9021 ****         1.2500 -21.0000 -29.0000 Du        
   9022 ****         1.2500 -21.0000 -28.7500 Du        
   9023 ****         1.2500 -21.0000 -28.5000 Du        
   9024 ****         1.2500 -21.0000 -28.2500 Du        
   9025 ****         1.2500 -20.7500 -29.0000 Du        
   9026 ****         1.2500 -20.7500 -28.7500 Du        
   9027 ****         1.2500 -20.7500 -28.5000 Du        
   9028 ****         1.2500 -20.7500 -28.2500 Du        
   9029 ****         1.2500 -20.5000 -29.0000 Du        
   9030 ****         1.2500 -20.5000 -28.7500 Du        
   9031 ****         1.2500 -20.5000 -28.5000 Du        
   9032 ****         1.2500 -20.5000 -28.2500 Du        
   9033 ****         1.2500 -20.5000 -28.0000 Du        
   9034 ****         1.2500 -20.2500 -29.0000 Du        
   9035 ****         1.2500 -20.2500 -28.7500 Du        
   9036 ****         1.2500 -20.2500 -28.5000 Du        
   9037 ****         1.2500 -20.2500 -28.2500 Du        
   9038 ****         1.2500 -20.2500 -28.0000 Du        
   9039 ****         1.2500 -20.0000 -29.2500 Du        
   9040 ****         1.2500 -20.0000 -29.0000 Du        
   9041 ****         1.2500 -20.0000 -28.7500 Du        
   9042 ****         1.2500 -20.0000 -28.5000 Du        
   9043 ****         1.2500 -20.0000 -28.2500 Du        
   9044 ****         1.2500 -20.0000 -28.0000 Du        
   9045 ****         1.2500 -19.7500 -29.2500 Du        
   9046 ****         1.2500 -19.7500 -29.0000 Du        
   9047 ****         1.2500 -19.7500 -28.7500 Du        
   9048 ****         1.2500 -19.7500 -28.5000 Du        
   9049 ****         1.2500 -19.7500 -28.2500 Du        
   9050 ****         1.2500 -19.7500 -28.0000 Du        
   9051 ****         1.2500 -19.7500 -27.7500 Du        
   9052 ****         1.2500 -19.5000 -29.5000 Du        
   9053 ****         1.2500 -19.5000 -29.2500 Du        
   9054 ****         1.2500 -19.5000 -29.0000 Du        
   9055 ****         1.2500 -19.5000 -28.7500 Du        
   9056 ****         1.2500 -19.5000 -28.5000 Du        
   9057 ****         1.2500 -19.5000 -28.2500 Du        
   9058 ****         1.2500 -19.5000 -28.0000 Du        
   9059 ****         1.2500 -19.5000 -27.7500 Du        
   9060 ****         1.5000 -30.2500 -27.7500 Du        
   9061 ****         1.5000 -30.2500 -27.5000 Du        
   9062 ****         1.5000 -30.0000 -28.0000 Du        
   9063 ****         1.5000 -30.0000 -27.7500 Du        
   9064 ****         1.5000 -30.0000 -27.5000 Du        
   9065 ****         1.5000 -30.0000 -27.2500 Du        
   9066 ****         1.5000 -29.7500 -28.0000 Du        
   9067 ****         1.5000 -29.7500 -27.7500 Du        
   9068 ****         1.5000 -29.7500 -27.5000 Du        
   9069 ****         1.5000 -29.7500 -27.2500 Du        
   9070 ****         1.5000 -29.5000 -28.0000 Du        
   9071 ****         1.5000 -29.5000 -27.7500 Du        
   9072 ****         1.5000 -29.5000 -27.5000 Du        
   9073 ****         1.5000 -29.2500 -28.0000 Du        
   9074 ****         1.5000 -29.2500 -27.7500 Du        
   9075 ****         1.5000 -29.2500 -27.5000 Du        
   9076 ****         1.5000 -29.0000 -28.0000 Du        
   9077 ****         1.5000 -29.0000 -27.7500 Du        
   9078 ****         1.5000 -28.7500 -28.0000 Du        
   9079 ****         1.5000 -28.7500 -27.7500 Du        
   9080 ****         1.5000 -28.0000 -28.7500 Du        
   9081 ****         1.5000 -27.7500 -28.7500 Du        
   9082 ****         1.5000 -27.5000 -29.2500 Du        
   9083 ****         1.5000 -27.5000 -29.0000 Du        
   9084 ****         1.5000 -27.5000 -28.7500 Du        
   9085 ****         1.5000 -27.5000 -28.5000 Du        
   9086 ****         1.5000 -27.2500 -29.2500 Du        
   9087 ****         1.5000 -27.2500 -29.0000 Du        
   9088 ****         1.5000 -27.2500 -28.7500 Du        
   9089 ****         1.5000 -27.2500 -28.5000 Du        
   9090 ****         1.5000 -27.0000 -29.7500 Du        
   9091 ****         1.5000 -27.0000 -29.5000 Du        
   9092 ****         1.5000 -27.0000 -29.2500 Du        
   9093 ****         1.5000 -27.0000 -29.0000 Du        
   9094 ****         1.5000 -27.0000 -28.7500 Du        
   9095 ****         1.5000 -27.0000 -28.5000 Du        
   9096 ****         1.5000 -26.7500 -29.7500 Du        
   9097 ****         1.5000 -26.7500 -29.5000 Du        
   9098 ****         1.5000 -26.7500 -29.2500 Du        
   9099 ****         1.5000 -26.7500 -29.0000 Du        
   9100 ****         1.5000 -26.7500 -28.7500 Du        
   9101 ****         1.5000 -26.5000 -30.2500 Du        
   9102 ****         1.5000 -26.5000 -30.0000 Du        
   9103 ****         1.5000 -26.5000 -29.7500 Du        
   9104 ****         1.5000 -26.5000 -29.5000 Du        
   9105 ****         1.5000 -26.5000 -29.2500 Du        
   9106 ****         1.5000 -26.5000 -29.0000 Du        
   9107 ****         1.5000 -26.5000 -28.7500 Du        
   9108 ****         1.5000 -26.2500 -30.2500 Du        
   9109 ****         1.5000 -26.2500 -30.0000 Du        
   9110 ****         1.5000 -26.2500 -29.7500 Du        
   9111 ****         1.5000 -26.2500 -29.5000 Du        
   9112 ****         1.5000 -26.2500 -29.2500 Du        
   9113 ****         1.5000 -26.2500 -29.0000 Du        
   9114 ****         1.5000 -26.2500 -28.7500 Du        
   9115 ****         1.5000 -26.0000 -30.0000 Du        
   9116 ****         1.5000 -26.0000 -29.7500 Du        
   9117 ****         1.5000 -26.0000 -29.5000 Du        
   9118 ****         1.5000 -26.0000 -29.2500 Du        
   9119 ****         1.5000 -26.0000 -29.0000 Du        
   9120 ****         1.5000 -25.7500 -29.2500 Du        
   9121 ****         1.5000 -21.0000 -28.7500 Du        
   9122 ****         1.5000 -21.0000 -28.5000 Du        
   9123 ****         1.5000 -20.7500 -29.0000 Du        
   9124 ****         1.5000 -20.7500 -28.7500 Du        
   9125 ****         1.5000 -20.7500 -28.5000 Du        
   9126 ****         1.5000 -20.5000 -29.0000 Du        
   9127 ****         1.5000 -20.5000 -28.7500 Du        
   9128 ****         1.5000 -20.5000 -28.5000 Du        
   9129 ****         1.5000 -20.5000 -28.2500 Du        
   9130 ****         1.5000 -20.2500 -29.2500 Du        
   9131 ****         1.5000 -20.2500 -29.0000 Du        
   9132 ****         1.5000 -20.2500 -28.7500 Du        
   9133 ****         1.5000 -20.2500 -28.5000 Du        
   9134 ****         1.5000 -20.2500 -28.2500 Du        
   9135 ****         1.5000 -20.2500 -28.0000 Du        
   9136 ****         1.5000 -20.0000 -29.2500 Du        
   9137 ****         1.5000 -20.0000 -29.0000 Du        
   9138 ****         1.5000 -20.0000 -28.7500 Du        
   9139 ****         1.5000 -20.0000 -28.5000 Du        
   9140 ****         1.5000 -20.0000 -28.2500 Du        
   9141 ****         1.5000 -20.0000 -28.0000 Du        
   9142 ****         1.5000 -19.7500 -29.5000 Du        
   9143 ****         1.5000 -19.7500 -29.2500 Du        
   9144 ****         1.5000 -19.7500 -29.0000 Du        
   9145 ****         1.5000 -19.7500 -28.7500 Du        
   9146 ****         1.5000 -19.7500 -28.5000 Du        
   9147 ****         1.5000 -19.7500 -28.2500 Du        
   9148 ****         1.5000 -19.7500 -28.0000 Du        
   9149 ****         1.5000 -19.7500 -27.7500 Du        
   9150 ****         1.5000 -19.5000 -29.5000 Du        
   9151 ****         1.5000 -19.5000 -29.2500 Du        
   9152 ****         1.5000 -19.5000 -29.0000 Du        
   9153 ****         1.5000 -19.5000 -28.7500 Du        
   9154 ****         1.5000 -19.5000 -28.5000 Du        
   9155 ****         1.5000 -19.5000 -28.2500 Du        
   9156 ****         1.5000 -19.5000 -28.0000 Du        
   9157 ****         1.5000 -19.5000 -27.7500 Du        
   9158 ****         1.7500 -30.5000 -27.7500 Du        
   9159 ****         1.7500 -30.2500 -28.0000 Du        
   9160 ****         1.7500 -30.2500 -27.7500 Du        
   9161 ****         1.7500 -30.2500 -27.5000 Du        
   9162 ****         1.7500 -30.2500 -27.2500 Du        
   9163 ****         1.7500 -30.0000 -28.0000 Du        
   9164 ****         1.7500 -30.0000 -27.7500 Du        
   9165 ****         1.7500 -30.0000 -27.5000 Du        
   9166 ****         1.7500 -30.0000 -27.2500 Du        
   9167 ****         1.7500 -29.7500 -28.2500 Du        
   9168 ****         1.7500 -29.7500 -28.0000 Du        
   9169 ****         1.7500 -29.7500 -27.7500 Du        
   9170 ****         1.7500 -29.7500 -27.5000 Du        
   9171 ****         1.7500 -29.7500 -27.2500 Du        
   9172 ****         1.7500 -29.5000 -28.2500 Du        
   9173 ****         1.7500 -29.5000 -28.0000 Du        
   9174 ****         1.7500 -29.5000 -27.7500 Du        
   9175 ****         1.7500 -29.5000 -27.5000 Du        
   9176 ****         1.7500 -29.5000 -27.2500 Du        
   9177 ****         1.7500 -29.2500 -28.2500 Du        
   9178 ****         1.7500 -29.2500 -28.0000 Du        
   9179 ****         1.7500 -29.2500 -27.7500 Du        
   9180 ****         1.7500 -29.2500 -27.5000 Du        
   9181 ****         1.7500 -29.2500 -27.2500 Du        
   9182 ****         1.7500 -29.0000 -28.2500 Du        
   9183 ****         1.7500 -29.0000 -28.0000 Du        
   9184 ****         1.7500 -29.0000 -27.7500 Du        
   9185 ****         1.7500 -29.0000 -27.5000 Du        
   9186 ****         1.7500 -28.7500 -28.2500 Du        
   9187 ****         1.7500 -28.7500 -28.0000 Du        
   9188 ****         1.7500 -28.7500 -27.7500 Du        
   9189 ****         1.7500 -28.5000 -28.2500 Du        
   9190 ****         1.7500 -28.5000 -28.0000 Du        
   9191 ****         1.7500 -28.2500 -28.2500 Du        
   9192 ****         1.7500 -28.2500 -28.0000 Du        
   9193 ****         1.7500 -28.0000 -28.7500 Du        
   9194 ****         1.7500 -28.0000 -28.5000 Du        
   9195 ****         1.7500 -28.0000 -28.2500 Du        
   9196 ****         1.7500 -28.0000 -28.0000 Du        
   9197 ****         1.7500 -27.7500 -29.2500 Du        
   9198 ****         1.7500 -27.7500 -29.0000 Du        
   9199 ****         1.7500 -27.7500 -28.7500 Du        
   9200 ****         1.7500 -27.7500 -28.5000 Du        
   9201 ****         1.7500 -27.7500 -28.2500 Du        
   9202 ****         1.7500 -27.5000 -29.2500 Du        
   9203 ****         1.7500 -27.5000 -29.0000 Du        
   9204 ****         1.7500 -27.5000 -28.7500 Du        
   9205 ****         1.7500 -27.5000 -28.5000 Du        
   9206 ****         1.7500 -27.5000 -28.2500 Du        
   9207 ****         1.7500 -27.2500 -29.5000 Du        
   9208 ****         1.7500 -27.2500 -29.2500 Du        
   9209 ****         1.7500 -27.2500 -29.0000 Du        
   9210 ****         1.7500 -27.2500 -28.7500 Du        
   9211 ****         1.7500 -27.2500 -28.5000 Du        
   9212 ****         1.7500 -27.2500 -28.2500 Du        
   9213 ****         1.7500 -27.0000 -30.0000 Du        
   9214 ****         1.7500 -27.0000 -29.7500 Du        
   9215 ****         1.7500 -27.0000 -29.5000 Du        
   9216 ****         1.7500 -27.0000 -29.2500 Du        
   9217 ****         1.7500 -27.0000 -29.0000 Du        
   9218 ****         1.7500 -27.0000 -28.7500 Du        
   9219 ****         1.7500 -27.0000 -28.5000 Du        
   9220 ****         1.7500 -27.0000 -28.2500 Du        
   9221 ****         1.7500 -26.7500 -30.0000 Du        
   9222 ****         1.7500 -26.7500 -29.7500 Du        
   9223 ****         1.7500 -26.7500 -29.5000 Du        
   9224 ****         1.7500 -26.7500 -29.2500 Du        
   9225 ****         1.7500 -26.7500 -29.0000 Du        
   9226 ****         1.7500 -26.7500 -28.7500 Du        
   9227 ****         1.7500 -26.7500 -28.5000 Du        
   9228 ****         1.7500 -26.5000 -30.2500 Du        
   9229 ****         1.7500 -26.5000 -30.0000 Du        
   9230 ****         1.7500 -26.5000 -29.7500 Du        
   9231 ****         1.7500 -26.5000 -29.5000 Du        
   9232 ****         1.7500 -26.5000 -29.2500 Du        
   9233 ****         1.7500 -26.5000 -29.0000 Du        
   9234 ****         1.7500 -26.5000 -28.7500 Du        
   9235 ****         1.7500 -26.5000 -28.5000 Du        
   9236 ****         1.7500 -26.2500 -30.2500 Du        
   9237 ****         1.7500 -26.2500 -30.0000 Du        
   9238 ****         1.7500 -26.2500 -29.7500 Du        
   9239 ****         1.7500 -26.2500 -29.5000 Du        
   9240 ****         1.7500 -26.2500 -29.2500 Du        
   9241 ****         1.7500 -26.2500 -29.0000 Du        
   9242 ****         1.7500 -26.2500 -28.7500 Du        
   9243 ****         1.7500 -26.0000 -29.7500 Du        
   9244 ****         1.7500 -26.0000 -29.5000 Du        
   9245 ****         1.7500 -26.0000 -29.2500 Du        
   9246 ****         1.7500 -26.0000 -29.0000 Du        
   9247 ****         1.7500 -20.5000 -29.0000 Du        
   9248 ****         1.7500 -20.5000 -28.7500 Du        
   9249 ****         1.7500 -20.5000 -28.5000 Du        
   9250 ****         1.7500 -20.2500 -29.2500 Du        
   9251 ****         1.7500 -20.2500 -29.0000 Du        
   9252 ****         1.7500 -20.2500 -28.7500 Du        
   9253 ****         1.7500 -20.2500 -28.5000 Du        
   9254 ****         1.7500 -20.2500 -28.2500 Du        
   9255 ****         1.7500 -20.0000 -29.2500 Du        
   9256 ****         1.7500 -20.0000 -29.0000 Du        
   9257 ****         1.7500 -20.0000 -28.7500 Du        
   9258 ****         1.7500 -20.0000 -28.5000 Du        
   9259 ****         1.7500 -20.0000 -28.2500 Du        
   9260 ****         1.7500 -19.7500 -29.2500 Du        
   9261 ****         1.7500 -19.7500 -29.0000 Du        
   9262 ****         1.7500 -19.7500 -28.7500 Du        
   9263 ****         1.7500 -19.7500 -28.5000 Du        
   9264 ****         1.7500 -19.7500 -28.2500 Du        
   9265 ****         1.7500 -19.7500 -28.0000 Du        
   9266 ****         1.7500 -19.5000 -29.5000 Du        
   9267 ****         1.7500 -19.5000 -29.2500 Du        
   9268 ****         1.7500 -19.5000 -29.0000 Du        
   9269 ****         1.7500 -19.5000 -28.7500 Du        
   9270 ****         1.7500 -19.5000 -28.5000 Du        
   9271 ****         1.7500 -19.5000 -28.2500 Du        
   9272 ****         1.7500 -19.5000 -28.0000 Du        
   9273 ****         1.7500 -19.5000 -27.7500 Du        
   9274 ****         2.0000 -31.0000 -27.7500 Du        
   9275 ****         2.0000 -30.7500 -27.7500 Du        
   9276 ****         2.0000 -30.5000 -27.7500 Du        
   9277 ****         2.0000 -30.2500 -28.0000 Du        
   9278 ****         2.0000 -30.2500 -27.7500 Du        
   9279 ****         2.0000 -30.2500 -27.5000 Du        
   9280 ****         2.0000 -30.2500 -27.2500 Du        
   9281 ****         2.0000 -30.0000 -28.2500 Du        
   9282 ****         2.0000 -30.0000 -28.0000 Du        
   9283 ****         2.0000 -30.0000 -27.7500 Du        
   9284 ****         2.0000 -30.0000 -27.5000 Du        
   9285 ****         2.0000 -30.0000 -27.2500 Du        
   9286 ****         2.0000 -29.7500 -28.2500 Du        
   9287 ****         2.0000 -29.7500 -28.0000 Du        
   9288 ****         2.0000 -29.7500 -27.7500 Du        
   9289 ****         2.0000 -29.7500 -27.5000 Du        
   9290 ****         2.0000 -29.7500 -27.2500 Du        
   9291 ****         2.0000 -29.5000 -28.2500 Du        
   9292 ****         2.0000 -29.5000 -28.0000 Du        
   9293 ****         2.0000 -29.5000 -27.7500 Du        
   9294 ****         2.0000 -29.5000 -27.5000 Du        
   9295 ****         2.0000 -29.5000 -27.2500 Du        
   9296 ****         2.0000 -29.2500 -28.2500 Du        
   9297 ****         2.0000 -29.2500 -28.0000 Du        
   9298 ****         2.0000 -29.2500 -27.7500 Du        
   9299 ****         2.0000 -29.2500 -27.5000 Du        
   9300 ****         2.0000 -29.2500 -27.2500 Du        
   9301 ****         2.0000 -29.0000 -28.2500 Du        
   9302 ****         2.0000 -29.0000 -28.0000 Du        
   9303 ****         2.0000 -29.0000 -27.7500 Du        
   9304 ****         2.0000 -29.0000 -27.5000 Du        
   9305 ****         2.0000 -29.0000 -27.2500 Du        
   9306 ****         2.0000 -28.7500 -28.2500 Du        
   9307 ****         2.0000 -28.7500 -28.0000 Du        
   9308 ****         2.0000 -28.7500 -27.7500 Du        
   9309 ****         2.0000 -28.7500 -27.5000 Du        
   9310 ****         2.0000 -28.5000 -28.5000 Du        
   9311 ****         2.0000 -28.5000 -28.2500 Du        
   9312 ****         2.0000 -28.5000 -28.0000 Du        
   9313 ****         2.0000 -28.5000 -27.7500 Du        
   9314 ****         2.0000 -28.5000 -27.5000 Du        
   9315 ****         2.0000 -28.2500 -29.0000 Du        
   9316 ****         2.0000 -28.2500 -28.7500 Du        
   9317 ****         2.0000 -28.2500 -28.5000 Du        
   9318 ****         2.0000 -28.2500 -28.2500 Du        
   9319 ****         2.0000 -28.2500 -28.0000 Du        
   9320 ****         2.0000 -28.2500 -27.7500 Du        
   9321 ****         2.0000 -28.0000 -29.2500 Du        
   9322 ****         2.0000 -28.0000 -29.0000 Du        
   9323 ****         2.0000 -28.0000 -28.5000 Du        
   9324 ****         2.0000 -28.0000 -28.2500 Du        
   9325 ****         2.0000 -28.0000 -28.0000 Du        
   9326 ****         2.0000 -27.7500 -29.2500 Du        
   9327 ****         2.0000 -27.7500 -29.0000 Du        
   9328 ****         2.0000 -27.7500 -28.7500 Du        
   9329 ****         2.0000 -27.7500 -28.5000 Du        
   9330 ****         2.0000 -27.7500 -28.2500 Du        
   9331 ****         2.0000 -27.7500 -28.0000 Du        
   9332 ****         2.0000 -27.5000 -29.2500 Du        
   9333 ****         2.0000 -27.5000 -29.0000 Du        
   9334 ****         2.0000 -27.5000 -28.7500 Du        
   9335 ****         2.0000 -27.5000 -28.5000 Du        
   9336 ****         2.0000 -27.5000 -28.2500 Du        
   9337 ****         2.0000 -27.5000 -28.0000 Du        
   9338 ****         2.0000 -27.2500 -29.5000 Du        
   9339 ****         2.0000 -27.2500 -29.2500 Du        
   9340 ****         2.0000 -27.2500 -29.0000 Du        
   9341 ****         2.0000 -27.2500 -28.7500 Du        
   9342 ****         2.0000 -27.2500 -28.5000 Du        
   9343 ****         2.0000 -27.2500 -28.2500 Du        
   9344 ****         2.0000 -27.2500 -28.0000 Du        
   9345 ****         2.0000 -27.0000 -30.0000 Du        
   9346 ****         2.0000 -27.0000 -29.7500 Du        
   9347 ****         2.0000 -27.0000 -29.5000 Du        
   9348 ****         2.0000 -27.0000 -29.2500 Du        
   9349 ****         2.0000 -27.0000 -29.0000 Du        
   9350 ****         2.0000 -27.0000 -28.7500 Du        
   9351 ****         2.0000 -27.0000 -28.5000 Du        
   9352 ****         2.0000 -27.0000 -28.2500 Du        
   9353 ****         2.0000 -26.7500 -30.2500 Du        
   9354 ****         2.0000 -26.7500 -30.0000 Du        
   9355 ****         2.0000 -26.7500 -29.7500 Du        
   9356 ****         2.0000 -26.7500 -29.5000 Du        
   9357 ****         2.0000 -26.7500 -29.2500 Du        
   9358 ****         2.0000 -26.7500 -29.0000 Du        
   9359 ****         2.0000 -26.7500 -28.7500 Du        
   9360 ****         2.0000 -26.7500 -28.5000 Du        
   9361 ****         2.0000 -26.7500 -28.2500 Du        
   9362 ****         2.0000 -26.5000 -30.2500 Du        
   9363 ****         2.0000 -26.5000 -30.0000 Du        
   9364 ****         2.0000 -26.5000 -29.7500 Du        
   9365 ****         2.0000 -26.5000 -29.5000 Du        
   9366 ****         2.0000 -26.5000 -29.2500 Du        
   9367 ****         2.0000 -26.5000 -29.0000 Du        
   9368 ****         2.0000 -26.5000 -28.7500 Du        
   9369 ****         2.0000 -26.5000 -28.5000 Du        
   9370 ****         2.0000 -26.2500 -30.0000 Du        
   9371 ****         2.0000 -26.2500 -29.7500 Du        
   9372 ****         2.0000 -26.2500 -29.5000 Du        
   9373 ****         2.0000 -26.2500 -29.2500 Du        
   9374 ****         2.0000 -26.2500 -29.0000 Du        
   9375 ****         2.0000 -26.2500 -28.7500 Du        
   9376 ****         2.0000 -26.0000 -29.5000 Du        
   9377 ****         2.0000 -26.0000 -29.2500 Du        
   9378 ****         2.0000 -26.0000 -29.0000 Du        
   9379 ****         2.0000 -26.0000 -28.7500 Du        
   9380 ****         2.0000 -20.2500 -28.7500 Du        
   9381 ****         2.0000 -20.0000 -29.0000 Du        
   9382 ****         2.0000 -20.0000 -28.7500 Du        
   9383 ****         2.0000 -20.0000 -28.5000 Du        
   9384 ****         2.0000 -19.7500 -29.2500 Du        
   9385 ****         2.0000 -19.7500 -29.0000 Du        
   9386 ****         2.0000 -19.7500 -28.7500 Du        
   9387 ****         2.0000 -19.7500 -28.5000 Du        
   9388 ****         2.0000 -19.7500 -28.2500 Du        
   9389 ****         2.0000 -19.5000 -29.2500 Du        
   9390 ****         2.0000 -19.5000 -29.0000 Du        
   9391 ****         2.0000 -19.5000 -28.7500 Du        
   9392 ****         2.0000 -19.5000 -28.5000 Du        
   9393 ****         2.0000 -19.5000 -28.2500 Du        
   9394 ****         2.0000 -19.5000 -28.0000 Du        
   9395 ****         2.2500 -30.5000 -27.7500 Du        
   9396 ****         2.2500 -30.2500 -28.0000 Du        
   9397 ****         2.2500 -30.2500 -27.7500 Du        
   9398 ****         2.2500 -30.0000 -28.2500 Du        
   9399 ****         2.2500 -30.0000 -28.0000 Du        
   9400 ****         2.2500 -30.0000 -27.7500 Du        
   9401 ****         2.2500 -30.0000 -27.5000 Du        
   9402 ****         2.2500 -30.0000 -27.2500 Du        
   9403 ****         2.2500 -29.7500 -28.5000 Du        
   9404 ****         2.2500 -29.7500 -28.2500 Du        
   9405 ****         2.2500 -29.7500 -28.0000 Du        
   9406 ****         2.2500 -29.7500 -27.7500 Du        
   9407 ****         2.2500 -29.7500 -27.5000 Du        
   9408 ****         2.2500 -29.7500 -27.2500 Du        
   9409 ****         2.2500 -29.5000 -28.2500 Du        
   9410 ****         2.2500 -29.5000 -28.0000 Du        
   9411 ****         2.2500 -29.5000 -27.7500 Du        
   9412 ****         2.2500 -29.5000 -27.5000 Du        
   9413 ****         2.2500 -29.5000 -27.2500 Du        
   9414 ****         2.2500 -29.2500 -28.2500 Du        
   9415 ****         2.2500 -29.2500 -28.0000 Du        
   9416 ****         2.2500 -29.2500 -27.7500 Du        
   9417 ****         2.2500 -29.2500 -27.5000 Du        
   9418 ****         2.2500 -29.2500 -27.2500 Du        
   9419 ****         2.2500 -29.0000 -28.2500 Du        
   9420 ****         2.2500 -29.0000 -28.0000 Du        
   9421 ****         2.2500 -29.0000 -27.7500 Du        
   9422 ****         2.2500 -29.0000 -27.5000 Du        
   9423 ****         2.2500 -29.0000 -27.2500 Du        
   9424 ****         2.2500 -28.7500 -28.5000 Du        
   9425 ****         2.2500 -28.7500 -28.2500 Du        
   9426 ****         2.2500 -28.7500 -28.0000 Du        
   9427 ****         2.2500 -28.7500 -27.7500 Du        
   9428 ****         2.2500 -28.7500 -27.5000 Du        
   9429 ****         2.2500 -28.7500 -27.2500 Du        
   9430 ****         2.2500 -28.5000 -28.5000 Du        
   9431 ****         2.2500 -28.5000 -28.2500 Du        
   9432 ****         2.2500 -28.5000 -28.0000 Du        
   9433 ****         2.2500 -28.5000 -27.7500 Du        
   9434 ****         2.2500 -28.5000 -27.5000 Du        
   9435 ****         2.2500 -28.2500 -28.7500 Du        
   9436 ****         2.2500 -28.2500 -28.5000 Du        
   9437 ****         2.2500 -28.2500 -28.2500 Du        
   9438 ****         2.2500 -28.2500 -28.0000 Du        
   9439 ****         2.2500 -28.2500 -27.7500 Du        
   9440 ****         2.2500 -28.0000 -29.2500 Du        
   9441 ****         2.2500 -28.0000 -29.0000 Du        
   9442 ****         2.2500 -28.0000 -28.7500 Du        
   9443 ****         2.2500 -28.0000 -28.5000 Du        
   9444 ****         2.2500 -28.0000 -28.2500 Du        
   9445 ****         2.2500 -28.0000 -28.0000 Du        
   9446 ****         2.2500 -28.0000 -27.7500 Du        
   9447 ****         2.2500 -27.7500 -29.2500 Du        
   9448 ****         2.2500 -27.7500 -29.0000 Du        
   9449 ****         2.2500 -27.7500 -28.7500 Du        
   9450 ****         2.2500 -27.7500 -28.5000 Du        
   9451 ****         2.2500 -27.7500 -28.2500 Du        
   9452 ****         2.2500 -27.7500 -28.0000 Du        
   9453 ****         2.2500 -27.7500 -27.7500 Du        
   9454 ****         2.2500 -27.5000 -29.2500 Du        
   9455 ****         2.2500 -27.5000 -29.0000 Du        
   9456 ****         2.2500 -27.5000 -28.7500 Du        
   9457 ****         2.2500 -27.5000 -28.5000 Du        
   9458 ****         2.2500 -27.5000 -28.2500 Du        
   9459 ****         2.2500 -27.5000 -28.0000 Du        
   9460 ****         2.2500 -27.2500 -29.7500 Du        
   9461 ****         2.2500 -27.2500 -29.5000 Du        
   9462 ****         2.2500 -27.2500 -29.2500 Du        
   9463 ****         2.2500 -27.2500 -29.0000 Du        
   9464 ****         2.2500 -27.2500 -28.7500 Du        
   9465 ****         2.2500 -27.2500 -28.5000 Du        
   9466 ****         2.2500 -27.2500 -28.2500 Du        
   9467 ****         2.2500 -27.2500 -28.0000 Du        
   9468 ****         2.2500 -27.0000 -30.0000 Du        
   9469 ****         2.2500 -27.0000 -29.7500 Du        
   9470 ****         2.2500 -27.0000 -29.5000 Du        
   9471 ****         2.2500 -27.0000 -29.2500 Du        
   9472 ****         2.2500 -27.0000 -29.0000 Du        
   9473 ****         2.2500 -27.0000 -28.7500 Du        
   9474 ****         2.2500 -27.0000 -28.5000 Du        
   9475 ****         2.2500 -27.0000 -28.2500 Du        
   9476 ****         2.2500 -27.0000 -28.0000 Du        
   9477 ****         2.2500 -26.7500 -30.2500 Du        
   9478 ****         2.2500 -26.7500 -30.0000 Du        
   9479 ****         2.2500 -26.7500 -29.7500 Du        
   9480 ****         2.2500 -26.7500 -29.5000 Du        
   9481 ****         2.2500 -26.7500 -29.2500 Du        
   9482 ****         2.2500 -26.7500 -29.0000 Du        
   9483 ****         2.2500 -26.7500 -28.7500 Du        
   9484 ****         2.2500 -26.7500 -28.5000 Du        
   9485 ****         2.2500 -26.7500 -28.2500 Du        
   9486 ****         2.2500 -26.7500 -28.0000 Du        
   9487 ****         2.2500 -26.5000 -30.2500 Du        
   9488 ****         2.2500 -26.5000 -30.0000 Du        
   9489 ****         2.2500 -26.5000 -29.7500 Du        
   9490 ****         2.2500 -26.5000 -29.5000 Du        
   9491 ****         2.2500 -26.5000 -29.2500 Du        
   9492 ****         2.2500 -26.5000 -29.0000 Du        
   9493 ****         2.2500 -26.5000 -28.7500 Du        
   9494 ****         2.2500 -26.5000 -28.5000 Du        
   9495 ****         2.2500 -26.5000 -28.2500 Du        
   9496 ****         2.2500 -26.2500 -29.7500 Du        
   9497 ****         2.2500 -26.2500 -29.5000 Du        
   9498 ****         2.2500 -26.2500 -29.2500 Du        
   9499 ****         2.2500 -26.2500 -29.0000 Du        
   9500 ****         2.2500 -26.2500 -28.7500 Du        
   9501 ****         2.2500 -26.2500 -28.5000 Du        
   9502 ****         2.2500 -26.0000 -29.2500 Du        
   9503 ****         2.2500 -26.0000 -29.0000 Du        
   9504 ****         2.2500 -26.0000 -28.7500 Du        
   9505 ****         2.5000 -33.2500 -27.0000 Du        
   9506 ****         2.5000 -33.0000 -27.0000 Du        
   9507 ****         2.5000 -29.7500 -27.5000 Du        
   9508 ****         2.5000 -29.5000 -28.0000 Du        
   9509 ****         2.5000 -29.5000 -27.7500 Du        
   9510 ****         2.5000 -29.5000 -27.5000 Du        
   9511 ****         2.5000 -29.5000 -27.2500 Du        
   9512 ****         2.5000 -29.2500 -28.2500 Du        
   9513 ****         2.5000 -29.2500 -28.0000 Du        
   9514 ****         2.5000 -29.2500 -27.7500 Du        
   9515 ****         2.5000 -29.2500 -27.5000 Du        
   9516 ****         2.5000 -29.2500 -27.2500 Du        
   9517 ****         2.5000 -29.0000 -28.2500 Du        
   9518 ****         2.5000 -29.0000 -28.0000 Du        
   9519 ****         2.5000 -29.0000 -27.7500 Du        
   9520 ****         2.5000 -29.0000 -27.5000 Du        
   9521 ****         2.5000 -29.0000 -27.2500 Du        
   9522 ****         2.5000 -28.7500 -28.7500 Du        
   9523 ****         2.5000 -28.7500 -28.5000 Du        
   9524 ****         2.5000 -28.7500 -28.2500 Du        
   9525 ****         2.5000 -28.7500 -28.0000 Du        
   9526 ****         2.5000 -28.7500 -27.7500 Du        
   9527 ****         2.5000 -28.7500 -27.5000 Du        
   9528 ****         2.5000 -28.7500 -27.2500 Du        
   9529 ****         2.5000 -28.5000 -28.5000 Du        
   9530 ****         2.5000 -28.5000 -28.2500 Du        
   9531 ****         2.5000 -28.5000 -28.0000 Du        
   9532 ****         2.5000 -28.5000 -27.7500 Du        
   9533 ****         2.5000 -28.5000 -27.5000 Du        
   9534 ****         2.5000 -28.2500 -28.7500 Du        
   9535 ****         2.5000 -28.2500 -28.5000 Du        
   9536 ****         2.5000 -28.2500 -28.2500 Du        
   9537 ****         2.5000 -28.2500 -28.0000 Du        
   9538 ****         2.5000 -28.2500 -27.7500 Du        
   9539 ****         2.5000 -28.2500 -27.5000 Du        
   9540 ****         2.5000 -28.0000 -29.0000 Du        
   9541 ****         2.5000 -28.0000 -28.7500 Du        
   9542 ****         2.5000 -28.0000 -28.5000 Du        
   9543 ****         2.5000 -28.0000 -28.2500 Du        
   9544 ****         2.5000 -28.0000 -28.0000 Du        
   9545 ****         2.5000 -28.0000 -27.7500 Du        
   9546 ****         2.5000 -28.0000 -27.5000 Du        
   9547 ****         2.5000 -27.7500 -29.2500 Du        
   9548 ****         2.5000 -27.7500 -29.0000 Du        
   9549 ****         2.5000 -27.7500 -28.7500 Du        
   9550 ****         2.5000 -27.7500 -28.5000 Du        
   9551 ****         2.5000 -27.7500 -28.2500 Du        
   9552 ****         2.5000 -27.7500 -28.0000 Du        
   9553 ****         2.5000 -27.7500 -27.7500 Du        
   9554 ****         2.5000 -27.5000 -29.2500 Du        
   9555 ****         2.5000 -27.5000 -29.0000 Du        
   9556 ****         2.5000 -27.5000 -28.7500 Du        
   9557 ****         2.5000 -27.5000 -28.5000 Du        
   9558 ****         2.5000 -27.5000 -28.2500 Du        
   9559 ****         2.5000 -27.5000 -28.0000 Du        
   9560 ****         2.5000 -27.5000 -27.7500 Du        
   9561 ****         2.5000 -27.2500 -29.7500 Du        
   9562 ****         2.5000 -27.2500 -29.5000 Du        
   9563 ****         2.5000 -27.2500 -29.2500 Du        
   9564 ****         2.5000 -27.2500 -29.0000 Du        
   9565 ****         2.5000 -27.2500 -28.7500 Du        
   9566 ****         2.5000 -27.2500 -28.5000 Du        
   9567 ****         2.5000 -27.2500 -28.2500 Du        
   9568 ****         2.5000 -27.2500 -28.0000 Du        
   9569 ****         2.5000 -27.2500 -27.7500 Du        
   9570 ****         2.5000 -27.0000 -30.0000 Du        
   9571 ****         2.5000 -27.0000 -29.7500 Du        
   9572 ****         2.5000 -27.0000 -29.5000 Du        
   9573 ****         2.5000 -27.0000 -29.2500 Du        
   9574 ****         2.5000 -27.0000 -29.0000 Du        
   9575 ****         2.5000 -27.0000 -28.7500 Du        
   9576 ****         2.5000 -27.0000 -28.5000 Du        
   9577 ****         2.5000 -27.0000 -28.2500 Du        
   9578 ****         2.5000 -27.0000 -28.0000 Du        
   9579 ****         2.5000 -26.7500 -30.0000 Du        
   9580 ****         2.5000 -26.7500 -29.7500 Du        
   9581 ****         2.5000 -26.7500 -29.5000 Du        
   9582 ****         2.5000 -26.7500 -29.2500 Du        
   9583 ****         2.5000 -26.7500 -29.0000 Du        
   9584 ****         2.5000 -26.7500 -28.7500 Du        
   9585 ****         2.5000 -26.7500 -28.5000 Du        
   9586 ****         2.5000 -26.7500 -28.2500 Du        
   9587 ****         2.5000 -26.7500 -28.0000 Du        
   9588 ****         2.5000 -26.5000 -29.7500 Du        
   9589 ****         2.5000 -26.5000 -29.5000 Du        
   9590 ****         2.5000 -26.5000 -29.2500 Du        
   9591 ****         2.5000 -26.5000 -29.0000 Du        
   9592 ****         2.5000 -26.5000 -28.7500 Du        
   9593 ****         2.5000 -26.5000 -28.5000 Du        
   9594 ****         2.5000 -26.5000 -28.2500 Du        
   9595 ****         2.5000 -26.2500 -29.5000 Du        
   9596 ****         2.5000 -26.2500 -29.2500 Du        
   9597 ****         2.5000 -26.2500 -29.0000 Du        
   9598 ****         2.5000 -26.2500 -28.7500 Du        
   9599 ****         2.5000 -26.2500 -28.5000 Du        
   9600 ****         2.5000 -26.0000 -29.2500 Du        
   9601 ****         2.5000 -26.0000 -29.0000 Du        
   9602 ****         2.5000 -26.0000 -28.7500 Du        
   9603 ****         2.7500 -28.7500 -28.0000 Du        
   9604 ****         2.7500 -28.7500 -27.7500 Du        
   9605 ****         2.7500 -28.5000 -28.5000 Du        
   9606 ****         2.7500 -28.5000 -28.2500 Du        
   9607 ****         2.7500 -28.5000 -28.0000 Du        
   9608 ****         2.7500 -28.5000 -27.7500 Du        
   9609 ****         2.7500 -28.5000 -27.5000 Du        
   9610 ****         2.7500 -28.2500 -28.7500 Du        
   9611 ****         2.7500 -28.2500 -28.5000 Du        
   9612 ****         2.7500 -28.2500 -28.2500 Du        
   9613 ****         2.7500 -28.2500 -28.0000 Du        
   9614 ****         2.7500 -28.2500 -27.7500 Du        
   9615 ****         2.7500 -28.2500 -27.5000 Du        
   9616 ****         2.7500 -28.0000 -29.2500 Du        
   9617 ****         2.7500 -28.0000 -29.0000 Du        
   9618 ****         2.7500 -28.0000 -28.7500 Du        
   9619 ****         2.7500 -28.0000 -28.5000 Du        
   9620 ****         2.7500 -28.0000 -28.2500 Du        
   9621 ****         2.7500 -28.0000 -28.0000 Du        
   9622 ****         2.7500 -28.0000 -27.7500 Du        
   9623 ****         2.7500 -28.0000 -27.5000 Du        
   9624 ****         2.7500 -27.7500 -29.2500 Du        
   9625 ****         2.7500 -27.7500 -29.0000 Du        
   9626 ****         2.7500 -27.7500 -28.7500 Du        
   9627 ****         2.7500 -27.7500 -28.5000 Du        
   9628 ****         2.7500 -27.7500 -28.2500 Du        
   9629 ****         2.7500 -27.7500 -28.0000 Du        
   9630 ****         2.7500 -27.7500 -27.7500 Du        
   9631 ****         2.7500 -27.5000 -29.2500 Du        
   9632 ****         2.7500 -27.5000 -29.0000 Du        
   9633 ****         2.7500 -27.5000 -28.7500 Du        
   9634 ****         2.7500 -27.5000 -28.5000 Du        
   9635 ****         2.7500 -27.5000 -28.2500 Du        
   9636 ****         2.7500 -27.5000 -28.0000 Du        
   9637 ****         2.7500 -27.5000 -27.7500 Du        
   9638 ****         2.7500 -27.2500 -30.0000 Du        
   9639 ****         2.7500 -27.2500 -29.7500 Du        
   9640 ****         2.7500 -27.2500 -29.5000 Du        
   9641 ****         2.7500 -27.2500 -29.2500 Du        
   9642 ****         2.7500 -27.2500 -29.0000 Du        
   9643 ****         2.7500 -27.2500 -28.7500 Du        
   9644 ****         2.7500 -27.2500 -28.5000 Du        
   9645 ****         2.7500 -27.2500 -28.2500 Du        
   9646 ****         2.7500 -27.2500 -28.0000 Du        
   9647 ****         2.7500 -27.2500 -27.7500 Du        
   9648 ****         2.7500 -27.0000 -30.0000 Du        
   9649 ****         2.7500 -27.0000 -29.7500 Du        
   9650 ****         2.7500 -27.0000 -29.5000 Du        
   9651 ****         2.7500 -27.0000 -29.2500 Du        
   9652 ****         2.7500 -27.0000 -29.0000 Du        
   9653 ****         2.7500 -27.0000 -28.7500 Du        
   9654 ****         2.7500 -27.0000 -28.5000 Du        
   9655 ****         2.7500 -27.0000 -28.2500 Du        
   9656 ****         2.7500 -27.0000 -28.0000 Du        
   9657 ****         2.7500 -27.0000 -27.7500 Du        
   9658 ****         2.7500 -26.7500 -30.0000 Du        
   9659 ****         2.7500 -26.7500 -29.7500 Du        
   9660 ****         2.7500 -26.7500 -29.5000 Du        
   9661 ****         2.7500 -26.7500 -29.2500 Du        
   9662 ****         2.7500 -26.7500 -29.0000 Du        
   9663 ****         2.7500 -26.7500 -28.7500 Du        
   9664 ****         2.7500 -26.7500 -28.5000 Du        
   9665 ****         2.7500 -26.7500 -28.2500 Du        
   9666 ****         2.7500 -26.7500 -28.0000 Du        
   9667 ****         2.7500 -26.7500 -27.7500 Du        
   9668 ****         2.7500 -26.5000 -29.7500 Du        
   9669 ****         2.7500 -26.5000 -29.5000 Du        
   9670 ****         2.7500 -26.5000 -29.2500 Du        
   9671 ****         2.7500 -26.5000 -29.0000 Du        
   9672 ****         2.7500 -26.5000 -28.7500 Du        
   9673 ****         2.7500 -26.5000 -28.5000 Du        
   9674 ****         2.7500 -26.5000 -28.2500 Du        
   9675 ****         2.7500 -26.5000 -28.0000 Du        
   9676 ****         2.7500 -26.2500 -29.5000 Du        
   9677 ****         2.7500 -26.2500 -29.2500 Du        
   9678 ****         2.7500 -26.2500 -29.0000 Du        
   9679 ****         2.7500 -26.2500 -28.7500 Du        
   9680 ****         2.7500 -26.2500 -28.5000 Du        
   9681 ****         2.7500 -26.2500 -28.2500 Du        
   9682 ****         2.7500 -26.0000 -29.2500 Du        
   9683 ****         2.7500 -26.0000 -29.0000 Du        
   9684 ****         2.7500 -26.0000 -28.7500 Du        
   9685 ****         2.7500 -26.0000 -28.5000 Du        
   9686 ****         2.7500 -25.7500 -29.0000 Du        
   9687 ****         2.7500 -25.7500 -28.7500 Du        
   9688 ****         3.0000 -28.0000 -29.2500 Du        
   9689 ****         3.0000 -28.0000 -29.0000 Du        
   9690 ****         3.0000 -28.0000 -28.7500 Du        
   9691 ****         3.0000 -28.0000 -28.5000 Du        
   9692 ****         3.0000 -28.0000 -28.2500 Du        
   9693 ****         3.0000 -28.0000 -28.0000 Du        
   9694 ****         3.0000 -27.7500 -29.2500 Du        
   9695 ****         3.0000 -27.7500 -29.0000 Du        
   9696 ****         3.0000 -27.7500 -28.7500 Du        
   9697 ****         3.0000 -27.7500 -28.5000 Du        
   9698 ****         3.0000 -27.7500 -28.2500 Du        
   9699 ****         3.0000 -27.7500 -28.0000 Du        
   9700 ****         3.0000 -27.7500 -27.7500 Du        
   9701 ****         3.0000 -27.5000 -29.5000 Du        
   9702 ****         3.0000 -27.5000 -29.2500 Du        
   9703 ****         3.0000 -27.5000 -29.0000 Du        
   9704 ****         3.0000 -27.5000 -28.7500 Du        
   9705 ****         3.0000 -27.5000 -28.5000 Du        
   9706 ****         3.0000 -27.5000 -28.2500 Du        
   9707 ****         3.0000 -27.5000 -28.0000 Du        
   9708 ****         3.0000 -27.5000 -27.7500 Du        
   9709 ****         3.0000 -27.2500 -30.0000 Du        
   9710 ****         3.0000 -27.2500 -29.7500 Du        
   9711 ****         3.0000 -27.2500 -29.5000 Du        
   9712 ****         3.0000 -27.2500 -29.2500 Du        
   9713 ****         3.0000 -27.2500 -29.0000 Du        
   9714 ****         3.0000 -27.2500 -28.7500 Du        
   9715 ****         3.0000 -27.2500 -28.5000 Du        
   9716 ****         3.0000 -27.2500 -28.2500 Du        
   9717 ****         3.0000 -27.2500 -28.0000 Du        
   9718 ****         3.0000 -27.2500 -27.7500 Du        
   9719 ****         3.0000 -27.0000 -30.0000 Du        
   9720 ****         3.0000 -27.0000 -29.7500 Du        
   9721 ****         3.0000 -27.0000 -29.5000 Du        
   9722 ****         3.0000 -27.0000 -29.2500 Du        
   9723 ****         3.0000 -27.0000 -29.0000 Du        
   9724 ****         3.0000 -27.0000 -28.7500 Du        
   9725 ****         3.0000 -27.0000 -28.5000 Du        
   9726 ****         3.0000 -27.0000 -28.2500 Du        
   9727 ****         3.0000 -27.0000 -28.0000 Du        
   9728 ****         3.0000 -27.0000 -27.7500 Du        
   9729 ****         3.0000 -26.7500 -30.2500 Du        
   9730 ****         3.0000 -26.7500 -30.0000 Du        
   9731 ****         3.0000 -26.7500 -29.7500 Du        
   9732 ****         3.0000 -26.7500 -29.5000 Du        
   9733 ****         3.0000 -26.7500 -29.2500 Du        
   9734 ****         3.0000 -26.7500 -29.0000 Du        
   9735 ****         3.0000 -26.7500 -28.7500 Du        
   9736 ****         3.0000 -26.7500 -28.5000 Du        
   9737 ****         3.0000 -26.7500 -28.2500 Du        
   9738 ****         3.0000 -26.7500 -28.0000 Du        
   9739 ****         3.0000 -26.7500 -27.7500 Du        
   9740 ****         3.0000 -26.5000 -29.7500 Du        
   9741 ****         3.0000 -26.5000 -29.5000 Du        
   9742 ****         3.0000 -26.5000 -29.2500 Du        
   9743 ****         3.0000 -26.5000 -29.0000 Du        
   9744 ****         3.0000 -26.5000 -28.7500 Du        
   9745 ****         3.0000 -26.5000 -28.5000 Du        
   9746 ****         3.0000 -26.5000 -28.2500 Du        
   9747 ****         3.0000 -26.5000 -28.0000 Du        
   9748 ****         3.0000 -26.5000 -27.7500 Du        
   9749 ****         3.0000 -26.2500 -29.5000 Du        
   9750 ****         3.0000 -26.2500 -29.2500 Du        
   9751 ****         3.0000 -26.2500 -29.0000 Du        
   9752 ****         3.0000 -26.2500 -28.7500 Du        
   9753 ****         3.0000 -26.2500 -28.5000 Du        
   9754 ****         3.0000 -26.2500 -28.2500 Du        
   9755 ****         3.0000 -26.2500 -28.0000 Du        
   9756 ****         3.0000 -26.0000 -29.2500 Du        
   9757 ****         3.0000 -26.0000 -29.0000 Du        
   9758 ****         3.0000 -26.0000 -28.7500 Du        
   9759 ****         3.0000 -26.0000 -28.5000 Du        
   9760 ****         3.0000 -26.0000 -28.2500 Du        
   9761 ****         3.0000 -25.7500 -29.0000 Du        
   9762 ****         3.0000 -25.7500 -28.7500 Du        
   9763 ****         3.0000 -25.7500 -28.5000 Du        
