#       Name:                CT1002167954
#       Creating user name   hitesit
#       Creation time:       Sun Apr 16 02:22:22 2023


#       File generated by GOLD software.
#

@<TRIPOS>MOLECULE
CT1002167954|ligand_prepared|mol2|1|dock10
    29    30     1
SMALL
NO_CHARGES


@<TRIPOS>ATOM
      1 C1          -6.9170 -24.4224 -28.3868 C.3            1 RES1               0.0000
      2 C2          -6.4862 -25.7517 -29.0395 C.ar           1 RES1               0.0000
      3 C3          -5.6697 -23.5448 -28.3385 C.2            1 RES1               0.0000
      4 C4          -8.0376 -23.8634 -29.2567 C.2            1 RES1               0.0000
      5 C5          -7.4625 -24.5805 -26.9484 C.3            1 RES1               0.0000
      6 C6          -5.2896 -25.8399 -29.7446 C.ar           1 RES1               0.0000
      7 C7          -7.2721 -26.8970 -28.9431 C.ar           1 RES1               0.0000
      8 N8          -5.5936 -22.5059 -29.2187 N.am           1 RES1               0.0000
      9 O9          -4.7493 -23.7845 -27.5667 O.2            1 RES1               0.0000
     10 N10         -7.8043 -22.6934 -29.9308 N.am           1 RES1               0.0000
     11 O11         -9.1145 -24.4343 -29.3775 O.2            1 RES1               0.0000
     12 C12         -7.9492 -23.2790 -26.3308 C.3            1 RES1               0.0000
     13 C13         -4.8916 -27.0305 -30.3296 C.ar           1 RES1               0.0000
     14 C14         -6.8723 -28.0866 -29.5290 C.ar           1 RES1               0.0000
     15 C15         -6.6224 -22.0055 -29.9755 C.2            1 RES1               0.0000
     16 C16         -5.6823 -28.1547 -30.2219 C.ar           1 RES1               0.0000
     17 O17         -6.4739 -20.9896 -30.6486 O.2            1 RES1               0.0000
     18 H18         -8.2930 -25.2970 -26.9625 H              1 RES1               0.0000
     19 H19         -6.6704 -24.9976 -26.3143 H              1 RES1               0.0000
     20 H20         -4.6555 -24.9650 -29.8421 H              1 RES1               0.0000
     21 H21         -8.2128 -26.8665 -28.4038 H              1 RES1               0.0000
     22 H22         -4.6879 -22.0598 -29.3240 H              1 RES1               0.0000
     23 H23         -8.5841 -22.2987 -30.4471 H              1 RES1               0.0000
     24 H24         -8.3213 -23.4462 -25.3221 H              1 RES1               0.0000
     25 H25         -7.1420 -22.5515 -26.2779 H              1 RES1               0.0000
     26 H26         -8.7549 -22.8491 -26.9222 H              1 RES1               0.0000
     27 H27         -3.9548 -27.0785 -30.8749 H              1 RES1               0.0000
     28 H28         -7.4981 -28.9687 -29.4423 H              1 RES1               0.0000
     29 H29         -5.3701 -29.0874 -30.6799 H              1 RES1               0.0000
@<TRIPOS>BOND
    1    1    2 1     
    2    1    3 1     
    3    1    4 1     
    4    1    5 1     
    5    2    6 ar    
    6    2    7 ar    
    7    3    8 1     
    8    3    9 2     
    9    4   10 1     
   10    4   11 2     
   11    5   12 1     
   12    5   18 1     
   13    5   19 1     
   14    6   13 ar    
   15    6   20 1     
   16    7   14 ar    
   17    7   21 1     
   18    8   15 1     
   19    8   22 1     
   20   10   15 1     
   21   10   23 1     
   22   12   24 1     
   23   12   25 1     
   24   12   26 1     
   25   13   16 ar    
   26   13   27 1     
   27   14   16 ar    
   28   14   28 1     
   29   15   17 2     
   30   16   29 1     
@<TRIPOS>SUBSTRUCTURE
      1 RES1           1
@<TRIPOS>SET
DONOR_HYDROGENS      STATIC     ATOMS    <user>   **** ""
2 22 23
ATOM$RED        STATIC     ATOMS    COLORGROUP SYSTEM
2 22 23
@<TRIPOS>COMMENT
> <Gold.Version>
2022.3.0

> <Gold.Id.Protein>
unknown|7kl0_clean|pdb

> <Gold.Protein.RotatedTorsions>
[ 1096 1086 1087 1088 ] final  133.91 input   77.66 | X-H torsion
[ 1116 1106 1107 1108 ] final  -39.68 input   75.39 | X-H torsion
[ 2209 2193 2194 2195 ] final   11.71 input  128.07 | X-H torsion
[ 2253 2229 2230 2231 ] final  -22.15 input   94.48 | X-H torsion
[ 2733 2713 2714 2715 ] final   68.96 input   74.45 | X-H torsion
[ 2762 2750 2751 2752 ] final -113.55 input  128.15 | X-H torsion
[ 2793 2774 2775 2776 ] final -145.91 input  106.68 | X-H torsion
[ 2827 2811 2812 2813 ] final  113.03 input   64.81 | X-H torsion
[ 2857 2843 2844 2845 ] final  -73.04 input   70.34 | X-H torsion
[  504  482  483  484 ] final -100.13 input   40.33 | X-H torsion
[  528  521  522  523 ] final  -75.14 input   38.54 | X-H torsion
[  612  602  601  598 ] final  -52.60 input   59.99 | X-H torsion
[  636  620  621  622 ] final  130.69 input   33.60 | X-H torsion
[  668  652  653  654 ] final   18.19 input   67.24 | X-H torsion
[ 1152 1130 1131 1132 ] final   53.59 input  101.11 | X-H torsion
[ 1162 1138 1137 1136 ] final   63.87 input   59.97 | X-H torsion
[ 1189 1173 1174 1175 ] final   86.64 input   74.99 | X-H torsion
[ 4769 4761 4762 4763 ] final  166.63 input -116.16 | X-H torsion
[ 4799 4788 4789 4790 ] final  119.81 input   84.75 | X-H torsion
[ 4825 4821 4822 4823 ] final   38.63 input  114.67 | X-H torsion
[  760  736  737  738 ] final   88.72 input  123.93 | X-H torsion
[ 1072 1051 1052 1053 ] final -110.23 input   37.12 | X-H torsion
[ 2863 2849 2847 2844 ] final  101.82 input   59.99 | X-H torsion
[ 2875 2868 2869 2870 ] final  -25.01 input   94.70 | X-H torsion
[ 2889 2882 2883 2884 ] final   85.09 input -101.73 | X-H torsion
[ 4743 4738 4739 4740 ] final  172.25 input   44.52 | X-H torsion
[  447  429  430  431 ] final -111.13 input   69.31 | X-H torsion
[  470  463  464  465 ] final  106.88 input   13.24 | X-H torsion
[  712  688  689  690 ] final -102.81 input   42.22 | X-H torsion
[ 2916 2901 2902 2903 ] final -148.43 input  112.69 | X-H torsion
[ 4310 4296 4297 4298 ] final  136.29 input   86.41 | X-H torsion
[ 4343 4324 4325 4326 ] final  -87.06 input   71.41 | X-H torsion
[ 4381 4362 4363 4364 ] final   -6.55 input   70.60 | X-H torsion
[ 4419 4400 4401 4402 ] final   74.33 input   92.71 | X-H torsion
[  790  779  780  781 ] final  -38.45 input   42.63 | X-H torsion
[ 4847 4839 4840 4841 ] final -132.31 input   74.58 | X-H torsion
[ 2649 2634 2635 2636 ] final   54.76 input   83.10 | X-H torsion
[ 2946 2930 2931 2932 ] final   96.66 input  126.41 | X-H torsion
[ 4496 4485 4484 4483 ] final  146.98 input   60.01 | X-H torsion
[ 8535  691  690  689 ] final -138.10 input    0.00 | X-H torsion
[ 8537 1054 1053 1052 ] final   91.22 input    0.00 | X-H torsion
[ 8540 1089 1088 1087 ] final -167.67 input    0.00 | X-H torsion
[ 8545 2232 2231 2230 ] final  -97.32 input    0.00 | X-H torsion
[ 8548 2716 2715 2714 ] final -166.34 input    0.00 | X-H torsion
[ 8551 2753 2752 2751 ] final -102.01 input    0.00 | X-H torsion
[ 8558 2777 2776 2775 ] final  173.70 input    0.00 | X-H torsion
[ 8561 2814 2813 2812 ] final -123.16 input    0.00 | X-H torsion
[ 8564  466  465  464 ] final -135.71 input   -0.00 | X-H torsion
[ 8567  485  484  483 ] final  106.21 input    0.00 | X-H torsion
[ 8573  623  622  621 ] final  150.32 input    0.00 | X-H torsion
[ 8576 1109 1108 1107 ] final   13.75 input   -0.00 | X-H torsion
[ 8579 1133 1132 1131 ] final  -77.74 input    0.00 | X-H torsion
[ 8586 2637 2636 2635 ] final  -37.43 input    0.00 | X-H torsion
[ 8588 4741 4740 4739 ] final   87.84 input    0.00 | X-H torsion
[ 8591 4764 4763 4762 ] final  114.48 input    0.00 | X-H torsion
[ 8600 1021 1020 1019 ] final  -51.35 input    0.00 | X-H torsion
[ 8603 2846 2845 2844 ] final   99.34 input   -0.00 | X-H torsion
[ 8609 4403 4402 4401 ] final   58.19 input    0.00 | X-H torsion
[ 8612 4791 4790 4789 ] final  -54.04 input    0.00 | X-H torsion
[ 8615  432  431  430 ] final  142.60 input    0.00 | X-H torsion
[ 8618  655  654  653 ] final   51.18 input    0.00 | X-H torsion
[ 8626 4270 4269 4268 ] final  -64.18 input    0.00 | X-H torsion
[ 8628 2885 2884 2883 ] final   -6.10 input    0.00 | X-H torsion
[ 8633 4299 4298 4297 ] final   25.02 input    0.00 | X-H torsion
[ 8636 4327 4326 4325 ] final  -61.86 input    0.00 | X-H torsion
[ 8639 2196 2195 2194 ] final   39.71 input    0.00 | X-H torsion
[ 8641 4706 4705 4704 ] final   39.79 input    0.00 | X-H torsion
[ 8647  403  402  401 ] final   90.41 input    0.00 | X-H torsion
[ 8651 2871 2870 2869 ] final  135.49 input    0.00 | X-H torsion
[ 8653 2904 2903 2902 ] final -131.64 input    0.00 | X-H torsion
[ 8655 4663 4662 4661 ] final  136.75 input    0.00 | X-H torsion

> <Gold.Protein.ActiveResidues>
 GLU18   LEU19   GLY20   LYS21   GLY22   SER25   VAL26   VAL27   ARG28   ARG29  
 CYS30   GLU38   TYR39   ALA40   ALA41   LYS42   ILE43   ILE44   GLU60   CYS64  
 VAL73   ARG74   LEU75   LEU87   ILE88   PHE89   ASP90   LEU91   VAL92   THR93  
 GLY94   GLY95   GLU96   LEU97   GLU99   GLU139  ASN140  LEU141  LEU142  LEU143 
 LYS146  LYS153  LEU154  ALA155  ASP156  PHE157  GLY158  LEU159 

> <Gold.Protein.RotatedAtoms>
   -5.1109  -28.2031  -21.5704 H   0  0  0  0  0  0  0  0  0  0  0  0  # atno 447  bound_to 429 
   -6.6235  -25.8270  -23.7436 H   0  0  0  0  0  0  0  0  0  0  0  0  # atno 470  bound_to 463 
   -7.6041  -22.7633  -22.3290 H   0  0  0  0  0  0  0  0  0  0  0  0  # atno 504  bound_to 482 
   -8.7632  -19.4111  -20.6003 H   0  0  0  0  0  0  0  0  0  0  0  0  # atno 528  bound_to 521 
  -13.2203  -19.5490  -21.0223 H   0  0  0  0  0  0  0  0  0  0  0  0  # atno 612  bound_to 602 
  -12.6718  -23.0754  -18.6605 H   0  0  0  0  0  0  0  0  0  0  0  0  # atno 636  bound_to 620 
   -9.4882  -25.3342  -20.9819 H   0  0  0  0  0  0  0  0  0  0  0  0  # atno 668  bound_to 652 
   -9.5139  -28.0620  -22.6494 H   0  0  0  0  0  0  0  0  0  0  0  0  # atno 712  bound_to 688 
   -7.8861  -31.8484  -22.1581 H   0  0  0  0  0  0  0  0  0  0  0  0  # atno 760  bound_to 736 
   -9.9343  -35.1603  -23.6634 H   0  0  0  0  0  0  0  0  0  0  0  0  # atno 790  bound_to 779 
  -11.2846  -36.7223  -27.8458 H   0  0  0  0  0  0  0  0  0  0  0  0  # atno 1072 bound_to 1051
  -11.3840  -32.7440  -28.2501 H   0  0  0  0  0  0  0  0  0  0  0  0  # atno 1096 bound_to 1086
  -12.4332  -29.9361  -25.4701 H   0  0  0  0  0  0  0  0  0  0  0  0  # atno 1116 bound_to 1106
  -15.4377  -28.0078  -24.5137 H   0  0  0  0  0  0  0  0  0  0  0  0  # atno 1152 bound_to 1130
  -17.0017  -20.4166  -24.7164 H   0  0  0  0  0  0  0  0  0  0  0  0  # atno 1162 bound_to 1138
  -15.7810  -19.2958  -24.7415 H   0  0  0  0  0  0  0  0  0  0  0  0  # atno 1163 bound_to 1138
  -16.0363  -20.2736  -26.0550 H   0  0  0  0  0  0  0  0  0  0  0  0  # atno 1164 bound_to 1138
  -14.1009  -26.0210  -21.1880 H   0  0  0  0  0  0  0  0  0  0  0  0  # atno 1189 bound_to 1173
  -14.1996  -26.3041  -37.7877 H   0  0  0  0  0  0  0  0  0  0  0  0  # atno 2209 bound_to 2193
  -14.8637  -28.6942  -35.2219 H   0  0  0  0  0  0  0  0  0  0  0  0  # atno 2253 bound_to 2229
  -18.0971  -27.3954  -23.8436 H   0  0  0  0  0  0  0  0  0  0  0  0  # atno 2649 bound_to 2634
  -15.1982  -30.4901  -28.0414 H   0  0  0  0  0  0  0  0  0  0  0  0  # atno 2733 bound_to 2713
  -15.0079  -32.2590  -31.1872 H   0  0  0  0  0  0  0  0  0  0  0  0  # atno 2762 bound_to 2750
  -11.7753  -33.2430  -30.8226 H   0  0  0  0  0  0  0  0  0  0  0  0  # atno 2793 bound_to 2774
   -8.9085  -31.0820  -32.0409 H   0  0  0  0  0  0  0  0  0  0  0  0  # atno 2827 bound_to 2811
   -5.3620  -31.0859  -33.3381 H   0  0  0  0  0  0  0  0  0  0  0  0  # atno 2857 bound_to 2843
   -2.5792  -34.3093  -34.8951 H   0  0  0  0  0  0  0  0  0  0  0  0  # atno 2863 bound_to 2849
   -2.8109  -30.7319  -33.5295 H   0  0  0  0  0  0  0  0  0  0  0  0  # atno 2875 bound_to 2868
   -1.0812  -28.8765  -34.0894 H   0  0  0  0  0  0  0  0  0  0  0  0  # atno 2889 bound_to 2882
   -2.1095  -25.2820  -32.4849 H   0  0  0  0  0  0  0  0  0  0  0  0  # atno 2916 bound_to 2901
   -2.3509  -22.2614  -35.7224 H   0  0  0  0  0  0  0  0  0  0  0  0  # atno 2946 bound_to 2930
   -5.7889  -17.9946  -33.6020 H   0  0  0  0  0  0  0  0  0  0  0  0  # atno 4310 bound_to 4296
   -7.0289  -20.7891  -35.1133 H   0  0  0  0  0  0  0  0  0  0  0  0  # atno 4343 bound_to 4324
   -5.9737  -23.9177  -37.4423 H   0  0  0  0  0  0  0  0  0  0  0  0  # atno 4381 bound_to 4362
   -3.3446  -26.9161  -36.0888 H   0  0  0  0  0  0  0  0  0  0  0  0  # atno 4419 bound_to 4400
   -0.2409  -34.6711  -32.5474 H   0  0  0  0  0  0  0  0  0  0  0  0  # atno 4496 bound_to 4485
    0.1992  -33.4810  -31.4814 H   0  0  0  0  0  0  0  0  0  0  0  0  # atno 4497 bound_to 4485
    0.0088  -33.1244  -33.0882 H   0  0  0  0  0  0  0  0  0  0  0  0  # atno 4498 bound_to 4485
  -10.7114  -23.0892  -36.3071 H   0  0  0  0  0  0  0  0  0  0  0  0  # atno 4743 bound_to 4738
  -11.8336  -22.1112  -32.3040 H   0  0  0  0  0  0  0  0  0  0  0  0  # atno 4769 bound_to 4761
  -15.1395  -20.6675  -32.3700 H   0  0  0  0  0  0  0  0  0  0  0  0  # atno 4799 bound_to 4788
  -15.4454  -17.4570  -30.9364 H   0  0  0  0  0  0  0  0  0  0  0  0  # atno 4825 bound_to 4821
  -16.4034  -15.4421  -29.4153 H   0  0  0  0  0  0  0  0  0  0  0  0  # atno 4847 bound_to 4839
  -11.1825  -32.1239  -23.2521 LP  0  0  0  0  0  0  0  0  0  0  0  0  # atno 8535 bound_to 691 
  -11.2019  -30.4107  -23.5062 LP  0  0  0  0  0  0  0  0  0  0  0  0  # atno 8536 bound_to 691 
  -10.0205  -34.3162  -26.0240 LP  0  0  0  0  0  0  0  0  0  0  0  0  # atno 8537 bound_to 1054
  -11.3966  -34.1811  -24.9809 LP  0  0  0  0  0  0  0  0  0  0  0  0  # atno 8538 bound_to 1054
  -12.4799  -33.2548  -26.9739 LP  0  0  0  0  0  0  0  0  0  0  0  0  # atno 8539 bound_to 1086
  -14.5033  -29.8054  -26.7507 LP  0  0  0  0  0  0  0  0  0  0  0  0  # atno 8540 bound_to 1089
  -13.6413  -30.6785  -27.9733 LP  0  0  0  0  0  0  0  0  0  0  0  0  # atno 8541 bound_to 1089
  -12.7307  -31.4879  -24.7047 LP  0  0  0  0  0  0  0  0  0  0  0  0  # atno 8542 bound_to 1106
  -12.4551  -26.4959  -37.7853 LP  0  0  0  0  0  0  0  0  0  0  0  0  # atno 8543 bound_to 2193
  -14.8030  -29.4439  -36.8021 LP  0  0  0  0  0  0  0  0  0  0  0  0  # atno 8544 bound_to 2229
  -16.3069  -31.1906  -33.2148 LP  0  0  0  0  0  0  0  0  0  0  0  0  # atno 8545 bound_to 2232
  -15.4074  -29.7107  -33.1845 LP  0  0  0  0  0  0  0  0  0  0  0  0  # atno 8546 bound_to 2232
  -16.8239  -30.7376  -28.6544 LP  0  0  0  0  0  0  0  0  0  0  0  0  # atno 8547 bound_to 2713
  -13.1557  -32.9242  -29.8223 LP  0  0  0  0  0  0  0  0  0  0  0  0  # atno 8548 bound_to 2716
  -14.1677  -32.1333  -28.6603 LP  0  0  0  0  0  0  0  0  0  0  0  0  # atno 8549 bound_to 2716
  -14.2719  -30.9495  -32.0866 LP  0  0  0  0  0  0  0  0  0  0  0  0  # atno 8550 bound_to 2750
  -11.1228  -30.6946  -32.0970 LP  0  0  0  0  0  0  0  0  0  0  0  0  # atno 8551 bound_to 2753
  -12.0539  -30.8350  -30.6432 LP  0  0  0  0  0  0  0  0  0  0  0  0  # atno 8552 bound_to 2753
  -11.3794  -33.7891  -32.4421 LP  0  0  0  0  0  0  0  0  0  0  0  0  # atno 8557 bound_to 2774
   -8.8080  -33.2062  -34.3765 LP  0  0  0  0  0  0  0  0  0  0  0  0  # atno 8558 bound_to 2777
   -9.7267  -34.3523  -33.4588 LP  0  0  0  0  0  0  0  0  0  0  0  0  # atno 8559 bound_to 2777
   -8.2035  -32.6865  -32.0958 LP  0  0  0  0  0  0  0  0  0  0  0  0  # atno 8560 bound_to 2811
   -5.0318  -29.9445  -31.9083 LP  0  0  0  0  0  0  0  0  0  0  0  0  # atno 8561 bound_to 2814
   -6.2591  -30.8695  -31.1095 LP  0  0  0  0  0  0  0  0  0  0  0  0  # atno 8562 bound_to 2814
   -5.4693  -32.5548  -34.2883 LP  0  0  0  0  0  0  0  0  0  0  0  0  # atno 8563 bound_to 2843
   -8.4892  -23.8487  -20.9189 LP  0  0  0  0  0  0  0  0  0  0  0  0  # atno 8564 bound_to 466 
   -6.9943  -24.7201  -20.8423 LP  0  0  0  0  0  0  0  0  0  0  0  0  # atno 8565 bound_to 466 
   -6.3496  -21.5454  -22.4874 LP  0  0  0  0  0  0  0  0  0  0  0  0  # atno 8566 bound_to 482 
   -8.8097  -19.6994  -23.5047 LP  0  0  0  0  0  0  0  0  0  0  0  0  # atno 8567 bound_to 485 
   -7.5274  -18.8761  -22.6815 LP  0  0  0  0  0  0  0  0  0  0  0  0  # atno 8568 bound_to 485 
  -10.1144  -20.4835  -20.9398 LP  0  0  0  0  0  0  0  0  0  0  0  0  # atno 8569 bound_to 521 
  -13.8108  -20.2800  -22.3510 LP  0  0  0  0  0  0  0  0  0  0  0  0  # atno 8570 bound_to 602 
  -12.5132  -20.9042  -21.5808 LP  0  0  0  0  0  0  0  0  0  0  0  0  # atno 8571 bound_to 602 
  -12.6788  -22.7236  -20.3822 LP  0  0  0  0  0  0  0  0  0  0  0  0  # atno 8572 bound_to 620 
  -12.7514  -25.5172  -22.0092 LP  0  0  0  0  0  0  0  0  0  0  0  0  # atno 8573 bound_to 623 
  -13.1120  -25.3334  -20.3251 LP  0  0  0  0  0  0  0  0  0  0  0  0  # atno 8574 bound_to 623 
  -10.9477  -24.5873  -21.5965 LP  0  0  0  0  0  0  0  0  0  0  0  0  # atno 8575 bound_to 652 
  -12.2622  -29.0896  -22.7415 LP  0  0  0  0  0  0  0  0  0  0  0  0  # atno 8576 bound_to 1109
  -12.7928  -27.4633  -22.4706 LP  0  0  0  0  0  0  0  0  0  0  0  0  # atno 8577 bound_to 1109
  -13.6908  -27.9547  -24.3914 LP  0  0  0  0  0  0  0  0  0  0  0  0  # atno 8578 bound_to 1130
  -17.4761  -25.8746  -22.9463 LP  0  0  0  0  0  0  0  0  0  0  0  0  # atno 8579 bound_to 1133
  -17.1875  -27.5133  -22.4652 LP  0  0  0  0  0  0  0  0  0  0  0  0  # atno 8580 bound_to 1133
  -15.5880  -26.0958  -22.1159 LP  0  0  0  0  0  0  0  0  0  0  0  0  # atno 8581 bound_to 1173
  -16.3580  -27.5676  -26.0757 LP  0  0  0  0  0  0  0  0  0  0  0  0  # atno 8586 bound_to 2637
  -16.1127  -29.2377  -25.6875 LP  0  0  0  0  0  0  0  0  0  0  0  0  # atno 8587 bound_to 2637
  -12.1286  -19.7162  -34.7922 LP  0  0  0  0  0  0  0  0  0  0  0  0  # atno 8588 bound_to 4741
  -10.6787  -19.8063  -33.8490 LP  0  0  0  0  0  0  0  0  0  0  0  0  # atno 8589 bound_to 4741
  -13.1112  -21.5294  -33.3635 LP  0  0  0  0  0  0  0  0  0  0  0  0  # atno 8590 bound_to 4761
  -13.2969  -17.9764  -33.4166 LP  0  0  0  0  0  0  0  0  0  0  0  0  # atno 8591 bound_to 4764
  -12.9307  -17.6204  -31.7616 LP  0  0  0  0  0  0  0  0  0  0  0  0  # atno 8592 bound_to 4764
  -14.2856  -19.2967  -31.6717 LP  0  0  0  0  0  0  0  0  0  0  0  0  # atno 8597 bound_to 4788
  -16.3776  -18.8930  -30.5568 LP  0  0  0  0  0  0  0  0  0  0  0  0  # atno 8598 bound_to 4821
   -9.1721  -31.2092  -23.1601 LP  0  0  0  0  0  0  0  0  0  0  0  0  # atno 8599 bound_to 736 
  -11.2065  -37.5888  -29.8553 LP  0  0  0  0  0  0  0  0  0  0  0  0  # atno 8600 bound_to 1021
  -12.7992  -36.9865  -29.5380 LP  0  0  0  0  0  0  0  0  0  0  0  0  # atno 8601 bound_to 1021
  -12.0183  -36.5601  -26.2587 LP  0  0  0  0  0  0  0  0  0  0  0  0  # atno 8602 bound_to 1051
   -0.7987  -32.6153  -33.1956 LP  0  0  0  0  0  0  0  0  0  0  0  0  # atno 8603 bound_to 2846
   -1.2843  -31.4883  -31.9733 LP  0  0  0  0  0  0  0  0  0  0  0  0  # atno 8604 bound_to 2846
   -3.8893  -33.3635  -35.0878 LP  0  0  0  0  0  0  0  0  0  0  0  0  # atno 8605 bound_to 2849
   -4.0649  -34.9728  -34.8738 LP  0  0  0  0  0  0  0  0  0  0  0  0  # atno 8606 bound_to 2849
   -3.1669  -31.5258  -35.0469 LP  0  0  0  0  0  0  0  0  0  0  0  0  # atno 8607 bound_to 2868
   -2.6864  -28.8931  -33.3896 LP  0  0  0  0  0  0  0  0  0  0  0  0  # atno 8608 bound_to 2882
   -4.3735  -28.9760  -35.8671 LP  0  0  0  0  0  0  0  0  0  0  0  0  # atno 8609 bound_to 4403
   -3.4472  -30.3821  -36.2728 LP  0  0  0  0  0  0  0  0  0  0  0  0  # atno 8610 bound_to 4403
  -11.1051  -21.3853  -36.1520 LP  0  0  0  0  0  0  0  0  0  0  0  0  # atno 8611 bound_to 4738
  -18.2481  -17.1344  -32.3321 LP  0  0  0  0  0  0  0  0  0  0  0  0  # atno 8612 bound_to 4791
  -18.6960  -18.0220  -30.9138 LP  0  0  0  0  0  0  0  0  0  0  0  0  # atno 8613 bound_to 4791
   -6.7193  -27.6583  -22.0093 LP  0  0  0  0  0  0  0  0  0  0  0  0  # atno 8614 bound_to 429 
   -4.7227  -24.7513  -25.2162 LP  0  0  0  0  0  0  0  0  0  0  0  0  # atno 8615 bound_to 432 
   -3.5422  -25.9349  -24.7627 LP  0  0  0  0  0  0  0  0  0  0  0  0  # atno 8616 bound_to 432 
   -5.4994  -25.6653  -22.4063 LP  0  0  0  0  0  0  0  0  0  0  0  0  # atno 8617 bound_to 463 
   -8.2065  -26.6240  -21.0732 LP  0  0  0  0  0  0  0  0  0  0  0  0  # atno 8618 bound_to 655 
   -7.5763  -27.8348  -22.1395 LP  0  0  0  0  0  0  0  0  0  0  0  0  # atno 8619 bound_to 655 
  -11.0451  -28.6778  -22.0623 LP  0  0  0  0  0  0  0  0  0  0  0  0  # atno 8620 bound_to 688 
   -0.4634  -25.1726  -33.0683 LP  0  0  0  0  0  0  0  0  0  0  0  0  # atno 8623 bound_to 2901
   -4.5395  -21.3706  -32.5698 LP  0  0  0  0  0  0  0  0  0  0  0  0  # atno 8626 bound_to 4270
   -5.7988  -20.6552  -31.6198 LP  0  0  0  0  0  0  0  0  0  0  0  0  # atno 8627 bound_to 4270
   -2.2988  -26.9884  -35.1241 LP  0  0  0  0  0  0  0  0  0  0  0  0  # atno 8628 bound_to 2885
   -2.4093  -25.2643  -35.2484 LP  0  0  0  0  0  0  0  0  0  0  0  0  # atno 8629 bound_to 2885
   -5.1360  -19.6094  -33.8373 LP  0  0  0  0  0  0  0  0  0  0  0  0  # atno 8632 bound_to 4296
   -9.3439  -20.5209  -35.0647 LP  0  0  0  0  0  0  0  0  0  0  0  0  # atno 8633 bound_to 4299
   -8.5361  -21.8562  -35.8159 LP  0  0  0  0  0  0  0  0  0  0  0  0  # atno 8634 bound_to 4299
   -5.6530  -19.9182  -35.7624 LP  0  0  0  0  0  0  0  0  0  0  0  0  # atno 8635 bound_to 4324
   -3.5387  -22.2233  -36.6635 LP  0  0  0  0  0  0  0  0  0  0  0  0  # atno 8636 bound_to 4327
   -3.9517  -22.8313  -35.0951 LP  0  0  0  0  0  0  0  0  0  0  0  0  # atno 8637 bound_to 4327
   -6.3208  -23.3862  -35.8093 LP  0  0  0  0  0  0  0  0  0  0  0  0  # atno 8638 bound_to 4362
  -15.7120  -26.2135  -36.4912 LP  0  0  0  0  0  0  0  0  0  0  0  0  # atno 8639 bound_to 2196
  -16.5507  -27.0994  -35.2616 LP  0  0  0  0  0  0  0  0  0  0  0  0  # atno 8640 bound_to 2196
  -12.1015  -24.7194  -37.4520 LP  0  0  0  0  0  0  0  0  0  0  0  0  # atno 8641 bound_to 4706
  -13.1055  -23.8622  -36.3307 LP  0  0  0  0  0  0  0  0  0  0  0  0  # atno 8642 bound_to 4706
   -3.5349  -29.5373  -21.6847 LP  0  0  0  0  0  0  0  0  0  0  0  0  # atno 8647 bound_to 403 
   -3.0907  -27.9459  -21.1648 LP  0  0  0  0  0  0  0  0  0  0  0  0  # atno 8648 bound_to 403 
    0.1539  -27.4927  -34.8985 LP  0  0  0  0  0  0  0  0  0  0  0  0  # atno 8651 bound_to 2871
    0.9163  -29.0475  -34.8595 LP  0  0  0  0  0  0  0  0  0  0  0  0  # atno 8652 bound_to 2871
    0.9839  -22.9498  -35.2919 LP  0  0  0  0  0  0  0  0  0  0  0  0  # atno 8653 bound_to 2904
    0.5995  -24.4814  -34.5802 LP  0  0  0  0  0  0  0  0  0  0  0  0  # atno 8654 bound_to 2904
   -8.2550  -23.4301  -37.2755 LP  0  0  0  0  0  0  0  0  0  0  0  0  # atno 8655 bound_to 4663
   -8.3941  -25.0916  -36.8064 LP  0  0  0  0  0  0  0  0  0  0  0  0  # atno 8656 bound_to 4663
   -4.4545  -26.1790  -37.2294 LP  0  0  0  0  0  0  0  0  0  0  0  0  # atno 8657 bound_to 4400

> <Gold.Score>
     Fitness  S(hb_ext) S(vdw_ext)  S(hb_int)    S(int)      intcor
     33.13       8.75      19.37       0.00      -2.24      -0.76

> <Gold.Goldscore.Fitness>
33.1294

> <Gold.Goldscore.Internal.Vdw>
-2.6227

> <Gold.Goldscore.Internal.Torsion>
-0.3777

> <Gold.Goldscore.External.Vdw>
19.3653

> <Gold.Goldscore.Internal.HBond>
0.0000

> <Gold.Goldscore.External.HBond>
8.7471

> <Gold.Goldscore.Internal.Correction>
-0.7554

> <Gold.Goldscore.Hbonds>
donor molecule, donor type, donor heavy atom, donor atom, acceptor molecule, acceptor atom, score
      P1  H   481   498       L1     9  0.52
      L1  H     8    22       P1  2908  0.94

> <Gold.Goldscore.Internal.Vdw.Weighted>
-2.6227

> <Gold.Goldscore.Internal.Torsion.Weighted>
-0.3777

> <Gold.Goldscore.External.Vdw.Weighted>
26.6273

> <Gold.Goldscore.Internal.HBond.Weighted>
0.0000

> <Gold.Goldscore.External.HBond.Weighted>
8.7471

> <Gold.Goldscore.Internal.Correction.Weighted>
-0.7554

> <Gold.Rescore>
     Score     S(PLP)   S(hbond)     S(cho)   S(metal)  DE(clash)   DE(tors)     intcor
     25.72     -25.55       0.93       0.00       0.00       1.63       0.49       ----

> <Gold.PLP.Fitness>
25.7247

> <Gold.PLP.PLP>
-25.5500

> <Gold.PLP.part.hbond>
-1.0000

> <Gold.PLP.part.metal>
0.0000

> <Gold.PLP.part.buried>
-4.4620

> <Gold.PLP.part.nonpolar>
-21.9075

> <Gold.PLP.part.repulsive>
0.3883

> <Gold.PLP.ligand.clash>
1.6271

> <Gold.PLP.ligand.torsion>
0.4911

> <Gold.PLP.Chemscore.Hbond>
0.9280

> <Gold.PLP.Chemscore.CHOScore>
0.0000

> <Gold.PLP.Chemscore.Metal>
0.0000

> <Gold.Chemscore.Hbonds>
donor molecule, donor type, donor heavy atom, donor atom, acceptor molecule, acceptor atom, score
      L1  H     8    22       P1  2908  0.21
      P1  H   481   498       L1     9  1.00

> <Gold.PLP.Chemscore.Internal.Correction>
   9.000000E+99

