#       Name:                CT1002167954
#       Creating user name   hitesit
#       Creation time:       Sun Apr 16 02:22:21 2023


#       File generated by GOLD software.
#

@<TRIPOS>MOLECULE
CT1002167954|ligand_prepared|mol2|1|dock8
    29    30     1
SMALL
NO_CHARGES


@<TRIPOS>ATOM
      1 C1          -8.3972 -24.4199 -28.2815 C.3            1 RES1               0.0000
      2 C2          -9.3607 -23.3958 -27.6477 C.ar           1 RES1               0.0000
      3 C3          -7.6919 -23.6946 -29.4238 C.2            1 RES1               0.0000
      4 C4          -7.4650 -24.8765 -27.1648 C.2            1 RES1               0.0000
      5 C5          -9.1036 -25.6702 -28.8554 C.3            1 RES1               0.0000
      6 C6          -8.9423 -22.5855 -26.5965 C.ar           1 RES1               0.0000
      7 C7         -10.6677 -23.2482 -28.1044 C.ar           1 RES1               0.0000
      8 N8          -6.3885 -23.3392 -29.2373 N.am           1 RES1               0.0000
      9 O9          -8.2819 -23.4037 -30.4570 O.2            1 RES1               0.0000
     10 N10         -6.1367 -24.5553 -27.2656 N.am           1 RES1               0.0000
     11 O11         -7.8716 -25.4971 -26.1902 O.2            1 RES1               0.0000
     12 C12         -8.1517 -26.7976 -29.2230 C.3            1 RES1               0.0000
     13 C13         -9.7984 -21.6592 -26.0244 C.ar           1 RES1               0.0000
     14 C14        -11.5224 -22.3214 -27.5307 C.ar           1 RES1               0.0000
     15 C15         -5.5615 -23.7809 -28.2360 C.2            1 RES1               0.0000
     16 C16        -11.0887 -21.5262 -26.4913 C.ar           1 RES1               0.0000
     17 O17         -4.3687 -23.4903 -28.2290 O.2            1 RES1               0.0000
     18 H18         -9.8214 -26.0418 -28.1138 H              1 RES1               0.0000
     19 H19         -9.6669 -25.3779 -29.7503 H              1 RES1               0.0000
     20 H20         -7.9312 -22.6777 -26.2141 H              1 RES1               0.0000
     21 H21        -11.0309 -23.8639 -28.9203 H              1 RES1               0.0000
     22 H22         -5.9920 -22.6845 -29.9040 H              1 RES1               0.0000
     23 H23         -5.5195 -24.9282 -26.5512 H              1 RES1               0.0000
     24 H24         -8.6986 -27.6500 -29.6205 H              1 RES1               0.0000
     25 H25         -7.4392 -26.4703 -29.9774 H              1 RES1               0.0000
     26 H26         -7.5928 -27.1303 -28.3507 H              1 RES1               0.0000
     27 H27         -9.4527 -21.0367 -25.2057 H              1 RES1               0.0000
     28 H28        -12.5372 -22.2206 -27.9010 H              1 RES1               0.0000
     29 H29        -11.7591 -20.8002 -26.0432 H              1 RES1               0.0000
@<TRIPOS>BOND
    1    1    2 1     
    2    1    3 1     
    3    1    4 1     
    4    1    5 1     
    5    2    6 ar    
    6    2    7 ar    
    7    3    8 1     
    8    3    9 2     
    9    4   10 1     
   10    4   11 2     
   11    5   12 1     
   12    5   18 1     
   13    5   19 1     
   14    6   13 ar    
   15    6   20 1     
   16    7   14 ar    
   17    7   21 1     
   18    8   15 1     
   19    8   22 1     
   20   10   15 1     
   21   10   23 1     
   22   12   24 1     
   23   12   25 1     
   24   12   26 1     
   25   13   16 ar    
   26   13   27 1     
   27   14   16 ar    
   28   14   28 1     
   29   15   17 2     
   30   16   29 1     
@<TRIPOS>SUBSTRUCTURE
      1 RES1           1
@<TRIPOS>SET
DONOR_HYDROGENS      STATIC     ATOMS    <user>   **** ""
2 22 23
ATOM$RED        STATIC     ATOMS    COLORGROUP SYSTEM
2 22 23
@<TRIPOS>COMMENT
> <Gold.Version>
2022.3.0

> <Gold.Id.Protein>
unknown|7kl0_clean|pdb

> <Gold.Protein.RotatedTorsions>
[ 1096 1086 1087 1088 ] final   94.37 input   77.66 | X-H torsion
[ 1116 1106 1107 1108 ] final  -16.07 input   75.39 | X-H torsion
[ 2209 2193 2194 2195 ] final  -61.74 input  128.07 | X-H torsion
[ 2253 2229 2230 2231 ] final   32.71 input   94.48 | X-H torsion
[ 2733 2713 2714 2715 ] final   22.55 input   74.45 | X-H torsion
[ 2762 2750 2751 2752 ] final   72.08 input  128.15 | X-H torsion
[ 2793 2774 2775 2776 ] final -116.34 input  106.68 | X-H torsion
[ 2827 2811 2812 2813 ] final -102.16 input   64.81 | X-H torsion
[ 2857 2843 2844 2845 ] final   21.52 input   70.34 | X-H torsion
[  504  482  483  484 ] final  -16.67 input   40.33 | X-H torsion
[  528  521  522  523 ] final -172.73 input   38.54 | X-H torsion
[  612  602  601  598 ] final    6.97 input   59.99 | X-H torsion
[  636  620  621  622 ] final  164.87 input   33.60 | X-H torsion
[  668  652  653  654 ] final -168.38 input   67.24 | X-H torsion
[ 1152 1130 1131 1132 ] final  -76.88 input  101.11 | X-H torsion
[ 1162 1138 1137 1136 ] final   85.33 input   59.97 | X-H torsion
[ 1189 1173 1174 1175 ] final    1.03 input   74.99 | X-H torsion
[ 4769 4761 4762 4763 ] final -155.95 input -116.16 | X-H torsion
[ 4799 4788 4789 4790 ] final -165.28 input   84.75 | X-H torsion
[ 4825 4821 4822 4823 ] final -128.18 input  114.67 | X-H torsion
[  760  736  737  738 ] final  -68.23 input  123.93 | X-H torsion
[ 1072 1051 1052 1053 ] final   22.12 input   37.12 | X-H torsion
[ 2863 2849 2847 2844 ] final  -96.28 input   59.99 | X-H torsion
[ 2875 2868 2869 2870 ] final  -90.12 input   94.70 | X-H torsion
[ 2889 2882 2883 2884 ] final  -42.32 input -101.73 | X-H torsion
[ 4743 4738 4739 4740 ] final  157.37 input   44.52 | X-H torsion
[  447  429  430  431 ] final -162.45 input   69.31 | X-H torsion
[  470  463  464  465 ] final  151.22 input   13.24 | X-H torsion
[  712  688  689  690 ] final -158.68 input   42.22 | X-H torsion
[ 2916 2901 2902 2903 ] final  150.93 input  112.69 | X-H torsion
[ 4310 4296 4297 4298 ] final  -42.65 input   86.41 | X-H torsion
[ 4343 4324 4325 4326 ] final  -30.90 input   71.41 | X-H torsion
[ 4381 4362 4363 4364 ] final -172.35 input   70.60 | X-H torsion
[ 4419 4400 4401 4402 ] final  -78.52 input   92.71 | X-H torsion
[  790  779  780  781 ] final  -80.21 input   42.63 | X-H torsion
[ 4847 4839 4840 4841 ] final  129.59 input   74.58 | X-H torsion
[ 2649 2634 2635 2636 ] final  -68.66 input   83.10 | X-H torsion
[ 2946 2930 2931 2932 ] final  -85.74 input  126.41 | X-H torsion
[ 4496 4485 4484 4483 ] final -157.78 input   60.01 | X-H torsion
[ 8535  691  690  689 ] final  -70.21 input    0.00 | X-H torsion
[ 8537 1054 1053 1052 ] final -127.87 input    0.00 | X-H torsion
[ 8540 1089 1088 1087 ] final  129.47 input    0.00 | X-H torsion
[ 8545 2232 2231 2230 ] final   33.82 input    0.00 | X-H torsion
[ 8548 2716 2715 2714 ] final -119.49 input    0.00 | X-H torsion
[ 8551 2753 2752 2751 ] final  -75.89 input    0.00 | X-H torsion
[ 8558 2777 2776 2775 ] final   -9.83 input    0.00 | X-H torsion
[ 8561 2814 2813 2812 ] final  112.54 input    0.00 | X-H torsion
[ 8564  466  465  464 ] final  -90.04 input   -0.00 | X-H torsion
[ 8567  485  484  483 ] final  -28.14 input    0.00 | X-H torsion
[ 8573  623  622  621 ] final -125.18 input    0.00 | X-H torsion
[ 8576 1109 1108 1107 ] final -108.35 input   -0.00 | X-H torsion
[ 8579 1133 1132 1131 ] final  -63.33 input    0.00 | X-H torsion
[ 8586 2637 2636 2635 ] final   11.16 input    0.00 | X-H torsion
[ 8588 4741 4740 4739 ] final   -4.33 input    0.00 | X-H torsion
[ 8591 4764 4763 4762 ] final  -28.27 input    0.00 | X-H torsion
[ 8600 1021 1020 1019 ] final -149.46 input    0.00 | X-H torsion
[ 8603 2846 2845 2844 ] final  127.76 input   -0.00 | X-H torsion
[ 8609 4403 4402 4401 ] final -116.06 input    0.00 | X-H torsion
[ 8612 4791 4790 4789 ] final  157.20 input    0.00 | X-H torsion
[ 8615  432  431  430 ] final  123.74 input    0.00 | X-H torsion
[ 8618  655  654  653 ] final  -67.34 input    0.00 | X-H torsion
[ 8626 4270 4269 4268 ] final   90.93 input    0.00 | X-H torsion
[ 8628 2885 2884 2883 ] final  161.42 input    0.00 | X-H torsion
[ 8633 4299 4298 4297 ] final  172.60 input    0.00 | X-H torsion
[ 8636 4327 4326 4325 ] final   82.50 input    0.00 | X-H torsion
[ 8639 2196 2195 2194 ] final -152.33 input    0.00 | X-H torsion
[ 8641 4706 4705 4704 ] final  113.49 input    0.00 | X-H torsion
[ 8647  403  402  401 ] final   93.40 input    0.00 | X-H torsion
[ 8651 2871 2870 2869 ] final -106.00 input    0.00 | X-H torsion
[ 8653 2904 2903 2902 ] final   45.81 input    0.00 | X-H torsion
[ 8655 4663 4662 4661 ] final   41.51 input    0.00 | X-H torsion

> <Gold.Protein.ActiveResidues>
 GLU18   LEU19   GLY20   LYS21   GLY22   SER25   VAL26   VAL27   ARG28   ARG29  
 CYS30   GLU38   TYR39   ALA40   ALA41   LYS42   ILE43   ILE44   GLU60   CYS64  
 VAL73   ARG74   LEU75   LEU87   ILE88   PHE89   ASP90   LEU91   VAL92   THR93  
 GLY94   GLY95   GLU96   LEU97   GLU99   GLU139  ASN140  LEU141  LEU142  LEU143 
 LYS146  LYS153  LEU154  ALA155  ASP156  PHE157  GLY158  LEU159 

> <Gold.Protein.RotatedAtoms>
   -5.5771  -28.7436  -21.8767 H   0  0  0  0  0  0  0  0  0  0  0  0  # atno 447  bound_to 429 
   -5.9812  -25.7830  -23.9537 H   0  0  0  0  0  0  0  0  0  0  0  0  # atno 470  bound_to 463 
   -7.5362  -21.7713  -22.9966 H   0  0  0  0  0  0  0  0  0  0  0  0  # atno 504  bound_to 482 
   -9.3304  -20.0365  -21.6682 H   0  0  0  0  0  0  0  0  0  0  0  0  # atno 528  bound_to 521 
  -12.5601  -20.2004  -20.9507 H   0  0  0  0  0  0  0  0  0  0  0  0  # atno 612  bound_to 602 
  -12.3859  -22.6339  -18.7305 H   0  0  0  0  0  0  0  0  0  0  0  0  # atno 636  bound_to 620 
  -10.9140  -24.5384  -21.6854 H   0  0  0  0  0  0  0  0  0  0  0  0  # atno 668  bound_to 652 
   -9.7384  -27.8718  -21.8673 H   0  0  0  0  0  0  0  0  0  0  0  0  # atno 712  bound_to 688 
   -9.3782  -31.3241  -22.8988 H   0  0  0  0  0  0  0  0  0  0  0  0  # atno 760  bound_to 736 
   -9.7375  -34.9256  -23.1049 H   0  0  0  0  0  0  0  0  0  0  0  0  # atno 790  bound_to 779 
  -11.3868  -36.2313  -26.2764 H   0  0  0  0  0  0  0  0  0  0  0  0  # atno 1072 bound_to 1051
  -11.9482  -32.5393  -28.3677 H   0  0  0  0  0  0  0  0  0  0  0  0  # atno 1096 bound_to 1086
  -12.2403  -29.9044  -25.1580 H   0  0  0  0  0  0  0  0  0  0  0  0  # atno 1116 bound_to 1106
  -14.0056  -28.2313  -23.7876 H   0  0  0  0  0  0  0  0  0  0  0  0  # atno 1152 bound_to 1130
  -16.8975  -20.1809  -24.4704 H   0  0  0  0  0  0  0  0  0  0  0  0  # atno 1162 bound_to 1138
  -15.6110  -19.3141  -25.0541 H   0  0  0  0  0  0  0  0  0  0  0  0  # atno 1163 bound_to 1138
  -16.3104  -20.4909  -25.9882 H   0  0  0  0  0  0  0  0  0  0  0  0  # atno 1164 bound_to 1138
  -14.8688  -25.1644  -21.5926 H   0  0  0  0  0  0  0  0  0  0  0  0  # atno 1189 bound_to 1173
  -13.6365  -27.0667  -38.2938 H   0  0  0  0  0  0  0  0  0  0  0  0  # atno 2209 bound_to 2193
  -14.6157  -29.4742  -35.2603 H   0  0  0  0  0  0  0  0  0  0  0  0  # atno 2253 bound_to 2229
  -19.3155  -28.3784  -23.7814 H   0  0  0  0  0  0  0  0  0  0  0  0  # atno 2649 bound_to 2634
  -15.3480  -31.1701  -28.1675 H   0  0  0  0  0  0  0  0  0  0  0  0  # atno 2733 bound_to 2713
  -14.2953  -30.9637  -32.1770 H   0  0  0  0  0  0  0  0  0  0  0  0  # atno 2762 bound_to 2750
  -11.7563  -32.8603  -31.0736 H   0  0  0  0  0  0  0  0  0  0  0  0  # atno 2793 bound_to 2774
   -8.5865  -32.7043  -32.4654 H   0  0  0  0  0  0  0  0  0  0  0  0  # atno 2827 bound_to 2811
   -4.9244  -31.5185  -34.4990 H   0  0  0  0  0  0  0  0  0  0  0  0  # atno 2857 bound_to 2843
   -4.4241  -34.4123  -34.9652 H   0  0  0  0  0  0  0  0  0  0  0  0  # atno 2863 bound_to 2849
   -2.4684  -31.5952  -33.7503 H   0  0  0  0  0  0  0  0  0  0  0  0  # atno 2875 bound_to 2868
   -2.6288  -28.4816  -34.0455 H   0  0  0  0  0  0  0  0  0  0  0  0  # atno 2889 bound_to 2882
   -1.4799  -24.8746  -31.9914 H   0  0  0  0  0  0  0  0  0  0  0  0  # atno 2916 bound_to 2901
   -1.1387  -23.5411  -35.4648 H   0  0  0  0  0  0  0  0  0  0  0  0  # atno 2946 bound_to 2930
   -5.1742  -19.6731  -33.8667 H   0  0  0  0  0  0  0  0  0  0  0  0  # atno 4310 bound_to 4296
   -6.2599  -21.0113  -34.8515 H   0  0  0  0  0  0  0  0  0  0  0  0  # atno 4343 bound_to 4324
   -6.1178  -23.3008  -35.7872 H   0  0  0  0  0  0  0  0  0  0  0  0  # atno 4381 bound_to 4362
   -4.6962  -26.4925  -37.1040 H   0  0  0  0  0  0  0  0  0  0  0  0  # atno 4419 bound_to 4400
   -0.0516  -34.4482  -31.7101 H   0  0  0  0  0  0  0  0  0  0  0  0  # atno 4496 bound_to 4485
    0.2271  -32.8672  -32.1213 H   0  0  0  0  0  0  0  0  0  0  0  0  # atno 4497 bound_to 4485
   -0.2086  -33.9614  -33.2866 H   0  0  0  0  0  0  0  0  0  0  0  0  # atno 4498 bound_to 4485
  -10.5080  -23.0193  -36.2177 H   0  0  0  0  0  0  0  0  0  0  0  0  # atno 4743 bound_to 4738
  -12.3290  -22.3805  -32.1636 H   0  0  0  0  0  0  0  0  0  0  0  0  # atno 4769 bound_to 4761
  -14.4116  -20.0065  -32.8693 H   0  0  0  0  0  0  0  0  0  0  0  0  # atno 4799 bound_to 4788
  -16.5559  -18.8130  -30.6283 H   0  0  0  0  0  0  0  0  0  0  0  0  # atno 4825 bound_to 4821
  -15.3016  -15.4586  -30.2066 H   0  0  0  0  0  0  0  0  0  0  0  0  # atno 4847 bound_to 4839
  -11.5307  -31.4870  -22.6129 LP  0  0  0  0  0  0  0  0  0  0  0  0  # atno 8535 bound_to 691 
  -10.8537  -31.0476  -24.1454 LP  0  0  0  0  0  0  0  0  0  0  0  0  # atno 8536 bound_to 691 
  -11.1265  -33.6693  -25.0129 LP  0  0  0  0  0  0  0  0  0  0  0  0  # atno 8537 bound_to 1054
  -10.2906  -34.8280  -25.9921 LP  0  0  0  0  0  0  0  0  0  0  0  0  # atno 8538 bound_to 1054
  -11.9476  -33.4481  -26.8629 LP  0  0  0  0  0  0  0  0  0  0  0  0  # atno 8539 bound_to 1086
  -14.6733  -30.6770  -26.9154 LP  0  0  0  0  0  0  0  0  0  0  0  0  # atno 8540 bound_to 1089
  -13.4713  -29.8069  -27.8087 LP  0  0  0  0  0  0  0  0  0  0  0  0  # atno 8541 bound_to 1089
  -12.9140  -31.5181  -25.0013 LP  0  0  0  0  0  0  0  0  0  0  0  0  # atno 8542 bound_to 1106
  -12.9914  -25.7695  -37.3032 LP  0  0  0  0  0  0  0  0  0  0  0  0  # atno 8543 bound_to 2193
  -15.0430  -28.6891  -36.7649 LP  0  0  0  0  0  0  0  0  0  0  0  0  # atno 8544 bound_to 2229
  -15.2118  -30.1658  -33.7020 LP  0  0  0  0  0  0  0  0  0  0  0  0  # atno 8545 bound_to 2232
  -16.5026  -30.7354  -32.6973 LP  0  0  0  0  0  0  0  0  0  0  0  0  # atno 8546 bound_to 2232
  -16.6810  -30.0891  -28.5341 LP  0  0  0  0  0  0  0  0  0  0  0  0  # atno 8547 bound_to 2713
  -12.8867  -32.3392  -29.5781 LP  0  0  0  0  0  0  0  0  0  0  0  0  # atno 8548 bound_to 2716
  -14.4367  -32.7183  -28.9046 LP  0  0  0  0  0  0  0  0  0  0  0  0  # atno 8549 bound_to 2716
  -14.9600  -32.2002  -31.1309 LP  0  0  0  0  0  0  0  0  0  0  0  0  # atno 8550 bound_to 2750
  -11.4837  -30.5974  -32.2133 LP  0  0  0  0  0  0  0  0  0  0  0  0  # atno 8551 bound_to 2753
  -11.6930  -30.9322  -30.5269 LP  0  0  0  0  0  0  0  0  0  0  0  0  # atno 8552 bound_to 2753
  -11.3975  -34.1542  -32.2027 LP  0  0  0  0  0  0  0  0  0  0  0  0  # atno 8557 bound_to 2774
   -9.6816  -34.3799  -33.4512 LP  0  0  0  0  0  0  0  0  0  0  0  0  # atno 8558 bound_to 2777
   -8.8531  -33.1785  -34.3841 LP  0  0  0  0  0  0  0  0  0  0  0  0  # atno 8559 bound_to 2777
   -8.5117  -31.1336  -31.6895 LP  0  0  0  0  0  0  0  0  0  0  0  0  # atno 8560 bound_to 2811
   -5.5004  -31.1501  -31.0884 LP  0  0  0  0  0  0  0  0  0  0  0  0  # atno 8561 bound_to 2814
   -5.7904  -29.6640  -31.9294 LP  0  0  0  0  0  0  0  0  0  0  0  0  # atno 8562 bound_to 2814
   -5.8892  -32.1395  -33.1741 LP  0  0  0  0  0  0  0  0  0  0  0  0  # atno 8563 bound_to 2843
   -8.4587  -24.3536  -21.3614 LP  0  0  0  0  0  0  0  0  0  0  0  0  # atno 8564 bound_to 466 
   -7.0247  -24.2151  -20.3998 LP  0  0  0  0  0  0  0  0  0  0  0  0  # atno 8565 bound_to 466 
   -6.4141  -22.4886  -21.8526 LP  0  0  0  0  0  0  0  0  0  0  0  0  # atno 8566 bound_to 482 
   -7.3475  -19.4851  -22.9010 LP  0  0  0  0  0  0  0  0  0  0  0  0  # atno 8567 bound_to 485 
   -8.9896  -19.0904  -23.2852 LP  0  0  0  0  0  0  0  0  0  0  0  0  # atno 8568 bound_to 485 
   -9.5800  -19.8943  -19.9336 LP  0  0  0  0  0  0  0  0  0  0  0  0  # atno 8569 bound_to 521 
  -13.8515  -19.5838  -21.7258 LP  0  0  0  0  0  0  0  0  0  0  0  0  # atno 8570 bound_to 602 
  -13.1373  -20.9446  -22.2780 LP  0  0  0  0  0  0  0  0  0  0  0  0  # atno 8571 bound_to 602 
  -12.9489  -23.1407  -20.3160 LP  0  0  0  0  0  0  0  0  0  0  0  0  # atno 8572 bound_to 620 
  -12.6984  -26.2574  -21.1116 LP  0  0  0  0  0  0  0  0  0  0  0  0  # atno 8573 bound_to 623 
  -13.1650  -24.5931  -21.2226 LP  0  0  0  0  0  0  0  0  0  0  0  0  # atno 8574 bound_to 623 
   -9.5701  -25.3563  -20.9168 LP  0  0  0  0  0  0  0  0  0  0  0  0  # atno 8575 bound_to 652 
  -13.1050  -28.0770  -21.9923 LP  0  0  0  0  0  0  0  0  0  0  0  0  # atno 8576 bound_to 1109
  -11.9500  -28.4759  -23.2198 LP  0  0  0  0  0  0  0  0  0  0  0  0  # atno 8577 bound_to 1109
  -15.0691  -27.7397  -25.0902 LP  0  0  0  0  0  0  0  0  0  0  0  0  # atno 8578 bound_to 1130
  -17.4265  -25.9524  -23.1429 LP  0  0  0  0  0  0  0  0  0  0  0  0  # atno 8579 bound_to 1133
  -17.2371  -27.4356  -22.2687 LP  0  0  0  0  0  0  0  0  0  0  0  0  # atno 8580 bound_to 1133
  -14.8549  -26.9135  -21.7297 LP  0  0  0  0  0  0  0  0  0  0  0  0  # atno 8581 bound_to 1173
  -16.4591  -27.7268  -25.3885 LP  0  0  0  0  0  0  0  0  0  0  0  0  # atno 8586 bound_to 2637
  -16.0116  -29.0785  -26.3748 LP  0  0  0  0  0  0  0  0  0  0  0  0  # atno 8587 bound_to 2637
  -10.9795  -20.1755  -34.9519 LP  0  0  0  0  0  0  0  0  0  0  0  0  # atno 8588 bound_to 4741
  -11.8278  -19.3470  -33.6894 LP  0  0  0  0  0  0  0  0  0  0  0  0  # atno 8589 bound_to 4741
  -12.6454  -21.2763  -33.4954 LP  0  0  0  0  0  0  0  0  0  0  0  0  # atno 8590 bound_to 4761
  -12.4962  -17.8776  -31.9872 LP  0  0  0  0  0  0  0  0  0  0  0  0  # atno 8591 bound_to 4764
  -13.7314  -17.7192  -33.1910 LP  0  0  0  0  0  0  0  0  0  0  0  0  # atno 8592 bound_to 4764
  -14.9692  -19.9175  -31.2028 LP  0  0  0  0  0  0  0  0  0  0  0  0  # atno 8597 bound_to 4788
  -15.3144  -17.5949  -30.8518 LP  0  0  0  0  0  0  0  0  0  0  0  0  # atno 8598 bound_to 4821
   -7.7326  -31.7151  -22.4454 LP  0  0  0  0  0  0  0  0  0  0  0  0  # atno 8599 bound_to 736 
  -11.8260  -36.4415  -29.7480 LP  0  0  0  0  0  0  0  0  0  0  0  0  # atno 8600 bound_to 1021
  -12.1797  -38.1339  -29.6452 LP  0  0  0  0  0  0  0  0  0  0  0  0  # atno 8601 bound_to 1021
  -11.9213  -37.0261  -27.7482 LP  0  0  0  0  0  0  0  0  0  0  0  0  # atno 8602 bound_to 1051
   -0.6402  -32.2434  -33.3276 LP  0  0  0  0  0  0  0  0  0  0  0  0  # atno 8603 bound_to 2846
   -1.4428  -31.8601  -31.8413 LP  0  0  0  0  0  0  0  0  0  0  0  0  # atno 8604 bound_to 2846
   -2.8798  -34.9066  -34.8288 LP  0  0  0  0  0  0  0  0  0  0  0  0  # atno 8605 bound_to 2849
   -3.2165  -33.3259  -35.0622 LP  0  0  0  0  0  0  0  0  0  0  0  0  # atno 8606 bound_to 2849
   -3.4998  -30.6868  -34.8322 LP  0  0  0  0  0  0  0  0  0  0  0  0  # atno 8607 bound_to 2868
   -1.1928  -29.2743  -33.4319 LP  0  0  0  0  0  0  0  0  0  0  0  0  # atno 8608 bound_to 2882
   -3.3763  -30.3345  -36.2575 LP  0  0  0  0  0  0  0  0  0  0  0  0  # atno 8609 bound_to 4403
   -4.4444  -29.0236  -35.8824 LP  0  0  0  0  0  0  0  0  0  0  0  0  # atno 8610 bound_to 4403
  -11.2984  -21.4518  -36.2369 LP  0  0  0  0  0  0  0  0  0  0  0  0  # atno 8611 bound_to 4738
  -18.5716  -17.5987  -30.7629 LP  0  0  0  0  0  0  0  0  0  0  0  0  # atno 8612 bound_to 4791
  -18.3724  -17.5577  -32.4830 LP  0  0  0  0  0  0  0  0  0  0  0  0  # atno 8613 bound_to 4791
   -6.2740  -27.1420  -21.7167 LP  0  0  0  0  0  0  0  0  0  0  0  0  # atno 8614 bound_to 429 
   -4.7947  -24.9596  -25.3949 LP  0  0  0  0  0  0  0  0  0  0  0  0  # atno 8615 bound_to 432 
   -3.4702  -25.7266  -24.5840 LP  0  0  0  0  0  0  0  0  0  0  0  0  # atno 8616 bound_to 432 
   -6.1125  -25.7073  -22.2058 LP  0  0  0  0  0  0  0  0  0  0  0  0  # atno 8617 bound_to 463 
   -7.6593  -26.9950  -22.4071 LP  0  0  0  0  0  0  0  0  0  0  0  0  # atno 8618 bound_to 655 
   -8.1234  -27.4638  -20.8056 LP  0  0  0  0  0  0  0  0  0  0  0  0  # atno 8619 bound_to 655 
  -10.8287  -28.8612  -22.8162 LP  0  0  0  0  0  0  0  0  0  0  0  0  # atno 8620 bound_to 688 
   -1.0729  -25.5670  -33.5461 LP  0  0  0  0  0  0  0  0  0  0  0  0  # atno 8623 bound_to 2901
   -5.4931  -20.5770  -31.4203 LP  0  0  0  0  0  0  0  0  0  0  0  0  # atno 8626 bound_to 4270
   -4.8452  -21.4488  -32.7694 LP  0  0  0  0  0  0  0  0  0  0  0  0  # atno 8627 bound_to 4270
   -2.5807  -25.2906  -35.1750 LP  0  0  0  0  0  0  0  0  0  0  0  0  # atno 8628 bound_to 2885
   -2.1275  -26.9621  -35.1975 LP  0  0  0  0  0  0  0  0  0  0  0  0  # atno 8629 bound_to 2885
   -5.7164  -18.0247  -33.5873 LP  0  0  0  0  0  0  0  0  0  0  0  0  # atno 8632 bound_to 4296
   -8.6132  -21.5311  -36.1654 LP  0  0  0  0  0  0  0  0  0  0  0  0  # atno 8633 bound_to 4299
   -9.2669  -20.8460  -34.7152 LP  0  0  0  0  0  0  0  0  0  0  0  0  # atno 8634 bound_to 4299
   -6.3903  -19.7052  -36.0134 LP  0  0  0  0  0  0  0  0  0  0  0  0  # atno 8635 bound_to 4324
   -4.0548  -22.3114  -35.0999 LP  0  0  0  0  0  0  0  0  0  0  0  0  # atno 8636 bound_to 4327
   -3.4356  -22.7432  -36.6587 LP  0  0  0  0  0  0  0  0  0  0  0  0  # atno 8637 bound_to 4327
   -6.1822  -23.9795  -37.4011 LP  0  0  0  0  0  0  0  0  0  0  0  0  # atno 8638 bound_to 4362
  -16.6438  -27.1682  -35.4016 LP  0  0  0  0  0  0  0  0  0  0  0  0  # atno 8639 bound_to 2196
  -15.6189  -26.1447  -36.3512 LP  0  0  0  0  0  0  0  0  0  0  0  0  # atno 8640 bound_to 2196
  -12.0596  -24.7678  -36.4152 LP  0  0  0  0  0  0  0  0  0  0  0  0  # atno 8641 bound_to 4706
  -13.1473  -23.8138  -37.3675 LP  0  0  0  0  0  0  0  0  0  0  0  0  # atno 8642 bound_to 4706
   -3.5352  -29.5221  -21.7271 LP  0  0  0  0  0  0  0  0  0  0  0  0  # atno 8647 bound_to 403 
   -3.0903  -27.9612  -21.1224 LP  0  0  0  0  0  0  0  0  0  0  0  0  # atno 8648 bound_to 403 
    0.8971  -28.5345  -34.1380 LP  0  0  0  0  0  0  0  0  0  0  0  0  # atno 8651 bound_to 2871
    0.1732  -28.0057  -35.6200 LP  0  0  0  0  0  0  0  0  0  0  0  0  # atno 8652 bound_to 2871
    0.6037  -24.4653  -34.5454 LP  0  0  0  0  0  0  0  0  0  0  0  0  # atno 8653 bound_to 2904
    0.9797  -22.9659  -35.3267 LP  0  0  0  0  0  0  0  0  0  0  0  0  # atno 8654 bound_to 2904
   -7.6311  -24.5270  -37.4862 LP  0  0  0  0  0  0  0  0  0  0  0  0  # atno 8655 bound_to 4663
   -9.0180  -23.9946  -36.5957 LP  0  0  0  0  0  0  0  0  0  0  0  0  # atno 8656 bound_to 4663
   -3.1622  -26.5841  -36.2586 LP  0  0  0  0  0  0  0  0  0  0  0  0  # atno 8657 bound_to 4400

> <Gold.Score>
     Fitness  S(hb_ext) S(vdw_ext)  S(hb_int)    S(int)      intcor
     30.93       6.45      18.14       0.00      -0.47      -0.76

> <Gold.Goldscore.Fitness>
30.9298

> <Gold.Goldscore.Internal.Vdw>
-0.6512

> <Gold.Goldscore.Internal.Torsion>
-0.5771

> <Gold.Goldscore.External.Vdw>
18.1449

> <Gold.Goldscore.Internal.HBond>
0.0000

> <Gold.Goldscore.External.HBond>
6.4535

> <Gold.Goldscore.Internal.Correction>
-0.7554

> <Gold.Goldscore.Hbonds>
donor molecule, donor type, donor heavy atom, donor atom, acceptor molecule, acceptor atom, score
      P1  H   481   498       L1    17  0.73
      L1  H     8    22       P1  4270  0.11
      L1  H    10    23       P1   432  0.93

> <Gold.Goldscore.Internal.Vdw.Weighted>
-0.6512

> <Gold.Goldscore.Internal.Torsion.Weighted>
-0.5771

> <Gold.Goldscore.External.Vdw.Weighted>
24.9492

> <Gold.Goldscore.Internal.HBond.Weighted>
0.0000

> <Gold.Goldscore.External.HBond.Weighted>
6.4535

> <Gold.Goldscore.Internal.Correction.Weighted>
-0.7554

> <Gold.Rescore>
     Score     S(PLP)   S(hbond)     S(cho)   S(metal)  DE(clash)   DE(tors)     intcor
     25.41     -23.99       1.18       0.00       0.00       0.00       1.06       ----

> <Gold.PLP.Fitness>
25.4143

> <Gold.PLP.PLP>
-23.9893

> <Gold.PLP.part.hbond>
-1.4737

> <Gold.PLP.part.metal>
0.0000

> <Gold.PLP.part.buried>
-2.4273

> <Gold.PLP.part.nonpolar>
-21.6751

> <Gold.PLP.part.repulsive>
0.3487

> <Gold.PLP.ligand.clash>
0.0000

> <Gold.PLP.ligand.torsion>
1.0556

> <Gold.PLP.Chemscore.Hbond>
1.1787

> <Gold.PLP.Chemscore.CHOScore>
0.0000

> <Gold.PLP.Chemscore.Metal>
0.0000

> <Gold.Chemscore.Hbonds>
donor molecule, donor type, donor heavy atom, donor atom, acceptor molecule, acceptor atom, score
      L1  H    10    23       P1   432  0.59
      P1  H   481   498       L1    17  1.00

> <Gold.PLP.Chemscore.Internal.Correction>
   9.000000E+99

