#       Name:                CT1002167954
#       Creating user name   hitesit
#       Creation time:       Sun Apr 16 02:22:19 2023


#       File generated by GOLD software.
#

@<TRIPOS>MOLECULE
CT1002167954|ligand_prepared|mol2|1|dock6
    29    30     1
SMALL
NO_CHARGES


@<TRIPOS>ATOM
      1 C1          -6.9556 -28.1165 -29.8426 C.3            1 RES1               0.0000
      2 C2          -8.2302 -27.4121 -30.3505 C.ar           1 RES1               0.0000
      3 C3          -5.9096 -27.9543 -30.9415 C.2            1 RES1               0.0000
      4 C4          -6.5876 -27.4370 -28.5282 C.2            1 RES1               0.0000
      5 C5          -7.1449 -29.6258 -29.5636 C.3            1 RES1               0.0000
      6 C6          -8.5421 -26.1224 -29.9308 C.ar           1 RES1               0.0000
      7 C7          -9.1008 -28.0370 -31.2394 C.ar           1 RES1               0.0000
      8 N8          -4.8979 -27.0658 -30.7247 N.am           1 RES1               0.0000
      9 O9          -5.9930 -28.5673 -31.9987 O.2            1 RES1               0.0000
     10 N10         -5.4177 -26.7253 -28.4789 N.am           1 RES1               0.0000
     11 O11         -7.3084 -27.4978 -27.5397 O.2            1 RES1               0.0000
     12 C12         -5.8963 -30.3125 -29.0330 C.3            1 RES1               0.0000
     13 C13         -9.6815 -25.4794 -30.3855 C.ar           1 RES1               0.0000
     14 C14        -10.2399 -27.3923 -31.6927 C.ar           1 RES1               0.0000
     15 C15         -4.5714 -26.4833 -29.5264 C.2            1 RES1               0.0000
     16 C16        -10.5308 -26.1137 -31.2670 C.ar           1 RES1               0.0000
     17 O17         -3.5659 -25.7876 -29.4167 O.2            1 RES1               0.0000
     18 H18         -7.9540 -29.7511 -28.8335 H              1 RES1               0.0000
     19 H19         -7.4522 -30.1209 -30.4930 H              1 RES1               0.0000
     20 H20         -7.8869 -25.6083 -29.2355 H              1 RES1               0.0000
     21 H21         -8.8926 -29.0432 -31.5869 H              1 RES1               0.0000
     22 H22         -4.3318 -26.8108 -31.5277 H              1 RES1               0.0000
     23 H23         -5.1532 -26.3403 -27.5777 H              1 RES1               0.0000
     24 H24         -6.0837 -31.3692 -28.8543 H              1 RES1               0.0000
     25 H25         -5.0780 -30.2292 -29.7453 H              1 RES1               0.0000
     26 H26         -5.5769 -29.8617 -28.0957 H              1 RES1               0.0000
     27 H27         -9.9067 -24.4737 -30.0464 H              1 RES1               0.0000
     28 H28        -10.9058 -27.8955 -32.3859 H              1 RES1               0.0000
     29 H29        -11.4231 -25.6097 -31.6234 H              1 RES1               0.0000
@<TRIPOS>BOND
    1    1    2 1     
    2    1    3 1     
    3    1    4 1     
    4    1    5 1     
    5    2    6 ar    
    6    2    7 ar    
    7    3    8 1     
    8    3    9 2     
    9    4   10 1     
   10    4   11 2     
   11    5   12 1     
   12    5   18 1     
   13    5   19 1     
   14    6   13 ar    
   15    6   20 1     
   16    7   14 ar    
   17    7   21 1     
   18    8   15 1     
   19    8   22 1     
   20   10   15 1     
   21   10   23 1     
   22   12   24 1     
   23   12   25 1     
   24   12   26 1     
   25   13   16 ar    
   26   13   27 1     
   27   14   16 ar    
   28   14   28 1     
   29   15   17 2     
   30   16   29 1     
@<TRIPOS>SUBSTRUCTURE
      1 RES1           1
@<TRIPOS>SET
DONOR_HYDROGENS      STATIC     ATOMS    <user>   **** ""
2 22 23
ATOM$RED        STATIC     ATOMS    COLORGROUP SYSTEM
2 22 23
@<TRIPOS>COMMENT
> <Gold.Version>
2022.3.0

> <Gold.Id.Protein>
unknown|7kl0_clean|pdb

> <Gold.Protein.RotatedTorsions>
[ 1096 1086 1087 1088 ] final  -21.24 input   77.66 | X-H torsion
[ 1116 1106 1107 1108 ] final  -84.92 input   75.39 | X-H torsion
[ 2209 2193 2194 2195 ] final  -82.24 input  128.07 | X-H torsion
[ 2253 2229 2230 2231 ] final  -39.95 input   94.48 | X-H torsion
[ 2733 2713 2714 2715 ] final   77.27 input   74.45 | X-H torsion
[ 2762 2750 2751 2752 ] final   23.49 input  128.15 | X-H torsion
[ 2793 2774 2775 2776 ] final -160.45 input  106.68 | X-H torsion
[ 2827 2811 2812 2813 ] final  127.75 input   64.81 | X-H torsion
[ 2857 2843 2844 2845 ] final  138.90 input   70.34 | X-H torsion
[  504  482  483  484 ] final -154.67 input   40.33 | X-H torsion
[  528  521  522  523 ] final  -94.52 input   38.54 | X-H torsion
[  612  602  601  598 ] final  -99.88 input   59.99 | X-H torsion
[  636  620  621  622 ] final  -73.07 input   33.60 | X-H torsion
[  668  652  653  654 ] final   66.03 input   67.24 | X-H torsion
[ 1152 1130 1131 1132 ] final  -40.83 input  101.11 | X-H torsion
[ 1162 1138 1137 1136 ] final  -42.73 input   59.97 | X-H torsion
[ 1189 1173 1174 1175 ] final   62.25 input   74.99 | X-H torsion
[ 4769 4761 4762 4763 ] final  126.57 input -116.16 | X-H torsion
[ 4799 4788 4789 4790 ] final   45.49 input   84.75 | X-H torsion
[ 4825 4821 4822 4823 ] final   16.28 input  114.67 | X-H torsion
[  760  736  737  738 ] final  173.23 input  123.93 | X-H torsion
[ 1072 1051 1052 1053 ] final  -22.76 input   37.12 | X-H torsion
[ 2863 2849 2847 2844 ] final   78.03 input   59.99 | X-H torsion
[ 2875 2868 2869 2870 ] final  -64.36 input   94.70 | X-H torsion
[ 2889 2882 2883 2884 ] final  170.26 input -101.73 | X-H torsion
[ 4743 4738 4739 4740 ] final  103.28 input   44.52 | X-H torsion
[  447  429  430  431 ] final  -11.17 input   69.31 | X-H torsion
[  470  463  464  465 ] final -141.38 input   13.24 | X-H torsion
[  712  688  689  690 ] final -173.15 input   42.22 | X-H torsion
[ 2916 2901 2902 2903 ] final  179.58 input  112.69 | X-H torsion
[ 4310 4296 4297 4298 ] final -169.75 input   86.41 | X-H torsion
[ 4343 4324 4325 4326 ] final -160.86 input   71.41 | X-H torsion
[ 4381 4362 4363 4364 ] final  165.90 input   70.60 | X-H torsion
[ 4419 4400 4401 4402 ] final  100.29 input   92.71 | X-H torsion
[  790  779  780  781 ] final   94.30 input   42.63 | X-H torsion
[ 4847 4839 4840 4841 ] final   54.60 input   74.58 | X-H torsion
[ 2649 2634 2635 2636 ] final  179.85 input   83.10 | X-H torsion
[ 2946 2930 2931 2932 ] final  -87.69 input  126.41 | X-H torsion
[ 4496 4485 4484 4483 ] final -177.89 input   60.01 | X-H torsion
[ 8535  691  690  689 ] final   88.31 input    0.00 | X-H torsion
[ 8537 1054 1053 1052 ] final   98.80 input    0.00 | X-H torsion
[ 8540 1089 1088 1087 ] final   -7.27 input    0.00 | X-H torsion
[ 8545 2232 2231 2230 ] final  119.36 input    0.00 | X-H torsion
[ 8548 2716 2715 2714 ] final  -94.38 input    0.00 | X-H torsion
[ 8551 2753 2752 2751 ] final    1.61 input    0.00 | X-H torsion
[ 8558 2777 2776 2775 ] final   22.26 input    0.00 | X-H torsion
[ 8561 2814 2813 2812 ] final -147.94 input    0.00 | X-H torsion
[ 8564  466  465  464 ] final -121.41 input   -0.00 | X-H torsion
[ 8567  485  484  483 ] final   40.42 input    0.00 | X-H torsion
[ 8573  623  622  621 ] final   48.82 input    0.00 | X-H torsion
[ 8576 1109 1108 1107 ] final   10.82 input   -0.00 | X-H torsion
[ 8579 1133 1132 1131 ] final  -39.77 input    0.00 | X-H torsion
[ 8586 2637 2636 2635 ] final  -56.67 input    0.00 | X-H torsion
[ 8588 4741 4740 4739 ] final -114.37 input    0.00 | X-H torsion
[ 8591 4764 4763 4762 ] final -125.62 input    0.00 | X-H torsion
[ 8600 1021 1020 1019 ] final   55.75 input    0.00 | X-H torsion
[ 8603 2846 2845 2844 ] final   41.63 input   -0.00 | X-H torsion
[ 8609 4403 4402 4401 ] final -114.70 input    0.00 | X-H torsion
[ 8612 4791 4790 4789 ] final  106.30 input    0.00 | X-H torsion
[ 8615  432  431  430 ] final   48.56 input    0.00 | X-H torsion
[ 8618  655  654  653 ] final   65.44 input    0.00 | X-H torsion
[ 8626 4270 4269 4268 ] final  -71.08 input    0.00 | X-H torsion
[ 8628 2885 2884 2883 ] final    6.25 input    0.00 | X-H torsion
[ 8633 4299 4298 4297 ] final -155.37 input    0.00 | X-H torsion
[ 8636 4327 4326 4325 ] final -146.86 input    0.00 | X-H torsion
[ 8639 2196 2195 2194 ] final -155.94 input    0.00 | X-H torsion
[ 8641 4706 4705 4704 ] final   34.01 input    0.00 | X-H torsion
[ 8647  403  402  401 ] final -136.19 input    0.00 | X-H torsion
[ 8651 2871 2870 2869 ] final  175.04 input    0.00 | X-H torsion
[ 8653 2904 2903 2902 ] final   23.14 input    0.00 | X-H torsion
[ 8655 4663 4662 4661 ] final   50.94 input    0.00 | X-H torsion

> <Gold.Protein.ActiveResidues>
 GLU18   LEU19   GLY20   LYS21   GLY22   SER25   VAL26   VAL27   ARG28   ARG29  
 CYS30   GLU38   TYR39   ALA40   ALA41   LYS42   ILE43   ILE44   GLU60   CYS64  
 VAL73   ARG74   LEU75   LEU87   ILE88   PHE89   ASP90   LEU91   VAL92   THR93  
 GLY94   GLY95   GLU96   LEU97   GLU99   GLU139  ASN140  LEU141  LEU142  LEU143 
 LYS146  LYS153  LEU154  ALA155  ASP156  PHE157  GLY158  LEU159 

> <Gold.Protein.RotatedAtoms>
   -5.8648  -27.0549  -21.5852 H   0  0  0  0  0  0  0  0  0  0  0  0  # atno 447  bound_to 429 
   -5.2012  -25.6655  -23.3457 H   0  0  0  0  0  0  0  0  0  0  0  0  # atno 470  bound_to 463 
   -6.9352  -22.8463  -21.8543 H   0  0  0  0  0  0  0  0  0  0  0  0  # atno 504  bound_to 482 
   -8.7230  -19.4510  -20.8996 H   0  0  0  0  0  0  0  0  0  0  0  0  # atno 528  bound_to 521 
  -13.7548  -19.5094  -21.5484 H   0  0  0  0  0  0  0  0  0  0  0  0  # atno 612  bound_to 602 
  -12.4278  -22.4646  -20.3010 H   0  0  0  0  0  0  0  0  0  0  0  0  # atno 636  bound_to 620 
   -9.3721  -24.8556  -21.5099 H   0  0  0  0  0  0  0  0  0  0  0  0  # atno 668  bound_to 652 
   -9.8962  -27.8988  -21.7099 H   0  0  0  0  0  0  0  0  0  0  0  0  # atno 712  bound_to 688 
   -7.8887  -31.3661  -23.2552 H   0  0  0  0  0  0  0  0  0  0  0  0  # atno 760  bound_to 736 
  -11.1274  -34.0476  -23.8002 H   0  0  0  0  0  0  0  0  0  0  0  0  # atno 790  bound_to 779 
  -10.9179  -36.1974  -26.7780 H   0  0  0  0  0  0  0  0  0  0  0  0  # atno 1072 bound_to 1051
  -12.7353  -33.0241  -27.1487 H   0  0  0  0  0  0  0  0  0  0  0  0  # atno 1096 bound_to 1086
  -12.8518  -30.3413  -25.8439 H   0  0  0  0  0  0  0  0  0  0  0  0  # atno 1116 bound_to 1106
  -14.5247  -28.3442  -23.6362 H   0  0  0  0  0  0  0  0  0  0  0  0  # atno 1152 bound_to 1130
  -16.2053  -20.4159  -26.0279 H   0  0  0  0  0  0  0  0  0  0  0  0  # atno 1162 bound_to 1138
  -16.9476  -20.2744  -24.5527 H   0  0  0  0  0  0  0  0  0  0  0  0  # atno 1163 bound_to 1138
  -15.6655  -19.2957  -24.9334 H   0  0  0  0  0  0  0  0  0  0  0  0  # atno 1164 bound_to 1138
  -14.1927  -25.6548  -21.2217 H   0  0  0  0  0  0  0  0  0  0  0  0  # atno 1189 bound_to 1173
  -13.3241  -27.1342  -38.3080 H   0  0  0  0  0  0  0  0  0  0  0  0  # atno 2209 bound_to 2193
  -14.9521  -28.4820  -35.3731 H   0  0  0  0  0  0  0  0  0  0  0  0  # atno 2253 bound_to 2229
  -19.6086  -26.9404  -23.8738 H   0  0  0  0  0  0  0  0  0  0  0  0  # atno 2649 bound_to 2634
  -15.2280  -30.3635  -28.0405 H   0  0  0  0  0  0  0  0  0  0  0  0  # atno 2733 bound_to 2713
  -13.9892  -30.9922  -31.5116 H   0  0  0  0  0  0  0  0  0  0  0  0  # atno 2762 bound_to 2750
  -11.7630  -33.4649  -30.7759 H   0  0  0  0  0  0  0  0  0  0  0  0  # atno 2793 bound_to 2774
   -9.0522  -31.1720  -32.1957 H   0  0  0  0  0  0  0  0  0  0  0  0  # atno 2827 bound_to 2811
   -5.6923  -32.6845  -33.8781 H   0  0  0  0  0  0  0  0  0  0  0  0  # atno 2857 bound_to 2843
   -2.6176  -33.9291  -34.9492 H   0  0  0  0  0  0  0  0  0  0  0  0  # atno 2863 bound_to 2849
   -2.5403  -31.2641  -33.5463 H   0  0  0  0  0  0  0  0  0  0  0  0  # atno 2875 bound_to 2868
   -1.5272  -29.3673  -33.0822 H   0  0  0  0  0  0  0  0  0  0  0  0  # atno 2889 bound_to 2882
   -1.8585  -25.0445  -32.1374 H   0  0  0  0  0  0  0  0  0  0  0  0  # atno 2916 bound_to 2901
   -1.1559  -23.5592  -35.4821 H   0  0  0  0  0  0  0  0  0  0  0  0  # atno 2946 bound_to 2930
   -5.6971  -18.4596  -32.9330 H   0  0  0  0  0  0  0  0  0  0  0  0  # atno 4310 bound_to 4296
   -7.0506  -19.9987  -35.8409 H   0  0  0  0  0  0  0  0  0  0  0  0  # atno 4343 bound_to 4324
   -6.4141  -23.4610  -35.7770 H   0  0  0  0  0  0  0  0  0  0  0  0  # atno 4381 bound_to 4362
   -3.1219  -26.6260  -36.2569 H   0  0  0  0  0  0  0  0  0  0  0  0  # atno 4419 bound_to 4400
   -0.1356  -34.6235  -31.9817 H   0  0  0  0  0  0  0  0  0  0  0  0  # atno 4496 bound_to 4485
    0.2437  -33.0180  -31.8236 H   0  0  0  0  0  0  0  0  0  0  0  0  # atno 4497 bound_to 4485
   -0.1411  -33.6352  -33.3123 H   0  0  0  0  0  0  0  0  0  0  0  0  # atno 4498 bound_to 4485
  -10.0810  -22.3838  -35.9288 H   0  0  0  0  0  0  0  0  0  0  0  0  # atno 4743 bound_to 4738
  -11.6099  -21.6791  -32.6891 H   0  0  0  0  0  0  0  0  0  0  0  0  # atno 4769 bound_to 4761
  -15.2572  -20.2600  -31.3600 H   0  0  0  0  0  0  0  0  0  0  0  0  # atno 4799 bound_to 4788
  -15.7455  -17.3866  -31.0961 H   0  0  0  0  0  0  0  0  0  0  0  0  # atno 4825 bound_to 4821
  -15.8556  -15.8044  -31.0836 H   0  0  0  0  0  0  0  0  0  0  0  0  # atno 4847 bound_to 4839
  -10.9314  -30.7570  -24.0284 LP  0  0  0  0  0  0  0  0  0  0  0  0  # atno 8535 bound_to 691 
  -11.4530  -31.7777  -22.7299 LP  0  0  0  0  0  0  0  0  0  0  0  0  # atno 8536 bound_to 691 
  -10.0023  -34.2055  -26.0018 LP  0  0  0  0  0  0  0  0  0  0  0  0  # atno 8537 bound_to 1054
  -11.4148  -34.2918  -25.0032 LP  0  0  0  0  0  0  0  0  0  0  0  0  # atno 8538 bound_to 1054
  -11.2049  -32.9906  -28.0131 LP  0  0  0  0  0  0  0  0  0  0  0  0  # atno 8539 bound_to 1086
  -13.5139  -30.4142  -28.0012 LP  0  0  0  0  0  0  0  0  0  0  0  0  # atno 8540 bound_to 1089
  -14.6308  -30.0697  -26.7229 LP  0  0  0  0  0  0  0  0  0  0  0  0  # atno 8541 bound_to 1089
  -12.3329  -31.1029  -24.3495 LP  0  0  0  0  0  0  0  0  0  0  0  0  # atno 8542 bound_to 1106
  -13.2890  -25.7052  -37.2897 LP  0  0  0  0  0  0  0  0  0  0  0  0  # atno 8543 bound_to 2193
  -14.7175  -29.6494  -36.6557 LP  0  0  0  0  0  0  0  0  0  0  0  0  # atno 8544 bound_to 2229
  -15.7738  -29.6970  -32.7812 LP  0  0  0  0  0  0  0  0  0  0  0  0  # atno 8545 bound_to 2232
  -15.9406  -31.2042  -33.6181 LP  0  0  0  0  0  0  0  0  0  0  0  0  # atno 8546 bound_to 2232
  -16.7954  -30.8583  -28.6553 LP  0  0  0  0  0  0  0  0  0  0  0  0  # atno 8547 bound_to 2713
  -12.9460  -32.0517  -29.3423 LP  0  0  0  0  0  0  0  0  0  0  0  0  # atno 8548 bound_to 2716
  -14.3774  -33.0057  -29.1403 LP  0  0  0  0  0  0  0  0  0  0  0  0  # atno 8549 bound_to 2716
  -15.2555  -32.1726  -31.7733 LP  0  0  0  0  0  0  0  0  0  0  0  0  # atno 8550 bound_to 2750
  -12.3896  -30.5509  -31.6197 LP  0  0  0  0  0  0  0  0  0  0  0  0  # atno 8551 bound_to 2753
  -10.7871  -30.9787  -31.1206 LP  0  0  0  0  0  0  0  0  0  0  0  0  # atno 8552 bound_to 2753
  -11.3911  -33.5773  -32.4867 LP  0  0  0  0  0  0  0  0  0  0  0  0  # atno 8557 bound_to 2774
  -10.0137  -34.0600  -33.5798 LP  0  0  0  0  0  0  0  0  0  0  0  0  # atno 8558 bound_to 2777
   -8.5210  -33.4984  -34.2555 LP  0  0  0  0  0  0  0  0  0  0  0  0  # atno 8559 bound_to 2777
   -8.0659  -32.6004  -31.9477 LP  0  0  0  0  0  0  0  0  0  0  0  0  # atno 8560 bound_to 2811
   -4.8393  -30.2319  -31.7723 LP  0  0  0  0  0  0  0  0  0  0  0  0  # atno 8561 bound_to 2814
   -6.4516  -30.5822  -31.2454 LP  0  0  0  0  0  0  0  0  0  0  0  0  # atno 8562 bound_to 2814
   -5.1523  -31.0205  -33.7700 LP  0  0  0  0  0  0  0  0  0  0  0  0  # atno 8563 bound_to 2843
   -8.5332  -23.9913  -21.0745 LP  0  0  0  0  0  0  0  0  0  0  0  0  # atno 8564 bound_to 466 
   -6.9502  -24.5775  -20.6867 LP  0  0  0  0  0  0  0  0  0  0  0  0  # atno 8565 bound_to 466 
   -6.9855  -21.4665  -22.9387 LP  0  0  0  0  0  0  0  0  0  0  0  0  # atno 8566 bound_to 482 
   -7.9559  -20.0753  -23.3838 LP  0  0  0  0  0  0  0  0  0  0  0  0  # atno 8567 bound_to 485 
   -8.3811  -18.5002  -22.8024 LP  0  0  0  0  0  0  0  0  0  0  0  0  # atno 8568 bound_to 485 
  -10.1523  -20.4459  -20.6577 LP  0  0  0  0  0  0  0  0  0  0  0  0  # atno 8569 bound_to 521 
  -13.3088  -20.8454  -22.3638 LP  0  0  0  0  0  0  0  0  0  0  0  0  # atno 8570 bound_to 602 
  -12.4770  -20.3786  -21.0383 LP  0  0  0  0  0  0  0  0  0  0  0  0  # atno 8571 bound_to 602 
  -12.9093  -23.3007  -18.8323 LP  0  0  0  0  0  0  0  0  0  0  0  0  # atno 8572 bound_to 620 
  -13.1804  -24.5964  -21.1333 LP  0  0  0  0  0  0  0  0  0  0  0  0  # atno 8573 bound_to 623 
  -12.6831  -26.2542  -21.2010 LP  0  0  0  0  0  0  0  0  0  0  0  0  # atno 8574 bound_to 623 
  -11.0599  -25.0498  -21.0863 LP  0  0  0  0  0  0  0  0  0  0  0  0  # atno 8575 bound_to 652 
  -12.2889  -29.1026  -22.7086 LP  0  0  0  0  0  0  0  0  0  0  0  0  # atno 8576 bound_to 1109
  -12.7661  -27.4503  -22.5035 LP  0  0  0  0  0  0  0  0  0  0  0  0  # atno 8577 bound_to 1109
  -14.5695  -27.6310  -25.2359 LP  0  0  0  0  0  0  0  0  0  0  0  0  # atno 8578 bound_to 1130
  -17.3342  -26.1767  -23.4003 LP  0  0  0  0  0  0  0  0  0  0  0  0  # atno 8579 bound_to 1133
  -17.3294  -27.2113  -22.0112 LP  0  0  0  0  0  0  0  0  0  0  0  0  # atno 8580 bound_to 1133
  -15.5004  -26.4454  -22.0837 LP  0  0  0  0  0  0  0  0  0  0  0  0  # atno 8581 bound_to 1173
  -16.2885  -27.6685  -26.3380 LP  0  0  0  0  0  0  0  0  0  0  0  0  # atno 8586 bound_to 2637
  -16.1822  -29.1367  -25.4253 LP  0  0  0  0  0  0  0  0  0  0  0  0  # atno 8587 bound_to 2637
  -10.8826  -19.6468  -33.6385 LP  0  0  0  0  0  0  0  0  0  0  0  0  # atno 8588 bound_to 4741
  -11.9248  -19.8757  -35.0028 LP  0  0  0  0  0  0  0  0  0  0  0  0  # atno 8589 bound_to 4741
  -13.3216  -21.9356  -33.0014 LP  0  0  0  0  0  0  0  0  0  0  0  0  # atno 8590 bound_to 4761
  -13.6984  -17.3932  -32.0951 LP  0  0  0  0  0  0  0  0  0  0  0  0  # atno 8591 bound_to 4764
  -12.5291  -18.2036  -33.0831 LP  0  0  0  0  0  0  0  0  0  0  0  0  # atno 8592 bound_to 4764
  -14.1751  -19.6794  -32.6202 LP  0  0  0  0  0  0  0  0  0  0  0  0  # atno 8597 bound_to 4788
  -16.0903  -18.9605  -30.4040 LP  0  0  0  0  0  0  0  0  0  0  0  0  # atno 8598 bound_to 4821
   -9.1695  -31.6745  -22.1016 LP  0  0  0  0  0  0  0  0  0  0  0  0  # atno 8599 bound_to 736 
  -12.5161  -37.9751  -29.5788 LP  0  0  0  0  0  0  0  0  0  0  0  0  # atno 8600 bound_to 1021
  -11.4895  -36.6002  -29.8145 LP  0  0  0  0  0  0  0  0  0  0  0  0  # atno 8601 bound_to 1021
  -12.3664  -37.0583  -27.2722 LP  0  0  0  0  0  0  0  0  0  0  0  0  # atno 8602 bound_to 1051
   -1.2452  -32.8926  -32.5457 LP  0  0  0  0  0  0  0  0  0  0  0  0  # atno 8603 bound_to 2846
   -0.8378  -31.2109  -32.6232 LP  0  0  0  0  0  0  0  0  0  0  0  0  # atno 8604 bound_to 2846
   -4.2045  -33.5901  -35.0709 LP  0  0  0  0  0  0  0  0  0  0  0  0  # atno 8605 bound_to 2849
   -3.7111  -35.1290  -34.8361 LP  0  0  0  0  0  0  0  0  0  0  0  0  # atno 8606 bound_to 2849
   -3.4299  -31.0086  -35.0305 LP  0  0  0  0  0  0  0  0  0  0  0  0  # atno 8607 bound_to 2868
   -2.2560  -28.4194  -34.3617 LP  0  0  0  0  0  0  0  0  0  0  0  0  # atno 8608 bound_to 2882
   -3.3601  -30.3221  -36.2536 LP  0  0  0  0  0  0  0  0  0  0  0  0  # atno 8609 bound_to 4403
   -4.4606  -29.0360  -35.8864 LP  0  0  0  0  0  0  0  0  0  0  0  0  # atno 8610 bound_to 4403
  -11.7043  -22.0557  -36.5115 LP  0  0  0  0  0  0  0  0  0  0  0  0  # atno 8611 bound_to 4738
  -18.7426  -18.2291  -31.1198 LP  0  0  0  0  0  0  0  0  0  0  0  0  # atno 8612 bound_to 4791
  -18.2015  -16.9273  -32.1260 LP  0  0  0  0  0  0  0  0  0  0  0  0  # atno 8613 bound_to 4791
   -5.9992  -28.7550  -21.9952 LP  0  0  0  0  0  0  0  0  0  0  0  0  # atno 8614 bound_to 429 
   -4.4109  -25.9296  -25.5626 LP  0  0  0  0  0  0  0  0  0  0  0  0  # atno 8615 bound_to 432 
   -3.8540  -24.7566  -24.4163 LP  0  0  0  0  0  0  0  0  0  0  0  0  # atno 8616 bound_to 432 
   -6.8569  -25.8194  -22.7862 LP  0  0  0  0  0  0  0  0  0  0  0  0  # atno 8617 bound_to 463 
   -8.2197  -26.7894  -20.9366 LP  0  0  0  0  0  0  0  0  0  0  0  0  # atno 8618 bound_to 655 
   -7.5631  -27.6694  -22.2761 LP  0  0  0  0  0  0  0  0  0  0  0  0  # atno 8619 bound_to 655 
  -10.6766  -28.8352  -22.9679 LP  0  0  0  0  0  0  0  0  0  0  0  0  # atno 8620 bound_to 688 
   -0.7064  -25.4025  -33.4048 LP  0  0  0  0  0  0  0  0  0  0  0  0  # atno 8623 bound_to 2901
   -4.6147  -21.3998  -32.6360 LP  0  0  0  0  0  0  0  0  0  0  0  0  # atno 8626 bound_to 4270
   -5.7236  -20.6260  -31.5537 LP  0  0  0  0  0  0  0  0  0  0  0  0  # atno 8627 bound_to 4270
   -2.4710  -26.9743  -35.0544 LP  0  0  0  0  0  0  0  0  0  0  0  0  # atno 8628 bound_to 2885
   -2.2371  -25.2785  -35.3181 LP  0  0  0  0  0  0  0  0  0  0  0  0  # atno 8629 bound_to 2885
   -5.2226  -19.1704  -34.4689 LP  0  0  0  0  0  0  0  0  0  0  0  0  # atno 8632 bound_to 4296
   -8.5363  -21.8534  -35.8211 LP  0  0  0  0  0  0  0  0  0  0  0  0  # atno 8633 bound_to 4299
   -9.3437  -20.5237  -35.0595 LP  0  0  0  0  0  0  0  0  0  0  0  0  # atno 8634 bound_to 4299
   -5.6321  -20.6760  -35.0648 LP  0  0  0  0  0  0  0  0  0  0  0  0  # atno 8635 bound_to 4324
   -3.4847  -23.2923  -36.1906 LP  0  0  0  0  0  0  0  0  0  0  0  0  # atno 8636 bound_to 4327
   -4.0057  -21.7623  -35.5680 LP  0  0  0  0  0  0  0  0  0  0  0  0  # atno 8637 bound_to 4327
   -5.8972  -23.8254  -37.4109 LP  0  0  0  0  0  0  0  0  0  0  0  0  # atno 8638 bound_to 4362
  -16.6675  -27.1846  -35.4479 LP  0  0  0  0  0  0  0  0  0  0  0  0  # atno 8639 bound_to 2196
  -15.5952  -26.1283  -36.3049 LP  0  0  0  0  0  0  0  0  0  0  0  0  # atno 8640 bound_to 2196
  -12.1463  -24.6798  -37.5156 LP  0  0  0  0  0  0  0  0  0  0  0  0  # atno 8641 bound_to 4706
  -13.0607  -23.9018  -36.2672 LP  0  0  0  0  0  0  0  0  0  0  0  0  # atno 8642 bound_to 4706
   -3.1690  -27.9974  -21.8436 LP  0  0  0  0  0  0  0  0  0  0  0  0  # atno 8647 bound_to 403 
   -3.4565  -29.4859  -21.0059 LP  0  0  0  0  0  0  0  0  0  0  0  0  # atno 8648 bound_to 403 
    0.3716  -27.5934  -34.3639 LP  0  0  0  0  0  0  0  0  0  0  0  0  # atno 8651 bound_to 2871
    0.6986  -28.9468  -35.3941 LP  0  0  0  0  0  0  0  0  0  0  0  0  # atno 8652 bound_to 2871
    0.6564  -24.2617  -34.2777 LP  0  0  0  0  0  0  0  0  0  0  0  0  # atno 8653 bound_to 2904
    0.9271  -23.1695  -35.5944 LP  0  0  0  0  0  0  0  0  0  0  0  0  # atno 8654 bound_to 2904
   -7.6186  -24.3906  -37.5255 LP  0  0  0  0  0  0  0  0  0  0  0  0  # atno 8655 bound_to 4663
   -9.0305  -24.1310  -36.5564 LP  0  0  0  0  0  0  0  0  0  0  0  0  # atno 8656 bound_to 4663
   -4.6675  -26.4565  -37.0686 LP  0  0  0  0  0  0  0  0  0  0  0  0  # atno 8657 bound_to 4400

> <Gold.Score>
     Fitness  S(hb_ext) S(vdw_ext)  S(hb_int)    S(int)      intcor
     30.82       0.77      23.11       0.00      -1.72      -0.76

> <Gold.Goldscore.Fitness>
30.8233

> <Gold.Goldscore.Internal.Vdw>
-2.1112

> <Gold.Goldscore.Internal.Torsion>
-0.3705

> <Gold.Goldscore.External.Vdw>
23.1115

> <Gold.Goldscore.Internal.HBond>
0.0000

> <Gold.Goldscore.External.HBond>
0.7682

> <Gold.Goldscore.Internal.Correction>
-0.7585

> <Gold.Goldscore.Hbonds>
donor molecule, donor type, donor heavy atom, donor atom, acceptor molecule, acceptor atom, score
      P1  H  2901  2916       L1    17  0.14
      L1  H    10    23       P1   432  0.24

> <Gold.Goldscore.Internal.Vdw.Weighted>
-2.1112

> <Gold.Goldscore.Internal.Torsion.Weighted>
-0.3705

> <Gold.Goldscore.External.Vdw.Weighted>
31.7783

> <Gold.Goldscore.Internal.HBond.Weighted>
0.0000

> <Gold.Goldscore.External.HBond.Weighted>
0.7682

> <Gold.Goldscore.Internal.Correction.Weighted>
-0.7585

> <Gold.Rescore>
     Score     S(PLP)   S(hbond)     S(cho)   S(metal)  DE(clash)   DE(tors)     intcor
      6.23      -8.59       0.00       0.00       0.00       1.13       0.62       ----

> <Gold.PLP.Fitness>
6.2287

> <Gold.PLP.PLP>
-8.5915

> <Gold.PLP.part.hbond>
0.0000

> <Gold.PLP.part.metal>
0.0000

> <Gold.PLP.part.buried>
15.2202

> <Gold.PLP.part.nonpolar>
-30.2154

> <Gold.PLP.part.repulsive>
6.7625

> <Gold.PLP.ligand.clash>
1.1292

> <Gold.PLP.ligand.torsion>
0.6168

> <Gold.PLP.Chemscore.Hbond>
0.0000

> <Gold.PLP.Chemscore.CHOScore>
0.0000

> <Gold.PLP.Chemscore.Metal>
0.0000

> <Gold.PLP.Chemscore.Internal.Correction>
   9.000000E+99

