#       Name:                CT1002167954
#       Creating user name   hitesit
#       Creation time:       Sun Apr 16 02:22:18 2023


#       File generated by GOLD software.
#

@<TRIPOS>MOLECULE
CT1002167954|ligand_prepared|mol2|1|dock5
    29    30     1
SMALL
NO_CHARGES


@<TRIPOS>ATOM
      1 C1          -7.7119 -25.3965 -28.9334 C.3            1 RES1               0.0000
      2 C2          -8.7223 -26.4589 -29.4123 C.ar           1 RES1               0.0000
      3 C3          -8.2632 -24.0470 -29.3841 C.2            1 RES1               0.0000
      4 C4          -7.6125 -25.5539 -27.4201 C.2            1 RES1               0.0000
      5 C5          -6.2942 -25.5707 -29.5260 C.3            1 RES1               0.0000
      6 C6          -8.2823 -27.6408 -30.0007 C.ar           1 RES1               0.0000
      7 C7         -10.0948 -26.2727 -29.2702 C.ar           1 RES1               0.0000
      8 N8          -8.8032 -23.2349 -28.4308 N.am           1 RES1               0.0000
      9 O9          -8.2601 -23.7172 -30.5637 O.2            1 RES1               0.0000
     10 N10         -8.0626 -24.5239 -26.6364 N.am           1 RES1               0.0000
     11 O11         -7.1637 -26.5675 -26.8990 O.2            1 RES1               0.0000
     12 C12         -5.3702 -24.3922 -29.2618 C.3            1 RES1               0.0000
     13 C13         -9.1817 -28.6031 -30.4289 C.ar           1 RES1               0.0000
     14 C14        -10.9925 -27.2363 -29.6994 C.ar           1 RES1               0.0000
     15 C15         -8.6817 -23.3843 -27.0726 C.2            1 RES1               0.0000
     16 C16        -10.5372 -28.4018 -30.2782 C.ar           1 RES1               0.0000
     17 O17         -9.1082 -22.5279 -26.3033 O.2            1 RES1               0.0000
     18 H18         -5.8426 -26.4756 -29.1011 H              1 RES1               0.0000
     19 H19         -6.3799 -25.7160 -30.6099 H              1 RES1               0.0000
     20 H20         -7.2194 -27.8158 -30.1299 H              1 RES1               0.0000
     21 H21        -10.4758 -25.3630 -28.8187 H              1 RES1               0.0000
     22 H22         -9.3478 -22.4432 -28.7580 H              1 RES1               0.0000
     23 H23         -7.9231 -24.6150 -25.6352 H              1 RES1               0.0000
     24 H24         -4.3891 -24.5659 -29.6987 H              1 RES1               0.0000
     25 H25         -5.7763 -23.4795 -29.6928 H              1 RES1               0.0000
     26 H26         -5.2421 -24.2346 -28.1929 H              1 RES1               0.0000
     27 H27         -8.8183 -29.5181 -30.8851 H              1 RES1               0.0000
     28 H28        -12.0584 -27.0733 -29.5794 H              1 RES1               0.0000
     29 H29        -11.2415 -29.1559 -30.6134 H              1 RES1               0.0000
@<TRIPOS>BOND
    1    1    2 1     
    2    1    3 1     
    3    1    4 1     
    4    1    5 1     
    5    2    6 ar    
    6    2    7 ar    
    7    3    8 1     
    8    3    9 2     
    9    4   10 1     
   10    4   11 2     
   11    5   12 1     
   12    5   18 1     
   13    5   19 1     
   14    6   13 ar    
   15    6   20 1     
   16    7   14 ar    
   17    7   21 1     
   18    8   15 1     
   19    8   22 1     
   20   10   15 1     
   21   10   23 1     
   22   12   24 1     
   23   12   25 1     
   24   12   26 1     
   25   13   16 ar    
   26   13   27 1     
   27   14   16 ar    
   28   14   28 1     
   29   15   17 2     
   30   16   29 1     
@<TRIPOS>SUBSTRUCTURE
      1 RES1           1
@<TRIPOS>SET
DONOR_HYDROGENS      STATIC     ATOMS    <user>   **** ""
2 22 23
ATOM$RED        STATIC     ATOMS    COLORGROUP SYSTEM
2 22 23
@<TRIPOS>COMMENT
> <Gold.Version>
2022.3.0

> <Gold.Id.Protein>
unknown|7kl0_clean|pdb

> <Gold.Protein.RotatedTorsions>
[ 1096 1086 1087 1088 ] final  106.40 input   77.66 | X-H torsion
[ 1116 1106 1107 1108 ] final   30.93 input   75.39 | X-H torsion
[ 2209 2193 2194 2195 ] final   20.31 input  128.07 | X-H torsion
[ 2253 2229 2230 2231 ] final    7.83 input   94.48 | X-H torsion
[ 2733 2713 2714 2715 ] final  143.84 input   74.45 | X-H torsion
[ 2762 2750 2751 2752 ] final   36.67 input  128.15 | X-H torsion
[ 2793 2774 2775 2776 ] final  -10.44 input  106.68 | X-H torsion
[ 2827 2811 2812 2813 ] final   -3.14 input   64.81 | X-H torsion
[ 2857 2843 2844 2845 ] final  135.44 input   70.34 | X-H torsion
[  504  482  483  484 ] final    2.24 input   40.33 | X-H torsion
[  528  521  522  523 ] final    9.57 input   38.54 | X-H torsion
[  612  602  601  598 ] final  153.31 input   59.99 | X-H torsion
[  636  620  621  622 ] final   73.45 input   33.60 | X-H torsion
[  668  652  653  654 ] final   50.85 input   67.24 | X-H torsion
[ 1152 1130 1131 1132 ] final  -10.94 input  101.11 | X-H torsion
[ 1162 1138 1137 1136 ] final   95.52 input   59.97 | X-H torsion
[ 1189 1173 1174 1175 ] final   -9.08 input   74.99 | X-H torsion
[ 4769 4761 4762 4763 ] final -179.75 input -116.16 | X-H torsion
[ 4799 4788 4789 4790 ] final -179.28 input   84.75 | X-H torsion
[ 4825 4821 4822 4823 ] final  174.06 input  114.67 | X-H torsion
[  760  736  737  738 ] final  -27.62 input  123.93 | X-H torsion
[ 1072 1051 1052 1053 ] final  129.04 input   37.12 | X-H torsion
[ 2863 2849 2847 2844 ] final  -90.10 input   59.99 | X-H torsion
[ 2875 2868 2869 2870 ] final  -25.95 input   94.70 | X-H torsion
[ 2889 2882 2883 2884 ] final   61.61 input -101.73 | X-H torsion
[ 4743 4738 4739 4740 ] final  -64.97 input   44.52 | X-H torsion
[  447  429  430  431 ] final  159.65 input   69.31 | X-H torsion
[  470  463  464  465 ] final  152.77 input   13.24 | X-H torsion
[  712  688  689  690 ] final   41.12 input   42.22 | X-H torsion
[ 2916 2901 2902 2903 ] final -144.22 input  112.69 | X-H torsion
[ 4310 4296 4297 4298 ] final  -69.57 input   86.41 | X-H torsion
[ 4343 4324 4325 4326 ] final   27.90 input   71.41 | X-H torsion
[ 4381 4362 4363 4364 ] final   70.76 input   70.60 | X-H torsion
[ 4419 4400 4401 4402 ] final  -49.36 input   92.71 | X-H torsion
[  790  779  780  781 ] final  -34.62 input   42.63 | X-H torsion
[ 4847 4839 4840 4841 ] final   63.44 input   74.58 | X-H torsion
[ 2649 2634 2635 2636 ] final  158.97 input   83.10 | X-H torsion
[ 2946 2930 2931 2932 ] final   39.08 input  126.41 | X-H torsion
[ 4496 4485 4484 4483 ] final   35.96 input   60.01 | X-H torsion
[ 8535  691  690  689 ] final  -26.89 input    0.00 | X-H torsion
[ 8537 1054 1053 1052 ] final  -19.80 input    0.00 | X-H torsion
[ 8540 1089 1088 1087 ] final   23.72 input    0.00 | X-H torsion
[ 8545 2232 2231 2230 ] final -128.14 input    0.00 | X-H torsion
[ 8548 2716 2715 2714 ] final  113.66 input    0.00 | X-H torsion
[ 8551 2753 2752 2751 ] final -118.28 input    0.00 | X-H torsion
[ 8558 2777 2776 2775 ] final   29.43 input    0.00 | X-H torsion
[ 8561 2814 2813 2812 ] final  -42.29 input    0.00 | X-H torsion
[ 8564  466  465  464 ] final   43.43 input   -0.00 | X-H torsion
[ 8567  485  484  483 ] final  -37.01 input    0.00 | X-H torsion
[ 8573  623  622  621 ] final  178.99 input    0.00 | X-H torsion
[ 8576 1109 1108 1107 ] final   52.93 input   -0.00 | X-H torsion
[ 8579 1133 1132 1131 ] final  -70.95 input    0.00 | X-H torsion
[ 8586 2637 2636 2635 ] final -100.84 input    0.00 | X-H torsion
[ 8588 4741 4740 4739 ] final   96.22 input    0.00 | X-H torsion
[ 8591 4764 4763 4762 ] final -128.97 input    0.00 | X-H torsion
[ 8600 1021 1020 1019 ] final  136.81 input    0.00 | X-H torsion
[ 8603 2846 2845 2844 ] final -148.64 input   -0.00 | X-H torsion
[ 8609 4403 4402 4401 ] final  -28.32 input    0.00 | X-H torsion
[ 8612 4791 4790 4789 ] final  -52.39 input    0.00 | X-H torsion
[ 8615  432  431  430 ] final  162.45 input    0.00 | X-H torsion
[ 8618  655  654  653 ] final  -28.65 input    0.00 | X-H torsion
[ 8626 4270 4269 4268 ] final    6.43 input    0.00 | X-H torsion
[ 8628 2885 2884 2883 ] final -173.69 input    0.00 | X-H torsion
[ 8633 4299 4298 4297 ] final -123.09 input    0.00 | X-H torsion
[ 8636 4327 4326 4325 ] final  177.80 input    0.00 | X-H torsion
[ 8639 2196 2195 2194 ] final  -24.36 input    0.00 | X-H torsion
[ 8641 4706 4705 4704 ] final  110.21 input    0.00 | X-H torsion
[ 8647  403  402  401 ] final   73.65 input    0.00 | X-H torsion
[ 8651 2871 2870 2869 ] final -152.99 input    0.00 | X-H torsion
[ 8653 2904 2903 2902 ] final  176.14 input    0.00 | X-H torsion
[ 8655 4663 4662 4661 ] final  -24.88 input    0.00 | X-H torsion

> <Gold.Protein.ActiveResidues>
 GLU18   LEU19   GLY20   LYS21   GLY22   SER25   VAL26   VAL27   ARG28   ARG29  
 CYS30   GLU38   TYR39   ALA40   ALA41   LYS42   ILE43   ILE44   GLU60   CYS64  
 VAL73   ARG74   LEU75   LEU87   ILE88   PHE89   ASP90   LEU91   VAL92   THR93  
 GLY94   GLY95   GLU96   LEU97   GLU99   GLU139  ASN140  LEU141  LEU142  LEU143 
 LYS146  LYS153  LEU154  ALA155  ASP156  PHE157  GLY158  LEU159 

> <Gold.Protein.RotatedAtoms>
   -6.1205  -28.7521  -22.0861 H   0  0  0  0  0  0  0  0  0  0  0  0  # atno 447  bound_to 429 
   -5.9571  -25.7806  -23.9517 H   0  0  0  0  0  0  0  0  0  0  0  0  # atno 470  bound_to 463 
   -7.3206  -21.5695  -23.0071 H   0  0  0  0  0  0  0  0  0  0  0  0  # atno 504  bound_to 482 
   -9.6531  -19.8580  -19.8972 H   0  0  0  0  0  0  0  0  0  0  0  0  # atno 528  bound_to 521 
  -13.4735  -20.7122  -22.4057 H   0  0  0  0  0  0  0  0  0  0  0  0  # atno 612  bound_to 602 
  -13.0844  -23.6187  -19.1927 H   0  0  0  0  0  0  0  0  0  0  0  0  # atno 636  bound_to 620 
   -9.3433  -25.0160  -21.3403 H   0  0  0  0  0  0  0  0  0  0  0  0  # atno 668  bound_to 652 
  -10.9946  -28.8847  -22.5626 H   0  0  0  0  0  0  0  0  0  0  0  0  # atno 712  bound_to 688 
   -9.3650  -31.5743  -22.3332 H   0  0  0  0  0  0  0  0  0  0  0  0  # atno 760  bound_to 736 
   -9.9678  -35.1645  -23.7126 H   0  0  0  0  0  0  0  0  0  0  0  0  # atno 790  bound_to 779 
  -12.5020  -36.9260  -26.8828 H   0  0  0  0  0  0  0  0  0  0  0  0  # atno 1072 bound_to 1051
  -11.7638  -32.5829  -28.3710 H   0  0  0  0  0  0  0  0  0  0  0  0  # atno 1096 bound_to 1086
  -12.0602  -30.2312  -24.5451 H   0  0  0  0  0  0  0  0  0  0  0  0  # atno 1116 bound_to 1106
  -14.9715  -28.3286  -23.7469 H   0  0  0  0  0  0  0  0  0  0  0  0  # atno 1152 bound_to 1130
  -16.8162  -20.0576  -24.3860 H   0  0  0  0  0  0  0  0  0  0  0  0  # atno 1162 bound_to 1138
  -15.5614  -19.3565  -25.2112 H   0  0  0  0  0  0  0  0  0  0  0  0  # atno 1163 bound_to 1138
  -16.4413  -20.5716  -25.9155 H   0  0  0  0  0  0  0  0  0  0  0  0  # atno 1164 bound_to 1138
  -15.0047  -25.1732  -21.6731 H   0  0  0  0  0  0  0  0  0  0  0  0  # atno 1189 bound_to 1173
  -14.1780  -26.1989  -37.7063 H   0  0  0  0  0  0  0  0  0  0  0  0  # atno 2209 bound_to 2193
  -14.7148  -29.1226  -35.1447 H   0  0  0  0  0  0  0  0  0  0  0  0  # atno 2253 bound_to 2229
  -19.3455  -26.7543  -23.8855 H   0  0  0  0  0  0  0  0  0  0  0  0  # atno 2649 bound_to 2634
  -15.9488  -29.7275  -28.2583 H   0  0  0  0  0  0  0  0  0  0  0  0  # atno 2733 bound_to 2713
  -14.0336  -30.9369  -31.7034 H   0  0  0  0  0  0  0  0  0  0  0  0  # atno 2762 bound_to 2750
  -11.4063  -33.1228  -32.4378 H   0  0  0  0  0  0  0  0  0  0  0  0  # atno 2793 bound_to 2774
   -7.8223  -32.0313  -31.5602 H   0  0  0  0  0  0  0  0  0  0  0  0  # atno 2827 bound_to 2811
   -5.6683  -32.6874  -33.9264 H   0  0  0  0  0  0  0  0  0  0  0  0  # atno 2857 bound_to 2843
   -4.4396  -34.3136  -34.9796 H   0  0  0  0  0  0  0  0  0  0  0  0  # atno 2863 bound_to 2849
   -2.8029  -30.7434  -33.5255 H   0  0  0  0  0  0  0  0  0  0  0  0  # atno 2875 bound_to 2868
   -1.2683  -28.6796  -34.3295 H   0  0  0  0  0  0  0  0  0  0  0  0  # atno 2889 bound_to 2882
   -2.1244  -25.3133  -32.5402 H   0  0  0  0  0  0  0  0  0  0  0  0  # atno 2916 bound_to 2901
   -1.6700  -22.0717  -35.2358 H   0  0  0  0  0  0  0  0  0  0  0  0  # atno 2946 bound_to 2930
   -5.2243  -19.6560  -33.4494 H   0  0  0  0  0  0  0  0  0  0  0  0  # atno 4310 bound_to 4296
   -5.5294  -20.6258  -35.1507 H   0  0  0  0  0  0  0  0  0  0  0  0  # atno 4343 bound_to 4324
   -6.8639  -24.1456  -36.8098 H   0  0  0  0  0  0  0  0  0  0  0  0  # atno 4381 bound_to 4362
   -4.7479  -26.8320  -36.8114 H   0  0  0  0  0  0  0  0  0  0  0  0  # atno 4419 bound_to 4400
   -0.0312  -33.2401  -33.1755 H   0  0  0  0  0  0  0  0  0  0  0  0  # atno 4496 bound_to 4485
   -0.2212  -34.6923  -32.4001 H   0  0  0  0  0  0  0  0  0  0  0  0  # atno 4497 bound_to 4485
    0.2193  -33.3461  -31.5405 H   0  0  0  0  0  0  0  0  0  0  0  0  # atno 4498 bound_to 4485
  -11.7249  -21.8836  -36.4305 H   0  0  0  0  0  0  0  0  0  0  0  0  # atno 4743 bound_to 4738
  -11.9912  -22.2323  -32.2226 H   0  0  0  0  0  0  0  0  0  0  0  0  # atno 4769 bound_to 4761
  -14.5451  -20.1823  -32.8762 H   0  0  0  0  0  0  0  0  0  0  0  0  # atno 4799 bound_to 4788
  -15.7846  -18.9291  -30.2542 H   0  0  0  0  0  0  0  0  0  0  0  0  # atno 4825 bound_to 4821
  -15.7329  -15.7672  -31.0310 H   0  0  0  0  0  0  0  0  0  0  0  0  # atno 4847 bound_to 4839
  -11.5400  -30.8541  -22.7022 LP  0  0  0  0  0  0  0  0  0  0  0  0  # atno 8535 bound_to 691 
  -10.8444  -31.6805  -24.0561 LP  0  0  0  0  0  0  0  0  0  0  0  0  # atno 8536 bound_to 691 
  -11.1272  -35.0043  -25.4408 LP  0  0  0  0  0  0  0  0  0  0  0  0  # atno 8537 bound_to 1054
  -10.2899  -33.4930  -25.5641 LP  0  0  0  0  0  0  0  0  0  0  0  0  # atno 8538 bound_to 1054
  -12.1216  -33.4069  -26.8598 LP  0  0  0  0  0  0  0  0  0  0  0  0  # atno 8539 bound_to 1086
  -13.7396  -30.8107  -27.9240 LP  0  0  0  0  0  0  0  0  0  0  0  0  # atno 8540 bound_to 1089
  -14.4050  -29.6732  -26.8000 LP  0  0  0  0  0  0  0  0  0  0  0  0  # atno 8541 bound_to 1089
  -13.0851  -31.2076  -25.5837 LP  0  0  0  0  0  0  0  0  0  0  0  0  # atno 8542 bound_to 1106
  -12.4757  -26.5961  -37.8628 LP  0  0  0  0  0  0  0  0  0  0  0  0  # atno 8543 bound_to 2193
  -14.9471  -29.0294  -36.8768 LP  0  0  0  0  0  0  0  0  0  0  0  0  # atno 8544 bound_to 2229
  -16.4812  -30.9487  -32.8642 LP  0  0  0  0  0  0  0  0  0  0  0  0  # atno 8545 bound_to 2232
  -15.2332  -29.9525  -33.5351 LP  0  0  0  0  0  0  0  0  0  0  0  0  # atno 8546 bound_to 2232
  -16.1081  -31.4648  -28.4476 LP  0  0  0  0  0  0  0  0  0  0  0  0  # atno 8547 bound_to 2713
  -14.1528  -33.2183  -29.4240 LP  0  0  0  0  0  0  0  0  0  0  0  0  # atno 8548 bound_to 2716
  -13.1706  -31.8392  -29.0586 LP  0  0  0  0  0  0  0  0  0  0  0  0  # atno 8549 bound_to 2716
  -15.2127  -32.2260  -31.5881 LP  0  0  0  0  0  0  0  0  0  0  0  0  # atno 8550 bound_to 2750
  -10.9421  -30.7639  -31.9466 LP  0  0  0  0  0  0  0  0  0  0  0  0  # atno 8551 bound_to 2753
  -12.2346  -30.7658  -30.7936 LP  0  0  0  0  0  0  0  0  0  0  0  0  # atno 8552 bound_to 2753
  -11.7315  -33.9038  -30.9010 LP  0  0  0  0  0  0  0  0  0  0  0  0  # atno 8557 bound_to 2774
  -10.0591  -33.9725  -33.6248 LP  0  0  0  0  0  0  0  0  0  0  0  0  # atno 8558 bound_to 2777
   -8.4756  -33.5859  -34.2105 LP  0  0  0  0  0  0  0  0  0  0  0  0  # atno 8559 bound_to 2777
   -9.2432  -31.7778  -32.5559 LP  0  0  0  0  0  0  0  0  0  0  0  0  # atno 8560 bound_to 2811
   -6.1346  -29.7570  -31.8059 LP  0  0  0  0  0  0  0  0  0  0  0  0  # atno 8561 bound_to 2814
   -5.1563  -31.0571  -31.2119 LP  0  0  0  0  0  0  0  0  0  0  0  0  # atno 8562 bound_to 2814
   -5.1753  -31.0177  -33.7236 LP  0  0  0  0  0  0  0  0  0  0  0  0  # atno 8563 bound_to 2843
   -6.9984  -24.7279  -20.8518 LP  0  0  0  0  0  0  0  0  0  0  0  0  # atno 8564 bound_to 466 
   -8.4850  -23.8409  -20.9094 LP  0  0  0  0  0  0  0  0  0  0  0  0  # atno 8565 bound_to 466 
   -6.6191  -22.6804  -21.8426 LP  0  0  0  0  0  0  0  0  0  0  0  0  # atno 8566 bound_to 482 
   -7.3428  -19.3642  -22.8435 LP  0  0  0  0  0  0  0  0  0  0  0  0  # atno 8567 bound_to 485 
   -8.9943  -19.2113  -23.3427 LP  0  0  0  0  0  0  0  0  0  0  0  0  # atno 8568 bound_to 485 
   -9.2760  -20.0625  -21.6022 LP  0  0  0  0  0  0  0  0  0  0  0  0  # atno 8569 bound_to 521 
  -12.4365  -20.5518  -21.1618 LP  0  0  0  0  0  0  0  0  0  0  0  0  # atno 8570 bound_to 602 
  -13.6326  -19.4611  -21.3771 LP  0  0  0  0  0  0  0  0  0  0  0  0  # atno 8571 bound_to 602 
  -12.2890  -22.2103  -19.8794 LP  0  0  0  0  0  0  0  0  0  0  0  0  # atno 8572 bound_to 620 
  -12.6694  -25.9028  -21.8403 LP  0  0  0  0  0  0  0  0  0  0  0  0  # atno 8573 bound_to 623 
  -13.1941  -24.9478  -20.4940 LP  0  0  0  0  0  0  0  0  0  0  0  0  # atno 8574 bound_to 623 
  -11.0877  -24.8948  -21.2502 LP  0  0  0  0  0  0  0  0  0  0  0  0  # atno 8575 bound_to 652 
  -11.9963  -28.7332  -23.1151 LP  0  0  0  0  0  0  0  0  0  0  0  0  # atno 8576 bound_to 1109
  -13.0587  -27.8197  -22.0970 LP  0  0  0  0  0  0  0  0  0  0  0  0  # atno 8577 bound_to 1109
  -14.1395  -27.6460  -25.1294 LP  0  0  0  0  0  0  0  0  0  0  0  0  # atno 8578 bound_to 1130
  -17.4537  -25.9050  -23.0415 LP  0  0  0  0  0  0  0  0  0  0  0  0  # atno 8579 bound_to 1133
  -17.2099  -27.4829  -22.3700 LP  0  0  0  0  0  0  0  0  0  0  0  0  # atno 8580 bound_to 1133
  -14.7252  -26.9051  -21.6528 LP  0  0  0  0  0  0  0  0  0  0  0  0  # atno 8581 bound_to 1173
  -16.1203  -28.1761  -26.7096 LP  0  0  0  0  0  0  0  0  0  0  0  0  # atno 8586 bound_to 2637
  -16.3505  -28.6291  -25.0537 LP  0  0  0  0  0  0  0  0  0  0  0  0  # atno 8587 bound_to 2637
  -12.1787  -19.6566  -34.6926 LP  0  0  0  0  0  0  0  0  0  0  0  0  # atno 8588 bound_to 4741
  -10.6287  -19.8659  -33.9487 LP  0  0  0  0  0  0  0  0  0  0  0  0  # atno 8589 bound_to 4741
  -12.9630  -21.4156  -33.4399 LP  0  0  0  0  0  0  0  0  0  0  0  0  # atno 8590 bound_to 4761
  -13.7295  -17.3923  -32.1352 LP  0  0  0  0  0  0  0  0  0  0  0  0  # atno 8591 bound_to 4764
  -12.4981  -18.2045  -33.0429 LP  0  0  0  0  0  0  0  0  0  0  0  0  # atno 8592 bound_to 4764
  -14.8438  -19.7524  -31.1963 LP  0  0  0  0  0  0  0  0  0  0  0  0  # atno 8597 bound_to 4788
  -16.0529  -17.4837  -31.2100 LP  0  0  0  0  0  0  0  0  0  0  0  0  # atno 8598 bound_to 4821
   -7.7453  -31.4737  -22.9911 LP  0  0  0  0  0  0  0  0  0  0  0  0  # atno 8599 bound_to 736 
  -12.7497  -36.8744  -29.5501 LP  0  0  0  0  0  0  0  0  0  0  0  0  # atno 8600 bound_to 1021
  -11.2560  -37.7009  -29.8431 LP  0  0  0  0  0  0  0  0  0  0  0  0  # atno 8601 bound_to 1021
  -10.8629  -36.3668  -27.1726 LP  0  0  0  0  0  0  0  0  0  0  0  0  # atno 8602 bound_to 1051
   -0.7669  -31.2485  -32.7558 LP  0  0  0  0  0  0  0  0  0  0  0  0  # atno 8603 bound_to 2846
   -1.3161  -32.8550  -32.4131 LP  0  0  0  0  0  0  0  0  0  0  0  0  # atno 8604 bound_to 2846
   -2.9588  -34.9702  -34.8236 LP  0  0  0  0  0  0  0  0  0  0  0  0  # atno 8605 bound_to 2849
   -3.1218  -33.3617  -35.0529 LP  0  0  0  0  0  0  0  0  0  0  0  0  # atno 8606 bound_to 2849
   -3.1747  -31.5147  -35.0507 LP  0  0  0  0  0  0  0  0  0  0  0  0  # atno 8607 bound_to 2868
   -2.5058  -29.0832  -33.1579 LP  0  0  0  0  0  0  0  0  0  0  0  0  # atno 8608 bound_to 2882
   -3.2083  -29.1963  -35.9150 LP  0  0  0  0  0  0  0  0  0  0  0  0  # atno 8609 bound_to 4403
   -4.6124  -30.1618  -36.2249 LP  0  0  0  0  0  0  0  0  0  0  0  0  # atno 8610 bound_to 4403
  -10.1418  -22.5312  -36.0347 LP  0  0  0  0  0  0  0  0  0  0  0  0  # atno 8611 bound_to 4738
  -18.2533  -17.1545  -32.3459 LP  0  0  0  0  0  0  0  0  0  0  0  0  # atno 8612 bound_to 4791
  -18.6908  -18.0019  -30.9000 LP  0  0  0  0  0  0  0  0  0  0  0  0  # atno 8613 bound_to 4791
   -5.7549  -27.1339  -21.5167 LP  0  0  0  0  0  0  0  0  0  0  0  0  # atno 8614 bound_to 429 
   -4.5787  -24.6010  -25.0023 LP  0  0  0  0  0  0  0  0  0  0  0  0  # atno 8615 bound_to 432 
   -3.6861  -26.0852  -24.9767 LP  0  0  0  0  0  0  0  0  0  0  0  0  # atno 8616 bound_to 432 
   -6.1355  -25.7095  -22.2078 LP  0  0  0  0  0  0  0  0  0  0  0  0  # atno 8617 bound_to 463 
   -7.8556  -26.5361  -22.1241 LP  0  0  0  0  0  0  0  0  0  0  0  0  # atno 8618 bound_to 655 
   -7.9272  -27.9227  -21.0886 LP  0  0  0  0  0  0  0  0  0  0  0  0  # atno 8619 bound_to 655 
   -9.6178  -27.8849  -22.1460 LP  0  0  0  0  0  0  0  0  0  0  0  0  # atno 8620 bound_to 688 
   -0.4489  -25.1423  -33.0148 LP  0  0  0  0  0  0  0  0  0  0  0  0  # atno 8623 bound_to 2901
   -4.4062  -20.8819  -31.7066 LP  0  0  0  0  0  0  0  0  0  0  0  0  # atno 8626 bound_to 4270
   -5.9321  -21.1439  -32.4831 LP  0  0  0  0  0  0  0  0  0  0  0  0  # atno 8627 bound_to 4270
   -2.2363  -25.2786  -35.3184 LP  0  0  0  0  0  0  0  0  0  0  0  0  # atno 8628 bound_to 2885
   -2.4719  -26.9741  -35.0540 LP  0  0  0  0  0  0  0  0  0  0  0  0  # atno 8629 bound_to 2885
   -5.6690  -18.0409  -33.9813 LP  0  0  0  0  0  0  0  0  0  0  0  0  # atno 8632 bound_to 4296
   -8.5832  -21.9732  -35.3572 LP  0  0  0  0  0  0  0  0  0  0  0  0  # atno 8633 bound_to 4299
   -9.2969  -20.4038  -35.5235 LP  0  0  0  0  0  0  0  0  0  0  0  0  # atno 8634 bound_to 4299
   -7.0907  -20.0748  -35.7266 LP  0  0  0  0  0  0  0  0  0  0  0  0  # atno 8635 bound_to 4324
   -3.6394  -23.3666  -35.6937 LP  0  0  0  0  0  0  0  0  0  0  0  0  # atno 8636 bound_to 4327
   -3.8510  -21.6881  -36.0649 LP  0  0  0  0  0  0  0  0  0  0  0  0  # atno 8637 bound_to 4327
   -5.4646  -23.1670  -36.4176 LP  0  0  0  0  0  0  0  0  0  0  0  0  # atno 8638 bound_to 4362
  -15.5067  -26.1240  -35.6002 LP  0  0  0  0  0  0  0  0  0  0  0  0  # atno 8639 bound_to 2196
  -16.7560  -27.1889  -36.1526 LP  0  0  0  0  0  0  0  0  0  0  0  0  # atno 8640 bound_to 2196
  -12.0397  -24.7846  -36.4574 LP  0  0  0  0  0  0  0  0  0  0  0  0  # atno 8641 bound_to 4706
  -13.1673  -23.7970  -37.3253 LP  0  0  0  0  0  0  0  0  0  0  0  0  # atno 8642 bound_to 4706
   -3.5219  -29.5819  -21.4366 LP  0  0  0  0  0  0  0  0  0  0  0  0  # atno 8647 bound_to 403 
   -3.1036  -27.9013  -21.4129 LP  0  0  0  0  0  0  0  0  0  0  0  0  # atno 8648 bound_to 403 
    0.6086  -27.9086  -34.0955 LP  0  0  0  0  0  0  0  0  0  0  0  0  # atno 8651 bound_to 2871
    0.4616  -28.6316  -35.6625 LP  0  0  0  0  0  0  0  0  0  0  0  0  # atno 8652 bound_to 2871
    0.8381  -23.5185  -35.7780 LP  0  0  0  0  0  0  0  0  0  0  0  0  # atno 8653 bound_to 2904
    0.7454  -23.9127  -34.0940 LP  0  0  0  0  0  0  0  0  0  0  0  0  # atno 8654 bound_to 2904
   -8.1690  -25.1095  -36.9660 LP  0  0  0  0  0  0  0  0  0  0  0  0  # atno 8655 bound_to 4663
   -8.4801  -23.4122  -37.1159 LP  0  0  0  0  0  0  0  0  0  0  0  0  # atno 8656 bound_to 4663
   -3.1127  -26.2595  -36.5384 LP  0  0  0  0  0  0  0  0  0  0  0  0  # atno 8657 bound_to 4400

> <Gold.Score>
     Fitness  S(hb_ext) S(vdw_ext)  S(hb_int)    S(int)      intcor
     27.28       0.00      20.31       0.00      -0.65      -0.76

> <Gold.Goldscore.Fitness>
27.2764

> <Gold.Goldscore.Internal.Vdw>
-0.8608

> <Gold.Goldscore.Internal.Torsion>
-0.5484

> <Gold.Goldscore.External.Vdw>
20.3105

> <Gold.Goldscore.Internal.HBond>
0.0000

> <Gold.Goldscore.External.HBond>
0.0000

> <Gold.Goldscore.Internal.Correction>
-0.7585

> <Gold.Goldscore.Internal.Vdw.Weighted>
-0.8608

> <Gold.Goldscore.Internal.Torsion.Weighted>
-0.5484

> <Gold.Goldscore.External.Vdw.Weighted>
27.9270

> <Gold.Goldscore.Internal.HBond.Weighted>
0.0000

> <Gold.Goldscore.External.HBond.Weighted>
0.0000

> <Gold.Goldscore.Internal.Correction.Weighted>
-0.7585

> <Gold.Rescore>
     Score     S(PLP)   S(hbond)     S(cho)   S(metal)  DE(clash)   DE(tors)     intcor
     26.86     -26.94       0.00       0.00       0.00       0.00       0.04       ----

> <Gold.PLP.Fitness>
26.8630

> <Gold.PLP.PLP>
-26.9397

> <Gold.PLP.part.hbond>
0.0000

> <Gold.PLP.part.metal>
0.0000

> <Gold.PLP.part.buried>
-1.9933

> <Gold.PLP.part.nonpolar>
-25.5542

> <Gold.PLP.part.repulsive>
0.0945

> <Gold.PLP.ligand.clash>
0.0000

> <Gold.PLP.ligand.torsion>
0.0383

> <Gold.PLP.Chemscore.Hbond>
0.0000

> <Gold.PLP.Chemscore.CHOScore>
0.0000

> <Gold.PLP.Chemscore.Metal>
0.0000

> <Gold.PLP.Chemscore.Internal.Correction>
   9.000000E+99

