#       Name:                CT1002167954
#       Creating user name   hitesit
#       Creation time:       Sun Apr 16 02:22:15 2023


#       File generated by GOLD software.
#

@<TRIPOS>MOLECULE
CT1002167954|ligand_prepared|mol2|1|dock2
    29    30     1
SMALL
NO_CHARGES


@<TRIPOS>ATOM
      1 C1          -8.1497 -24.9930 -28.4900 C.3            1 RES1               0.0000
      2 C2          -8.3583 -26.3716 -29.1494 C.ar           1 RES1               0.0000
      3 C3          -7.3572 -25.2454 -27.2107 C.2            1 RES1               0.0000
      4 C4          -7.4176 -24.1356 -29.5164 C.2            1 RES1               0.0000
      5 C5          -9.4666 -24.2727 -28.1179 C.3            1 RES1               0.0000
      6 C6          -7.3210 -27.2982 -29.1977 C.ar           1 RES1               0.0000
      7 C7          -9.5808 -26.7315 -29.7102 C.ar           1 RES1               0.0000
      8 N8          -6.0412 -24.8876 -27.2017 N.am           1 RES1               0.0000
      9 O9          -7.8689 -25.7864 -26.2383 O.2            1 RES1               0.0000
     10 N10         -6.1410 -23.7328 -29.2232 N.am           1 RES1               0.0000
     11 O11         -7.9286 -23.8190 -30.5836 O.2            1 RES1               0.0000
     12 C12         -9.2678 -23.0444 -27.2439 C.3            1 RES1               0.0000
     13 C13         -7.5003 -28.5407 -29.7828 C.ar           1 RES1               0.0000
     14 C14         -9.7578 -27.9745 -30.2950 C.ar           1 RES1               0.0000
     15 C15         -5.4085 -24.0956 -28.1259 C.2            1 RES1               0.0000
     16 C16         -8.7187 -28.8799 -30.3314 C.ar           1 RES1               0.0000
     17 O17         -4.2464 -23.7367 -27.9589 O.2            1 RES1               0.0000
     18 H18         -9.9768 -23.9706 -29.0409 H              1 RES1               0.0000
     19 H19        -10.1188 -24.9796 -27.5903 H              1 RES1               0.0000
     20 H20         -6.3544 -27.0481 -28.7733 H              1 RES1               0.0000
     21 H21        -10.4120 -26.0348 -29.6940 H              1 RES1               0.0000
     22 H22         -5.4752 -25.2416 -26.4372 H              1 RES1               0.0000
     23 H23         -5.6956 -23.1042 -29.8841 H              1 RES1               0.0000
     24 H24        -10.2227 -22.5771 -27.0124 H              1 RES1               0.0000
     25 H25         -8.7854 -23.3121 -26.3062 H              1 RES1               0.0000
     26 H26         -8.6441 -22.3091 -27.7481 H              1 RES1               0.0000
     27 H27         -6.6789 -29.2491 -29.8100 H              1 RES1               0.0000
     28 H28        -10.7183 -28.2370 -30.7261 H              1 RES1               0.0000
     29 H29         -8.8589 -29.8534 -30.7893 H              1 RES1               0.0000
@<TRIPOS>BOND
    1    1    2 1     
    2    1    3 1     
    3    1    4 1     
    4    1    5 1     
    5    2    6 ar    
    6    2    7 ar    
    7    3    8 1     
    8    3    9 2     
    9    4   10 1     
   10    4   11 2     
   11    5   12 1     
   12    5   18 1     
   13    5   19 1     
   14    6   13 ar    
   15    6   20 1     
   16    7   14 ar    
   17    7   21 1     
   18    8   15 1     
   19    8   22 1     
   20   10   15 1     
   21   10   23 1     
   22   12   24 1     
   23   12   25 1     
   24   12   26 1     
   25   13   16 ar    
   26   13   27 1     
   27   14   16 ar    
   28   14   28 1     
   29   15   17 2     
   30   16   29 1     
@<TRIPOS>SUBSTRUCTURE
      1 RES1           1
@<TRIPOS>SET
DONOR_HYDROGENS      STATIC     ATOMS    <user>   **** ""
2 22 23
ATOM$RED        STATIC     ATOMS    COLORGROUP SYSTEM
2 22 23
@<TRIPOS>COMMENT
> <Gold.Version>
2022.3.0

> <Gold.Id.Protein>
unknown|7kl0_clean|pdb

> <Gold.Protein.RotatedTorsions>
[ 1096 1086 1087 1088 ] final  -64.24 input   77.66 | X-H torsion
[ 1116 1106 1107 1108 ] final  -55.00 input   75.39 | X-H torsion
[ 2209 2193 2194 2195 ] final  -65.94 input  128.07 | X-H torsion
[ 2253 2229 2230 2231 ] final   57.95 input   94.48 | X-H torsion
[ 2733 2713 2714 2715 ] final  134.96 input   74.45 | X-H torsion
[ 2762 2750 2751 2752 ] final  149.30 input  128.15 | X-H torsion
[ 2793 2774 2775 2776 ] final   87.07 input  106.68 | X-H torsion
[ 2827 2811 2812 2813 ] final -175.07 input   64.81 | X-H torsion
[ 2857 2843 2844 2845 ] final   95.71 input   70.34 | X-H torsion
[  504  482  483  484 ] final  -33.88 input   40.33 | X-H torsion
[  528  521  522  523 ] final  -57.01 input   38.54 | X-H torsion
[  612  602  601  598 ] final  -27.12 input   59.99 | X-H torsion
[  636  620  621  622 ] final   81.49 input   33.60 | X-H torsion
[  668  652  653  654 ] final  154.49 input   67.24 | X-H torsion
[ 1152 1130 1131 1132 ] final   19.59 input  101.11 | X-H torsion
[ 1162 1138 1137 1136 ] final   27.66 input   59.97 | X-H torsion
[ 1189 1173 1174 1175 ] final   21.58 input   74.99 | X-H torsion
[ 4769 4761 4762 4763 ] final  -31.78 input -116.16 | X-H torsion
[ 4799 4788 4789 4790 ] final -117.78 input   84.75 | X-H torsion
[ 4825 4821 4822 4823 ] final  139.97 input  114.67 | X-H torsion
[  760  736  737  738 ] final  -36.41 input  123.93 | X-H torsion
[ 1072 1051 1052 1053 ] final  100.63 input   37.12 | X-H torsion
[ 2863 2849 2847 2844 ] final   89.43 input   59.99 | X-H torsion
[ 2875 2868 2869 2870 ] final  157.89 input   94.70 | X-H torsion
[ 2889 2882 2883 2884 ] final   59.87 input -101.73 | X-H torsion
[ 4743 4738 4739 4740 ] final  -14.66 input   44.52 | X-H torsion
[  447  429  430  431 ] final  -33.49 input   69.31 | X-H torsion
[  470  463  464  465 ] final  -54.34 input   13.24 | X-H torsion
[  712  688  689  690 ] final   57.54 input   42.22 | X-H torsion
[ 2916 2901 2902 2903 ] final  140.70 input  112.69 | X-H torsion
[ 4310 4296 4297 4298 ] final -161.25 input   86.41 | X-H torsion
[ 4343 4324 4325 4326 ] final    9.35 input   71.41 | X-H torsion
[ 4381 4362 4363 4364 ] final  -37.83 input   70.60 | X-H torsion
[ 4419 4400 4401 4402 ] final   -4.38 input   92.71 | X-H torsion
[  790  779  780  781 ] final -171.18 input   42.63 | X-H torsion
[ 4847 4839 4840 4841 ] final  170.11 input   74.58 | X-H torsion
[ 2649 2634 2635 2636 ] final  -14.04 input   83.10 | X-H torsion
[ 2946 2930 2931 2932 ] final  -63.76 input  126.41 | X-H torsion
[ 4496 4485 4484 4483 ] final  158.43 input   60.01 | X-H torsion
[ 8535  691  690  689 ] final  -32.69 input    0.00 | X-H torsion
[ 8537 1054 1053 1052 ] final -129.73 input    0.00 | X-H torsion
[ 8540 1089 1088 1087 ] final  129.06 input    0.00 | X-H torsion
[ 8545 2232 2231 2230 ] final -157.84 input    0.00 | X-H torsion
[ 8548 2716 2715 2714 ] final  102.28 input    0.00 | X-H torsion
[ 8551 2753 2752 2751 ] final   86.85 input    0.00 | X-H torsion
[ 8558 2777 2776 2775 ] final   91.01 input    0.00 | X-H torsion
[ 8561 2814 2813 2812 ] final  105.07 input    0.00 | X-H torsion
[ 8564  466  465  464 ] final -129.74 input   -0.00 | X-H torsion
[ 8567  485  484  483 ] final  140.26 input    0.00 | X-H torsion
[ 8573  623  622  621 ] final  157.07 input    0.00 | X-H torsion
[ 8576 1109 1108 1107 ] final  -34.10 input   -0.00 | X-H torsion
[ 8579 1133 1132 1131 ] final   68.47 input    0.00 | X-H torsion
[ 8586 2637 2636 2635 ] final   36.10 input    0.00 | X-H torsion
[ 8588 4741 4740 4739 ] final -179.05 input    0.00 | X-H torsion
[ 8591 4764 4763 4762 ] final  -46.84 input    0.00 | X-H torsion
[ 8600 1021 1020 1019 ] final  -24.12 input    0.00 | X-H torsion
[ 8603 2846 2845 2844 ] final   85.32 input   -0.00 | X-H torsion
[ 8609 4403 4402 4401 ] final   81.71 input    0.00 | X-H torsion
[ 8612 4791 4790 4789 ] final  -40.45 input    0.00 | X-H torsion
[ 8615  432  431  430 ] final  -58.48 input    0.00 | X-H torsion
[ 8618  655  654  653 ] final   77.40 input    0.00 | X-H torsion
[ 8626 4270 4269 4268 ] final -108.23 input    0.00 | X-H torsion
[ 8628 2885 2884 2883 ] final   56.23 input    0.00 | X-H torsion
[ 8633 4299 4298 4297 ] final -137.86 input    0.00 | X-H torsion
[ 8636 4327 4326 4325 ] final  -39.55 input    0.00 | X-H torsion
[ 8639 2196 2195 2194 ] final   49.02 input    0.00 | X-H torsion
[ 8641 4706 4705 4704 ] final  129.16 input    0.00 | X-H torsion
[ 8647  403  402  401 ] final   -1.64 input    0.00 | X-H torsion
[ 8651 2871 2870 2869 ] final    1.58 input    0.00 | X-H torsion
[ 8653 2904 2903 2902 ] final  -52.21 input    0.00 | X-H torsion
[ 8655 4663 4662 4661 ] final   54.48 input    0.00 | X-H torsion

> <Gold.Protein.ActiveResidues>
 GLU18   LEU19   GLY20   LYS21   GLY22   SER25   VAL26   VAL27   ARG28   ARG29  
 CYS30   GLU38   TYR39   ALA40   ALA41   LYS42   ILE43   ILE44   GLU60   CYS64  
 VAL73   ARG74   LEU75   LEU87   ILE88   PHE89   ASP90   LEU91   VAL92   THR93  
 GLY94   GLY95   GLU96   LEU97   GLU99   GLU139  ASN140  LEU141  LEU142  LEU143 
 LYS146  LYS153  LEU154  ALA155  ASP156  PHE157  GLY158  LEU159 

> <Gold.Protein.RotatedAtoms>
   -5.5509  -27.1713  -21.4931 H   0  0  0  0  0  0  0  0  0  0  0  0  # atno 447  bound_to 429 
   -5.7282  -25.6314  -22.2284 H   0  0  0  0  0  0  0  0  0  0  0  0  # atno 470  bound_to 463 
   -7.6801  -21.9890  -22.9301 H   0  0  0  0  0  0  0  0  0  0  0  0  # atno 504  bound_to 482 
   -8.8742  -19.4277  -20.3383 H   0  0  0  0  0  0  0  0  0  0  0  0  # atno 528  bound_to 521 
  -12.8966  -19.7705  -20.8933 H   0  0  0  0  0  0  0  0  0  0  0  0  # atno 612  bound_to 602 
  -13.0446  -23.5754  -19.0805 H   0  0  0  0  0  0  0  0  0  0  0  0  # atno 636  bound_to 620 
  -10.4327  -24.3617  -21.9277 H   0  0  0  0  0  0  0  0  0  0  0  0  # atno 668  bound_to 652 
  -11.0627  -28.8265  -22.3242 H   0  0  0  0  0  0  0  0  0  0  0  0  # atno 712  bound_to 688 
   -9.4050  -31.5173  -22.4509 H   0  0  0  0  0  0  0  0  0  0  0  0  # atno 760  bound_to 736 
  -10.4142  -33.9224  -22.7055 H   0  0  0  0  0  0  0  0  0  0  0  0  # atno 790  bound_to 779 
  -12.3808  -36.7422  -26.4996 H   0  0  0  0  0  0  0  0  0  0  0  0  # atno 1072 bound_to 1051
  -12.2573  -33.3319  -26.8081 H   0  0  0  0  0  0  0  0  0  0  0  0  # atno 1096 bound_to 1086
  -12.5761  -30.0284  -25.6393 H   0  0  0  0  0  0  0  0  0  0  0  0  # atno 1116 bound_to 1106
  -15.3108  -28.2138  -24.0511 H   0  0  0  0  0  0  0  0  0  0  0  0  # atno 1152 bound_to 1130
  -16.9476  -20.6687  -25.2523 H   0  0  0  0  0  0  0  0  0  0  0  0  # atno 1162 bound_to 1138
  -16.2054  -19.4797  -24.3678 H   0  0  0  0  0  0  0  0  0  0  0  0  # atno 1163 bound_to 1138
  -15.6659  -19.8377  -25.8933 H   0  0  0  0  0  0  0  0  0  0  0  0  # atno 1164 bound_to 1138
  -14.5975  -25.2318  -21.4366 H   0  0  0  0  0  0  0  0  0  0  0  0  # atno 1189 bound_to 1173
  -13.5746  -27.0877  -38.3024 H   0  0  0  0  0  0  0  0  0  0  0  0  # atno 2209 bound_to 2193
  -14.5583  -29.7555  -35.5221 H   0  0  0  0  0  0  0  0  0  0  0  0  # atno 2253 bound_to 2229
  -18.5017  -28.3137  -23.7850 H   0  0  0  0  0  0  0  0  0  0  0  0  # atno 2649 bound_to 2634
  -15.8211  -29.7551  -28.2112 H   0  0  0  0  0  0  0  0  0  0  0  0  # atno 2733 bound_to 2713
  -15.0952  -31.7029  -32.3985 H   0  0  0  0  0  0  0  0  0  0  0  0  # atno 2762 bound_to 2750
  -11.4004  -34.3648  -31.9098 H   0  0  0  0  0  0  0  0  0  0  0  0  # atno 2793 bound_to 2774
   -9.2353  -31.8795  -32.6436 H   0  0  0  0  0  0  0  0  0  0  0  0  # atno 2827 bound_to 2811
   -5.3480  -32.5065  -34.4101 H   0  0  0  0  0  0  0  0  0  0  0  0  # atno 2857 bound_to 2843
   -2.5793  -34.1091  -34.9227 H   0  0  0  0  0  0  0  0  0  0  0  0  # atno 2863 bound_to 2849
   -3.1364  -31.5662  -35.0602 H   0  0  0  0  0  0  0  0  0  0  0  0  # atno 2875 bound_to 2868
   -1.2869  -28.6658  -34.3437 H   0  0  0  0  0  0  0  0  0  0  0  0  # atno 2889 bound_to 2882
   -1.3271  -24.8327  -31.9860 H   0  0  0  0  0  0  0  0  0  0  0  0  # atno 2916 bound_to 2901
   -0.9974  -23.2905  -35.2844 H   0  0  0  0  0  0  0  0  0  0  0  0  # atno 2946 bound_to 2930
   -5.6618  -18.5770  -32.8791 H   0  0  0  0  0  0  0  0  0  0  0  0  # atno 4310 bound_to 4296
   -5.6997  -20.8034  -35.0003 H   0  0  0  0  0  0  0  0  0  0  0  0  # atno 4343 bound_to 4324
   -5.5952  -23.6516  -37.3092 H   0  0  0  0  0  0  0  0  0  0  0  0  # atno 4381 bound_to 4362
   -4.4216  -27.1914  -36.3268 H   0  0  0  0  0  0  0  0  0  0  0  0  # atno 4419 bound_to 4400
   -0.2144  -34.6938  -32.3597 H   0  0  0  0  0  0  0  0  0  0  0  0  # atno 4496 bound_to 4485
    0.2236  -33.3094  -31.5612 H   0  0  0  0  0  0  0  0  0  0  0  0  # atno 4497 bound_to 4485
   -0.0420  -33.2734  -33.1962 H   0  0  0  0  0  0  0  0  0  0  0  0  # atno 4498 bound_to 4485
  -11.2291  -21.3770  -36.1430 H   0  0  0  0  0  0  0  0  0  0  0  0  # atno 4743 bound_to 4738
  -13.3162  -21.6539  -33.1934 H   0  0  0  0  0  0  0  0  0  0  0  0  # atno 4769 bound_to 4761
  -14.1344  -19.4430  -32.4962 H   0  0  0  0  0  0  0  0  0  0  0  0  # atno 4799 bound_to 4788
  -15.3423  -18.6468  -30.2337 H   0  0  0  0  0  0  0  0  0  0  0  0  # atno 4825 bound_to 4821
  -15.5776  -15.3573  -29.6585 H   0  0  0  0  0  0  0  0  0  0  0  0  # atno 4847 bound_to 4839
  -11.5508  -30.9329  -22.6653 LP  0  0  0  0  0  0  0  0  0  0  0  0  # atno 8535 bound_to 691 
  -10.8336  -31.6017  -24.0930 LP  0  0  0  0  0  0  0  0  0  0  0  0  # atno 8536 bound_to 691 
  -11.1076  -33.6500  -25.0204 LP  0  0  0  0  0  0  0  0  0  0  0  0  # atno 8537 bound_to 1054
  -10.3095  -34.8473  -25.9845 LP  0  0  0  0  0  0  0  0  0  0  0  0  # atno 8538 bound_to 1054
  -11.6559  -32.7002  -28.3345 LP  0  0  0  0  0  0  0  0  0  0  0  0  # atno 8539 bound_to 1086
  -14.6720  -30.6822  -26.9187 LP  0  0  0  0  0  0  0  0  0  0  0  0  # atno 8540 bound_to 1089
  -13.4726  -29.8017  -27.8053 LP  0  0  0  0  0  0  0  0  0  0  0  0  # atno 8541 bound_to 1089
  -12.5949  -31.4003  -24.5439 LP  0  0  0  0  0  0  0  0  0  0  0  0  # atno 8542 bound_to 1106
  -13.0504  -25.7495  -37.2951 LP  0  0  0  0  0  0  0  0  0  0  0  0  # atno 8543 bound_to 2193
  -15.0985  -28.4168  -36.5115 LP  0  0  0  0  0  0  0  0  0  0  0  0  # atno 8544 bound_to 2229
  -16.4825  -30.5814  -32.6150 LP  0  0  0  0  0  0  0  0  0  0  0  0  # atno 8545 bound_to 2232
  -15.2318  -30.3199  -33.7843 LP  0  0  0  0  0  0  0  0  0  0  0  0  # atno 8546 bound_to 2232
  -16.2299  -31.4384  -28.4925 LP  0  0  0  0  0  0  0  0  0  0  0  0  # atno 8547 bound_to 2713
  -14.2616  -33.1495  -29.3103 LP  0  0  0  0  0  0  0  0  0  0  0  0  # atno 8548 bound_to 2716
  -13.0618  -31.9080  -29.1723 LP  0  0  0  0  0  0  0  0  0  0  0  0  # atno 8549 bound_to 2716
  -14.1876  -31.4864  -30.9170 LP  0  0  0  0  0  0  0  0  0  0  0  0  # atno 8550 bound_to 2750
  -11.9387  -30.8707  -30.5852 LP  0  0  0  0  0  0  0  0  0  0  0  0  # atno 8551 bound_to 2753
  -11.2380  -30.6590  -32.1550 LP  0  0  0  0  0  0  0  0  0  0  0  0  # atno 8552 bound_to 2753
  -11.7371  -32.7187  -31.4048 LP  0  0  0  0  0  0  0  0  0  0  0  0  # atno 8557 bound_to 2774
   -9.9204  -33.2444  -34.1114 LP  0  0  0  0  0  0  0  0  0  0  0  0  # atno 8558 bound_to 2777
   -8.6143  -34.3140  -33.7239 LP  0  0  0  0  0  0  0  0  0  0  0  0  # atno 8559 bound_to 2777
   -7.8907  -31.9231  -31.5189 LP  0  0  0  0  0  0  0  0  0  0  0  0  # atno 8560 bound_to 2811
   -5.6112  -31.1507  -31.0664 LP  0  0  0  0  0  0  0  0  0  0  0  0  # atno 8561 bound_to 2814
   -5.6797  -29.6634  -31.9514 LP  0  0  0  0  0  0  0  0  0  0  0  0  # atno 8562 bound_to 2814
   -5.4827  -31.1913  -33.2594 LP  0  0  0  0  0  0  0  0  0  0  0  0  # atno 8563 bound_to 2843
   -8.5134  -23.9054  -20.9847 LP  0  0  0  0  0  0  0  0  0  0  0  0  # atno 8564 bound_to 466 
   -6.9700  -24.6633  -20.7765 LP  0  0  0  0  0  0  0  0  0  0  0  0  # atno 8565 bound_to 466 
   -6.2773  -22.2815  -21.9158 LP  0  0  0  0  0  0  0  0  0  0  0  0  # atno 8566 bound_to 482 
   -8.9917  -19.2490  -23.3592 LP  0  0  0  0  0  0  0  0  0  0  0  0  # atno 8567 bound_to 485 
   -7.3453  -19.3266  -22.8269 LP  0  0  0  0  0  0  0  0  0  0  0  0  # atno 8568 bound_to 485 
  -10.0098  -20.4679  -21.1866 LP  0  0  0  0  0  0  0  0  0  0  0  0  # atno 8569 bound_to 521 
  -13.9249  -19.9382  -22.1434 LP  0  0  0  0  0  0  0  0  0  0  0  0  # atno 8570 bound_to 602 
  -12.7251  -21.0229  -21.9183 LP  0  0  0  0  0  0  0  0  0  0  0  0  # atno 8571 bound_to 602 
  -12.3266  -22.2512  -19.9854 LP  0  0  0  0  0  0  0  0  0  0  0  0  # atno 8572 bound_to 620 
  -12.7271  -25.6139  -21.9872 LP  0  0  0  0  0  0  0  0  0  0  0  0  # atno 8573 bound_to 623 
  -13.1363  -25.2367  -20.3470 LP  0  0  0  0  0  0  0  0  0  0  0  0  # atno 8574 bound_to 623 
  -10.0352  -25.5270  -20.6827 LP  0  0  0  0  0  0  0  0  0  0  0  0  # atno 8575 bound_to 652 
  -12.7315  -29.0258  -22.2228 LP  0  0  0  0  0  0  0  0  0  0  0  0  # atno 8576 bound_to 1109
  -12.3235  -27.5271  -22.9893 LP  0  0  0  0  0  0  0  0  0  0  0  0  # atno 8577 bound_to 1109
  -13.8129  -27.7565  -24.8365 LP  0  0  0  0  0  0  0  0  0  0  0  0  # atno 8578 bound_to 1130
  -17.1112  -27.4911  -22.9624 LP  0  0  0  0  0  0  0  0  0  0  0  0  # atno 8579 bound_to 1133
  -17.5524  -25.8968  -22.4492 LP  0  0  0  0  0  0  0  0  0  0  0  0  # atno 8580 bound_to 1133
  -15.1139  -26.8492  -21.8786 LP  0  0  0  0  0  0  0  0  0  0  0  0  # atno 8581 bound_to 1173
  -16.4525  -28.0079  -25.1420 LP  0  0  0  0  0  0  0  0  0  0  0  0  # atno 8586 bound_to 2637
  -16.0183  -28.7973  -26.6213 LP  0  0  0  0  0  0  0  0  0  0  0  0  # atno 8587 bound_to 2637
  -11.7608  -19.3514  -33.6464 LP  0  0  0  0  0  0  0  0  0  0  0  0  # atno 8588 bound_to 4741
  -11.0466  -20.1711  -34.9948 LP  0  0  0  0  0  0  0  0  0  0  0  0  # atno 8589 bound_to 4741
  -11.7174  -21.9594  -32.5273 LP  0  0  0  0  0  0  0  0  0  0  0  0  # atno 8590 bound_to 4761
  -12.6906  -17.7467  -31.8352 LP  0  0  0  0  0  0  0  0  0  0  0  0  # atno 8591 bound_to 4764
  -13.5369  -17.8501  -33.3429 LP  0  0  0  0  0  0  0  0  0  0  0  0  # atno 8592 bound_to 4764
  -15.2295  -20.4467  -31.5532 LP  0  0  0  0  0  0  0  0  0  0  0  0  # atno 8597 bound_to 4788
  -16.4763  -17.7540  -31.2296 LP  0  0  0  0  0  0  0  0  0  0  0  0  # atno 8598 bound_to 4821
   -7.7067  -31.5287  -22.8776 LP  0  0  0  0  0  0  0  0  0  0  0  0  # atno 8599 bound_to 736 
  -11.4284  -37.9269  -29.8036 LP  0  0  0  0  0  0  0  0  0  0  0  0  # atno 8600 bound_to 1021
  -12.5773  -36.6485  -29.5897 LP  0  0  0  0  0  0  0  0  0  0  0  0  # atno 8601 bound_to 1021
  -10.9779  -36.5413  -27.5363 LP  0  0  0  0  0  0  0  0  0  0  0  0  # atno 8602 bound_to 1051
   -0.9015  -32.7531  -33.0728 LP  0  0  0  0  0  0  0  0  0  0  0  0  # atno 8603 bound_to 2846
   -1.1816  -31.3504  -32.0961 LP  0  0  0  0  0  0  0  0  0  0  0  0  # atno 8604 bound_to 2846
   -4.0653  -33.4654  -35.0818 LP  0  0  0  0  0  0  0  0  0  0  0  0  # atno 8605 bound_to 2849
   -3.8889  -35.0725  -34.8521 LP  0  0  0  0  0  0  0  0  0  0  0  0  # atno 8606 bound_to 2849
   -2.8506  -30.7150  -33.5591 LP  0  0  0  0  0  0  0  0  0  0  0  0  # atno 8607 bound_to 2868
   -2.4879  -29.0965  -33.1441 LP  0  0  0  0  0  0  0  0  0  0  0  0  # atno 8608 bound_to 2882
   -4.6270  -29.2103  -35.9410 LP  0  0  0  0  0  0  0  0  0  0  0  0  # atno 8609 bound_to 4403
   -3.1937  -30.1478  -36.1989 LP  0  0  0  0  0  0  0  0  0  0  0  0  # atno 8610 bound_to 4403
  -10.6131  -23.0127  -36.3080 LP  0  0  0  0  0  0  0  0  0  0  0  0  # atno 8611 bound_to 4738
  -18.2960  -17.3094  -32.4272 LP  0  0  0  0  0  0  0  0  0  0  0  0  # atno 8612 bound_to 4791
  -18.6481  -17.8470  -30.8187 LP  0  0  0  0  0  0  0  0  0  0  0  0  # atno 8613 bound_to 4791
   -6.2990  -28.6439  -22.0832 LP  0  0  0  0  0  0  0  0  0  0  0  0  # atno 8614 bound_to 429 
   -3.4663  -25.6989  -24.5655 LP  0  0  0  0  0  0  0  0  0  0  0  0  # atno 8615 bound_to 432 
   -4.7986  -24.9873  -25.4134 LP  0  0  0  0  0  0  0  0  0  0  0  0  # atno 8616 bound_to 432 
   -6.3539  -25.8520  -23.8526 LP  0  0  0  0  0  0  0  0  0  0  0  0  # atno 8617 bound_to 463 
   -8.2151  -26.9495  -20.8535 LP  0  0  0  0  0  0  0  0  0  0  0  0  # atno 8618 bound_to 655 
   -7.5676  -27.5094  -22.3592 LP  0  0  0  0  0  0  0  0  0  0  0  0  # atno 8619 bound_to 655 
   -9.5522  -27.9409  -22.3758 LP  0  0  0  0  0  0  0  0  0  0  0  0  # atno 8620 bound_to 688 
   -1.2209  -25.6076  -33.5513 LP  0  0  0  0  0  0  0  0  0  0  0  0  # atno 8623 bound_to 2901
   -5.1250  -21.4541  -32.8387 LP  0  0  0  0  0  0  0  0  0  0  0  0  # atno 8626 bound_to 4270
   -5.2133  -20.5717  -31.3509 LP  0  0  0  0  0  0  0  0  0  0  0  0  # atno 8627 bound_to 4270
   -3.0361  -26.5508  -34.8627 LP  0  0  0  0  0  0  0  0  0  0  0  0  # atno 8628 bound_to 2885
   -1.6720  -25.7019  -35.5098 LP  0  0  0  0  0  0  0  0  0  0  0  0  # atno 8629 bound_to 2885
   -5.2560  -19.0595  -34.5198 LP  0  0  0  0  0  0  0  0  0  0  0  0  # atno 8632 bound_to 4296
   -8.5463  -21.9480  -35.5752 LP  0  0  0  0  0  0  0  0  0  0  0  0  # atno 8633 bound_to 4299
   -9.3338  -20.4291  -35.3054 LP  0  0  0  0  0  0  0  0  0  0  0  0  # atno 8634 bound_to 4299
   -6.9274  -19.9045  -35.8707 LP  0  0  0  0  0  0  0  0  0  0  0  0  # atno 8635 bound_to 4324
   -3.6466  -21.9445  -36.5122 LP  0  0  0  0  0  0  0  0  0  0  0  0  # atno 8636 bound_to 4327
   -3.8438  -23.1102  -35.2464 LP  0  0  0  0  0  0  0  0  0  0  0  0  # atno 8637 bound_to 4327
   -6.6848  -23.6421  -35.9372 LP  0  0  0  0  0  0  0  0  0  0  0  0  # atno 8638 bound_to 4362
  -15.7970  -26.2803  -36.5812 LP  0  0  0  0  0  0  0  0  0  0  0  0  # atno 8639 bound_to 2196
  -16.4658  -27.0326  -35.1716 LP  0  0  0  0  0  0  0  0  0  0  0  0  # atno 8640 bound_to 2196
  -12.1781  -24.6671  -36.2376 LP  0  0  0  0  0  0  0  0  0  0  0  0  # atno 8641 bound_to 4706
  -13.0288  -23.9145  -37.5452 LP  0  0  0  0  0  0  0  0  0  0  0  0  # atno 8642 bound_to 4706
   -3.2926  -28.9849  -20.5938 LP  0  0  0  0  0  0  0  0  0  0  0  0  # atno 8647 bound_to 403 
   -3.3329  -28.4983  -22.2556 LP  0  0  0  0  0  0  0  0  0  0  0  0  # atno 8648 bound_to 403 
    0.6518  -28.8966  -35.4654 LP  0  0  0  0  0  0  0  0  0  0  0  0  # atno 8651 bound_to 2871
    0.4184  -27.6436  -34.2926 LP  0  0  0  0  0  0  0  0  0  0  0  0  # atno 8652 bound_to 2871
    0.9158  -23.2367  -34.2252 LP  0  0  0  0  0  0  0  0  0  0  0  0  # atno 8653 bound_to 2904
    0.6676  -24.1945  -35.6469 LP  0  0  0  0  0  0  0  0  0  0  0  0  # atno 8654 bound_to 2904
   -7.6189  -24.3384  -37.5369 LP  0  0  0  0  0  0  0  0  0  0  0  0  # atno 8655 bound_to 4663
   -9.0302  -24.1832  -36.5450 LP  0  0  0  0  0  0  0  0  0  0  0  0  # atno 8656 bound_to 4663
   -3.4247  -25.9159  -37.0018 LP  0  0  0  0  0  0  0  0  0  0  0  0  # atno 8657 bound_to 4400

> <Gold.Score>
     Fitness  S(hb_ext) S(vdw_ext)  S(hb_int)    S(int)      intcor
     34.25       7.52      19.55       0.00      -0.15      -0.78

> <Gold.Goldscore.Fitness>
34.2532

> <Gold.Goldscore.Internal.Vdw>
-0.3792

> <Gold.Goldscore.Internal.Torsion>
-0.5508

> <Gold.Goldscore.External.Vdw>
19.5504

> <Gold.Goldscore.Internal.HBond>
0.0000

> <Gold.Goldscore.External.HBond>
7.5176

> <Gold.Goldscore.Internal.Correction>
-0.7838

> <Gold.Goldscore.Hbonds>
donor molecule, donor type, donor heavy atom, donor atom, acceptor molecule, acceptor atom, score
      P1  H   481   498       L1    17  0.92
      L1  H     8    22       P1   432  1.00

> <Gold.Goldscore.Internal.Vdw.Weighted>
-0.3792

> <Gold.Goldscore.Internal.Torsion.Weighted>
-0.5508

> <Gold.Goldscore.External.Vdw.Weighted>
26.8818

> <Gold.Goldscore.Internal.HBond.Weighted>
0.0000

> <Gold.Goldscore.External.HBond.Weighted>
7.5176

> <Gold.Goldscore.Internal.Correction.Weighted>
-0.7838

> <Gold.Rescore>
     Score     S(PLP)   S(hbond)     S(cho)   S(metal)  DE(clash)   DE(tors)     intcor
     28.94     -24.65       1.47       0.00       0.00       0.00       0.06       ----

> <Gold.PLP.Fitness>
28.9387

> <Gold.PLP.PLP>
-24.6464

> <Gold.PLP.part.hbond>
-1.6814

> <Gold.PLP.part.metal>
0.0000

> <Gold.PLP.part.buried>
-2.1151

> <Gold.PLP.part.nonpolar>
-22.1607

> <Gold.PLP.part.repulsive>
0.3481

> <Gold.PLP.ligand.clash>
0.0000

> <Gold.PLP.ligand.torsion>
0.0551

> <Gold.PLP.Chemscore.Hbond>
1.4675

> <Gold.PLP.Chemscore.CHOScore>
0.0000

> <Gold.PLP.Chemscore.Metal>
0.0000

> <Gold.Chemscore.Hbonds>
donor molecule, donor type, donor heavy atom, donor atom, acceptor molecule, acceptor atom, score
      L1  H     8    22       P1   432  1.00
      P1  H   481   498       L1    17  0.84

> <Gold.PLP.Chemscore.Internal.Correction>
   9.000000E+99

