#       Name:                CT1002167954
#       Creating user name   hitesit
#       Creation time:       Sun Apr 16 02:22:20 2023


#       File generated by GOLD software.
#

@<TRIPOS>MOLECULE
CT1002167954|ligand_prepared|mol2|1|dock7
    29    30     1
SMALL
NO_CHARGES


@<TRIPOS>ATOM
      1 C1          -4.2224 -26.6101 -28.9163 C.3            1 RES1               0.0000
      2 C2          -5.5088 -25.7597 -28.9436 C.ar           1 RES1               0.0000
      3 C3          -3.5379 -26.3949 -30.2629 C.2            1 RES1               0.0000
      4 C4          -3.4123 -26.1200 -27.7212 C.2            1 RES1               0.0000
      5 C5          -4.4781 -28.1241 -28.7317 C.3            1 RES1               0.0000
      6 C6          -5.4407 -24.3703 -28.9031 C.ar           1 RES1               0.0000
      7 C7          -6.7684 -26.3491 -29.0116 C.ar           1 RES1               0.0000
      8 N8          -2.4198 -25.6143 -30.2858 N.am           1 RES1               0.0000
      9 O9          -3.9947 -26.8704 -31.2952 O.2            1 RES1               0.0000
     10 N10         -2.2122 -25.5060 -27.9674 N.am           1 RES1               0.0000
     11 O11         -3.8101 -26.2452 -26.5696 O.2            1 RES1               0.0000
     12 C12         -3.2096 -28.9422 -28.5484 C.3            1 RES1               0.0000
     13 C13         -6.5900 -23.5979 -28.9327 C.ar           1 RES1               0.0000
     14 C14         -7.9165 -25.5748 -29.0408 C.ar           1 RES1               0.0000
     15 C15         -1.6937 -25.2034 -29.1969 C.2            1 RES1               0.0000
     16 C16         -7.8285 -24.1995 -29.0019 C.ar           1 RES1               0.0000
     17 O17         -0.6335 -24.6005 -29.3370 O.2            1 RES1               0.0000
     18 H18         -5.1216 -28.2692 -27.8552 H              1 RES1               0.0000
     19 H19         -5.0173 -28.5008 -29.6096 H              1 RES1               0.0000
     20 H20         -4.4750 -23.8791 -28.8461 H              1 RES1               0.0000
     21 H21         -6.8618 -27.4293 -29.0420 H              1 RES1               0.0000
     22 H22         -2.0936 -25.3075 -31.1967 H              1 RES1               0.0000
     23 H23         -1.6536 -25.2509 -27.1591 H              1 RES1               0.0000
     24 H24         -3.4455 -29.9969 -28.4232 H              1 RES1               0.0000
     25 H25         -2.5571 -28.8413 -29.4132 H              1 RES1               0.0000
     26 H26         -2.6607 -28.6111 -27.6692 H              1 RES1               0.0000
     27 H27         -6.5154 -22.5159 -28.9005 H              1 RES1               0.0000
     28 H28         -8.8891 -26.0526 -29.0947 H              1 RES1               0.0000
     29 H29         -8.7286 -23.5942 -29.0254 H              1 RES1               0.0000
@<TRIPOS>BOND
    1    1    2 1     
    2    1    3 1     
    3    1    4 1     
    4    1    5 1     
    5    2    6 ar    
    6    2    7 ar    
    7    3    8 1     
    8    3    9 2     
    9    4   10 1     
   10    4   11 2     
   11    5   12 1     
   12    5   18 1     
   13    5   19 1     
   14    6   13 ar    
   15    6   20 1     
   16    7   14 ar    
   17    7   21 1     
   18    8   15 1     
   19    8   22 1     
   20   10   15 1     
   21   10   23 1     
   22   12   24 1     
   23   12   25 1     
   24   12   26 1     
   25   13   16 ar    
   26   13   27 1     
   27   14   16 ar    
   28   14   28 1     
   29   15   17 2     
   30   16   29 1     
@<TRIPOS>SUBSTRUCTURE
      1 RES1           1
@<TRIPOS>SET
DONOR_HYDROGENS      STATIC     ATOMS    <user>   **** ""
2 22 23
ATOM$RED        STATIC     ATOMS    COLORGROUP SYSTEM
2 22 23
@<TRIPOS>COMMENT
> <Gold.Version>
2022.3.0

> <Gold.Id.Protein>
unknown|7kl0_clean|pdb

> <Gold.Protein.RotatedTorsions>
[ 1096 1086 1087 1088 ] final  -35.52 input   77.66 | X-H torsion
[ 1116 1106 1107 1108 ] final  -29.10 input   75.39 | X-H torsion
[ 2209 2193 2194 2195 ] final    5.17 input  128.07 | X-H torsion
[ 2253 2229 2230 2231 ] final  -64.11 input   94.48 | X-H torsion
[ 2733 2713 2714 2715 ] final -125.66 input   74.45 | X-H torsion
[ 2762 2750 2751 2752 ] final   16.58 input  128.15 | X-H torsion
[ 2793 2774 2775 2776 ] final  113.42 input  106.68 | X-H torsion
[ 2827 2811 2812 2813 ] final -143.86 input   64.81 | X-H torsion
[ 2857 2843 2844 2845 ] final   69.14 input   70.34 | X-H torsion
[  504  482  483  484 ] final  132.56 input   40.33 | X-H torsion
[  528  521  522  523 ] final -173.26 input   38.54 | X-H torsion
[  612  602  601  598 ] final  123.73 input   59.99 | X-H torsion
[  636  620  621  622 ] final -139.44 input   33.60 | X-H torsion
[  668  652  653  654 ] final -165.94 input   67.24 | X-H torsion
[ 1152 1130 1131 1132 ] final   10.05 input  101.11 | X-H torsion
[ 1162 1138 1137 1136 ] final -107.55 input   59.97 | X-H torsion
[ 1189 1173 1174 1175 ] final -126.73 input   74.99 | X-H torsion
[ 4769 4761 4762 4763 ] final -156.03 input -116.16 | X-H torsion
[ 4799 4788 4789 4790 ] final -163.53 input   84.75 | X-H torsion
[ 4825 4821 4822 4823 ] final   17.17 input  114.67 | X-H torsion
[  760  736  737  738 ] final  142.06 input  123.93 | X-H torsion
[ 1072 1051 1052 1053 ] final  -30.33 input   37.12 | X-H torsion
[ 2863 2849 2847 2844 ] final  145.84 input   59.99 | X-H torsion
[ 2875 2868 2869 2870 ] final  177.59 input   94.70 | X-H torsion
[ 2889 2882 2883 2884 ] final -132.05 input -101.73 | X-H torsion
[ 4743 4738 4739 4740 ] final   51.99 input   44.52 | X-H torsion
[  447  429  430  431 ] final  179.34 input   69.31 | X-H torsion
[  470  463  464  465 ] final  147.10 input   13.24 | X-H torsion
[  712  688  689  690 ] final -179.84 input   42.22 | X-H torsion
[ 2916 2901 2902 2903 ] final   25.53 input  112.69 | X-H torsion
[ 4310 4296 4297 4298 ] final  -11.68 input   86.41 | X-H torsion
[ 4343 4324 4325 4326 ] final  115.40 input   71.41 | X-H torsion
[ 4381 4362 4363 4364 ] final   36.14 input   70.60 | X-H torsion
[ 4419 4400 4401 4402 ] final   69.21 input   92.71 | X-H torsion
[  790  779  780  781 ] final    8.09 input   42.63 | X-H torsion
[ 4847 4839 4840 4841 ] final  111.77 input   74.58 | X-H torsion
[ 2649 2634 2635 2636 ] final   20.54 input   83.10 | X-H torsion
[ 2946 2930 2931 2932 ] final  117.59 input  126.41 | X-H torsion
[ 4496 4485 4484 4483 ] final   53.74 input   60.01 | X-H torsion
[ 8535  691  690  689 ] final   42.72 input    0.00 | X-H torsion
[ 8537 1054 1053 1052 ] final   32.99 input    0.00 | X-H torsion
[ 8540 1089 1088 1087 ] final  118.46 input    0.00 | X-H torsion
[ 8545 2232 2231 2230 ] final   42.16 input    0.00 | X-H torsion
[ 8548 2716 2715 2714 ] final   19.64 input    0.00 | X-H torsion
[ 8551 2753 2752 2751 ] final    7.29 input    0.00 | X-H torsion
[ 8558 2777 2776 2775 ] final  -82.41 input    0.00 | X-H torsion
[ 8561 2814 2813 2812 ] final  -65.70 input    0.00 | X-H torsion
[ 8564  466  465  464 ] final   41.25 input   -0.00 | X-H torsion
[ 8567  485  484  483 ] final  167.67 input    0.00 | X-H torsion
[ 8573  623  622  621 ] final   88.87 input    0.00 | X-H torsion
[ 8576 1109 1108 1107 ] final  174.88 input   -0.00 | X-H torsion
[ 8579 1133 1132 1131 ] final  130.79 input    0.00 | X-H torsion
[ 8586 2637 2636 2635 ] final   70.26 input    0.00 | X-H torsion
[ 8588 4741 4740 4739 ] final   88.56 input    0.00 | X-H torsion
[ 8591 4764 4763 4762 ] final  151.73 input    0.00 | X-H torsion
[ 8600 1021 1020 1019 ] final  -66.87 input    0.00 | X-H torsion
[ 8603 2846 2845 2844 ] final  125.22 input   -0.00 | X-H torsion
[ 8609 4403 4402 4401 ] final   -2.92 input    0.00 | X-H torsion
[ 8612 4791 4790 4789 ] final  127.88 input    0.00 | X-H torsion
[ 8615  432  431  430 ] final  -17.19 input    0.00 | X-H torsion
[ 8618  655  654  653 ] final   60.05 input    0.00 | X-H torsion
[ 8626 4270 4269 4268 ] final  -96.17 input    0.00 | X-H torsion
[ 8628 2885 2884 2883 ] final  175.29 input    0.00 | X-H torsion
[ 8633 4299 4298 4297 ] final   61.28 input    0.00 | X-H torsion
[ 8636 4327 4326 4325 ] final -128.73 input    0.00 | X-H torsion
[ 8639 2196 2195 2194 ] final -127.19 input    0.00 | X-H torsion
[ 8641 4706 4705 4704 ] final -145.36 input    0.00 | X-H torsion
[ 8647  403  402  401 ] final   65.56 input    0.00 | X-H torsion
[ 8651 2871 2870 2869 ] final  -91.01 input    0.00 | X-H torsion
[ 8653 2904 2903 2902 ] final  -99.10 input    0.00 | X-H torsion
[ 8655 4663 4662 4661 ] final  -21.52 input    0.00 | X-H torsion

> <Gold.Protein.ActiveResidues>
 GLU18   LEU19   GLY20   LYS21   GLY22   SER25   VAL26   VAL27   ARG28   ARG29  
 CYS30   GLU38   TYR39   ALA40   ALA41   LYS42   ILE43   ILE44   GLU60   CYS64  
 VAL73   ARG74   LEU75   LEU87   ILE88   PHE89   ASP90   LEU91   VAL92   THR93  
 GLY94   GLY95   GLU96   LEU97   GLU99   GLU139  ASN140  LEU141  LEU142  LEU143 
 LYS146  LYS153  LEU154  ALA155  ASP156  PHE157  GLY158  LEU159 

> <Gold.Protein.RotatedAtoms>
   -5.8337  -28.7951  -21.9868 H   0  0  0  0  0  0  0  0  0  0  0  0  # atno 447  bound_to 429 
   -6.0455  -25.7891  -23.9559 H   0  0  0  0  0  0  0  0  0  0  0  0  # atno 470  bound_to 463 
   -6.1949  -22.0822  -21.9413 H   0  0  0  0  0  0  0  0  0  0  0  0  # atno 504  bound_to 482 
   -9.3372  -20.0413  -21.6687 H   0  0  0  0  0  0  0  0  0  0  0  0  # atno 528  bound_to 521 
  -13.0972  -20.9599  -22.2462 H   0  0  0  0  0  0  0  0  0  0  0  0  # atno 612  bound_to 602 
  -12.1478  -22.1760  -19.3980 H   0  0  0  0  0  0  0  0  0  0  0  0  # atno 636  bound_to 620 
  -10.9376  -24.5573  -21.6625 H   0  0  0  0  0  0  0  0  0  0  0  0  # atno 668  bound_to 652 
   -9.9783  -27.9219  -21.6502 H   0  0  0  0  0  0  0  0  0  0  0  0  # atno 712  bound_to 688 
   -7.6745  -31.5620  -22.8744 H   0  0  0  0  0  0  0  0  0  0  0  0  # atno 760  bound_to 736 
  -10.4422  -35.0037  -24.1280 H   0  0  0  0  0  0  0  0  0  0  0  0  # atno 790  bound_to 779 
  -10.8779  -36.2175  -26.8880 H   0  0  0  0  0  0  0  0  0  0  0  0  # atno 1072 bound_to 1051
  -12.6150  -33.1383  -26.9970 H   0  0  0  0  0  0  0  0  0  0  0  0  # atno 1096 bound_to 1086
  -12.3411  -29.9048  -25.3356 H   0  0  0  0  0  0  0  0  0  0  0  0  # atno 1116 bound_to 1106
  -15.2240  -28.2590  -23.9395 H   0  0  0  0  0  0  0  0  0  0  0  0  # atno 1152 bound_to 1130
  -15.5740  -19.6628  -25.7339 H   0  0  0  0  0  0  0  0  0  0  0  0  # atno 1162 bound_to 1138
  -16.8420  -20.6996  -25.4802 H   0  0  0  0  0  0  0  0  0  0  0  0  # atno 1163 bound_to 1138
  -16.4019  -19.6231  -24.2996 H   0  0  0  0  0  0  0  0  0  0  0  0  # atno 1164 bound_to 1138
  -15.4862  -26.5856  -22.0352 H   0  0  0  0  0  0  0  0  0  0  0  0  # atno 1189 bound_to 1173
  -14.2026  -26.3859  -37.8494 H   0  0  0  0  0  0  0  0  0  0  0  0  # atno 2209 bound_to 2193
  -15.0538  -28.2883  -35.6743 H   0  0  0  0  0  0  0  0  0  0  0  0  # atno 2253 bound_to 2229
  -18.1558  -27.9144  -23.8104 H   0  0  0  0  0  0  0  0  0  0  0  0  # atno 2649 bound_to 2634
  -16.8570  -30.5119  -28.6905 H   0  0  0  0  0  0  0  0  0  0  0  0  # atno 2733 bound_to 2713
  -13.9793  -31.0342  -31.4134 H   0  0  0  0  0  0  0  0  0  0  0  0  # atno 2762 bound_to 2750
  -11.4900  -34.4056  -31.5127 H   0  0  0  0  0  0  0  0  0  0  0  0  # atno 2793 bound_to 2774
   -9.0499  -32.3228  -32.6804 H   0  0  0  0  0  0  0  0  0  0  0  0  # atno 2827 bound_to 2811
   -5.1384  -32.2020  -34.5898 H   0  0  0  0  0  0  0  0  0  0  0  0  # atno 2857 bound_to 2843
   -2.9104  -34.9240  -34.8254 H   0  0  0  0  0  0  0  0  0  0  0  0  # atno 2863 bound_to 2849
   -2.9597  -31.7685  -34.9185 H   0  0  0  0  0  0  0  0  0  0  0  0  # atno 2875 bound_to 2868
   -2.3627  -29.1720  -33.0291 H   0  0  0  0  0  0  0  0  0  0  0  0  # atno 2889 bound_to 2882
   -0.4707  -25.1985  -33.1631 H   0  0  0  0  0  0  0  0  0  0  0  0  # atno 2916 bound_to 2901
   -2.4775  -22.5064  -35.8917 H   0  0  0  0  0  0  0  0  0  0  0  0  # atno 2946 bound_to 2930
   -5.1989  -19.4699  -34.3037 H   0  0  0  0  0  0  0  0  0  0  0  0  # atno 4310 bound_to 4296
   -5.8858  -19.7664  -35.9667 H   0  0  0  0  0  0  0  0  0  0  0  0  # atno 4343 bound_to 4324
   -6.5453  -24.1478  -37.2350 H   0  0  0  0  0  0  0  0  0  0  0  0  # atno 4381 bound_to 4362
   -3.4038  -26.9664  -36.0691 H   0  0  0  0  0  0  0  0  0  0  0  0  # atno 4419 bound_to 4400
   -0.1078  -33.5023  -33.2887 H   0  0  0  0  0  0  0  0  0  0  0  0  # atno 4496 bound_to 4485
   -0.1670  -34.6663  -32.1106 H   0  0  0  0  0  0  0  0  0  0  0  0  # atno 4497 bound_to 4485
    0.2418  -33.1096  -31.7168 H   0  0  0  0  0  0  0  0  0  0  0  0  # atno 4498 bound_to 4485
  -10.3195  -21.6453  -35.8637 H   0  0  0  0  0  0  0  0  0  0  0  0  # atno 4743 bound_to 4738
  -12.3279  -22.3802  -32.1636 H   0  0  0  0  0  0  0  0  0  0  0  0  # atno 4769 bound_to 4761
  -14.3960  -19.9840  -32.8648 H   0  0  0  0  0  0  0  0  0  0  0  0  # atno 4799 bound_to 4788
  -15.7328  -17.3871  -31.0907 H   0  0  0  0  0  0  0  0  0  0  0  0  # atno 4825 bound_to 4821
  -15.3130  -15.5350  -30.4739 H   0  0  0  0  0  0  0  0  0  0  0  0  # atno 4847 bound_to 4839
  -11.1967  -30.4124  -23.5173 LP  0  0  0  0  0  0  0  0  0  0  0  0  # atno 8535 bound_to 691 
  -11.1878  -32.1222  -23.2410 LP  0  0  0  0  0  0  0  0  0  0  0  0  # atno 8536 bound_to 691 
  -10.5027  -34.9946  -25.8914 LP  0  0  0  0  0  0  0  0  0  0  0  0  # atno 8537 bound_to 1054
  -10.9143  -33.5027  -25.1136 LP  0  0  0  0  0  0  0  0  0  0  0  0  # atno 8538 bound_to 1054
  -11.3184  -32.8828  -28.1563 LP  0  0  0  0  0  0  0  0  0  0  0  0  # atno 8539 bound_to 1086
  -14.6286  -30.8053  -27.0111 LP  0  0  0  0  0  0  0  0  0  0  0  0  # atno 8540 bound_to 1089
  -13.5160  -29.6786  -27.7130 LP  0  0  0  0  0  0  0  0  0  0  0  0  # atno 8541 bound_to 1089
  -12.8183  -31.5177  -24.8325 LP  0  0  0  0  0  0  0  0  0  0  0  0  # atno 8542 bound_to 1106
  -12.4522  -26.4180  -37.7266 LP  0  0  0  0  0  0  0  0  0  0  0  0  # atno 8543 bound_to 2193
  -14.6190  -29.8368  -36.3642 LP  0  0  0  0  0  0  0  0  0  0  0  0  # atno 8544 bound_to 2229
  -15.2138  -30.0623  -33.6300 LP  0  0  0  0  0  0  0  0  0  0  0  0  # atno 8545 bound_to 2232
  -16.5006  -30.8389  -32.7693 LP  0  0  0  0  0  0  0  0  0  0  0  0  # atno 8546 bound_to 2232
  -15.2419  -30.7167  -28.0354 LP  0  0  0  0  0  0  0  0  0  0  0  0  # atno 8547 bound_to 2713
  -14.2263  -32.2012  -28.6722 LP  0  0  0  0  0  0  0  0  0  0  0  0  # atno 8548 bound_to 2716
  -13.0971  -32.8562  -29.8105 LP  0  0  0  0  0  0  0  0  0  0  0  0  # atno 8549 bound_to 2716
  -15.2651  -32.1321  -31.8682 LP  0  0  0  0  0  0  0  0  0  0  0  0  # atno 8550 bound_to 2750
  -12.4139  -30.5642  -31.5383 LP  0  0  0  0  0  0  0  0  0  0  0  0  # atno 8551 bound_to 2753
  -10.7628  -30.9654  -31.2019 LP  0  0  0  0  0  0  0  0  0  0  0  0  # atno 8552 bound_to 2753
  -11.6516  -32.6798  -31.7837 LP  0  0  0  0  0  0  0  0  0  0  0  0  # atno 8557 bound_to 2774
   -8.6812  -34.3688  -33.6751 LP  0  0  0  0  0  0  0  0  0  0  0  0  # atno 8558 bound_to 2777
   -9.8534  -33.1896  -34.1602 LP  0  0  0  0  0  0  0  0  0  0  0  0  # atno 8559 bound_to 2777
   -8.0682  -31.4988  -31.4837 LP  0  0  0  0  0  0  0  0  0  0  0  0  # atno 8560 bound_to 2811
   -5.8161  -29.6659  -31.9232 LP  0  0  0  0  0  0  0  0  0  0  0  0  # atno 8561 bound_to 2814
   -5.4747  -31.1481  -31.0946 LP  0  0  0  0  0  0  0  0  0  0  0  0  # atno 8562 bound_to 2814
   -5.6839  -31.4836  -33.0870 LP  0  0  0  0  0  0  0  0  0  0  0  0  # atno 8563 bound_to 2843
   -7.0097  -24.7472  -20.8760 LP  0  0  0  0  0  0  0  0  0  0  0  0  # atno 8564 bound_to 466 
   -8.4737  -23.8216  -20.8852 LP  0  0  0  0  0  0  0  0  0  0  0  0  # atno 8565 bound_to 466 
   -7.6893  -22.1929  -22.8560 LP  0  0  0  0  0  0  0  0  0  0  0  0  # atno 8566 bound_to 482 
   -8.9329  -18.8885  -23.1723 LP  0  0  0  0  0  0  0  0  0  0  0  0  # atno 8567 bound_to 485 
   -7.4041  -19.6871  -23.0139 LP  0  0  0  0  0  0  0  0  0  0  0  0  # atno 8568 bound_to 485 
   -9.5736  -19.8898  -19.9331 LP  0  0  0  0  0  0  0  0  0  0  0  0  # atno 8569 bound_to 521 
  -12.5787  -20.1545  -20.9305 LP  0  0  0  0  0  0  0  0  0  0  0  0  # atno 8570 bound_to 602 
  -13.8694  -19.6091  -21.7690 LP  0  0  0  0  0  0  0  0  0  0  0  0  # atno 8571 bound_to 602 
  -13.1739  -23.5733  -19.6855 LP  0  0  0  0  0  0  0  0  0  0  0  0  # atno 8572 bound_to 620 
  -13.0362  -24.7427  -21.6898 LP  0  0  0  0  0  0  0  0  0  0  0  0  # atno 8573 bound_to 623 
  -12.8272  -26.1079  -20.6445 LP  0  0  0  0  0  0  0  0  0  0  0  0  # atno 8574 bound_to 623 
   -9.5474  -25.3380  -20.9389 LP  0  0  0  0  0  0  0  0  0  0  0  0  # atno 8575 bound_to 652 
  -12.6119  -27.4181  -22.6847 LP  0  0  0  0  0  0  0  0  0  0  0  0  # atno 8576 bound_to 1109
  -12.4431  -29.1348  -22.5274 LP  0  0  0  0  0  0  0  0  0  0  0  0  # atno 8577 bound_to 1109
  -13.8965  -27.7130  -24.9440 LP  0  0  0  0  0  0  0  0  0  0  0  0  # atno 8578 bound_to 1130
  -17.2915  -27.3140  -22.1025 LP  0  0  0  0  0  0  0  0  0  0  0  0  # atno 8579 bound_to 1133
  -17.3721  -26.0739  -23.3090 LP  0  0  0  0  0  0  0  0  0  0  0  0  # atno 8580 bound_to 1133
  -14.2656  -25.5568  -21.3072 LP  0  0  0  0  0  0  0  0  0  0  0  0  # atno 8581 bound_to 1173
  -16.3792  -28.4994  -25.0331 LP  0  0  0  0  0  0  0  0  0  0  0  0  # atno 8586 bound_to 2637
  -16.0915  -28.3058  -26.7301 LP  0  0  0  0  0  0  0  0  0  0  0  0  # atno 8587 bound_to 2637
  -12.1336  -19.7111  -34.7841 LP  0  0  0  0  0  0  0  0  0  0  0  0  # atno 8588 bound_to 4741
  -10.6738  -19.8114  -33.8572 LP  0  0  0  0  0  0  0  0  0  0  0  0  # atno 8589 bound_to 4741
  -12.6465  -21.2766  -33.4954 LP  0  0  0  0  0  0  0  0  0  0  0  0  # atno 8590 bound_to 4761
  -13.7314  -17.7192  -33.1910 LP  0  0  0  0  0  0  0  0  0  0  0  0  # atno 8591 bound_to 4764
  -12.4962  -17.8776  -31.9872 LP  0  0  0  0  0  0  0  0  0  0  0  0  # atno 8592 bound_to 4764
  -14.9839  -19.9387  -31.2070 LP  0  0  0  0  0  0  0  0  0  0  0  0  # atno 8597 bound_to 4788
  -16.1025  -18.9600  -30.4092 LP  0  0  0  0  0  0  0  0  0  0  0  0  # atno 8598 bound_to 4821
   -9.3763  -31.4856  -22.4690 LP  0  0  0  0  0  0  0  0  0  0  0  0  # atno 8599 bound_to 736 
  -11.1574  -37.3605  -29.8695 LP  0  0  0  0  0  0  0  0  0  0  0  0  # atno 8600 bound_to 1021
  -12.8483  -37.2148  -29.5238 LP  0  0  0  0  0  0  0  0  0  0  0  0  # atno 8601 bound_to 1021
  -12.4043  -37.0392  -27.1677 LP  0  0  0  0  0  0  0  0  0  0  0  0  # atno 8602 bound_to 1051
   -0.6509  -32.2800  -33.3229 LP  0  0  0  0  0  0  0  0  0  0  0  0  # atno 8603 bound_to 2846
   -1.4321  -31.8235  -31.8460 LP  0  0  0  0  0  0  0  0  0  0  0  0  # atno 8604 bound_to 2846
   -3.1836  -33.3370  -35.0592 LP  0  0  0  0  0  0  0  0  0  0  0  0  # atno 8605 bound_to 2849
   -4.4370  -34.3801  -34.9726 LP  0  0  0  0  0  0  0  0  0  0  0  0  # atno 8606 bound_to 2849
   -3.0222  -30.5184  -33.6968 LP  0  0  0  0  0  0  0  0  0  0  0  0  # atno 8607 bound_to 2868
   -1.4496  -28.6080  -34.4129 LP  0  0  0  0  0  0  0  0  0  0  0  0  # atno 8608 bound_to 2882
   -3.4935  -28.9535  -35.8469 LP  0  0  0  0  0  0  0  0  0  0  0  0  # atno 8609 bound_to 4403
   -4.3272  -30.4046  -36.2930 LP  0  0  0  0  0  0  0  0  0  0  0  0  # atno 8610 bound_to 4403
  -11.4775  -22.7577  -36.5735 LP  0  0  0  0  0  0  0  0  0  0  0  0  # atno 8611 bound_to 4738
  -18.6899  -17.9986  -30.8978 LP  0  0  0  0  0  0  0  0  0  0  0  0  # atno 8612 bound_to 4791
  -18.2541  -17.1578  -32.3481 LP  0  0  0  0  0  0  0  0  0  0  0  0  # atno 8613 bound_to 4791
   -6.0289  -27.0928  -21.6115 LP  0  0  0  0  0  0  0  0  0  0  0  0  # atno 8614 bound_to 429 
   -3.6894  -26.0871  -24.9807 LP  0  0  0  0  0  0  0  0  0  0  0  0  # atno 8615 bound_to 432 
   -4.5755  -24.5991  -24.9982 LP  0  0  0  0  0  0  0  0  0  0  0  0  # atno 8616 bound_to 432 
   -6.0511  -25.7014  -22.2037 LP  0  0  0  0  0  0  0  0  0  0  0  0  # atno 8617 bound_to 463 
   -8.2170  -26.7232  -20.9837 LP  0  0  0  0  0  0  0  0  0  0  0  0  # atno 8618 bound_to 655 
   -7.5657  -27.7357  -22.2290 LP  0  0  0  0  0  0  0  0  0  0  0  0  # atno 8619 bound_to 655 
  -10.5975  -28.8129  -23.0254 LP  0  0  0  0  0  0  0  0  0  0  0  0  # atno 8620 bound_to 688 
   -2.0500  -25.2535  -32.4116 LP  0  0  0  0  0  0  0  0  0  0  0  0  # atno 8623 bound_to 2901
   -4.9463  -21.4566  -32.8044 LP  0  0  0  0  0  0  0  0  0  0  0  0  # atno 8626 bound_to 4270
   -5.3920  -20.5693  -31.3852 LP  0  0  0  0  0  0  0  0  0  0  0  0  # atno 8627 bound_to 4270
   -2.3899  -25.2639  -35.2564 LP  0  0  0  0  0  0  0  0  0  0  0  0  # atno 8628 bound_to 2885
   -2.3183  -26.9888  -35.1160 LP  0  0  0  0  0  0  0  0  0  0  0  0  # atno 8629 bound_to 2885
   -5.6929  -18.2165  -33.1749 LP  0  0  0  0  0  0  0  0  0  0  0  0  # atno 8632 bound_to 4296
   -9.2813  -20.4063  -35.5876 LP  0  0  0  0  0  0  0  0  0  0  0  0  # atno 8633 bound_to 4299
   -8.5988  -21.9707  -35.2930 LP  0  0  0  0  0  0  0  0  0  0  0  0  # atno 8634 bound_to 4299
   -6.7490  -20.8988  -34.9442 LP  0  0  0  0  0  0  0  0  0  0  0  0  # atno 8635 bound_to 4324
   -3.4402  -23.1386  -36.4116 LP  0  0  0  0  0  0  0  0  0  0  0  0  # atno 8636 bound_to 4327
   -4.0502  -21.9160  -35.3470 LP  0  0  0  0  0  0  0  0  0  0  0  0  # atno 8637 bound_to 4327
   -5.7710  -23.1649  -36.0086 LP  0  0  0  0  0  0  0  0  0  0  0  0  # atno 8638 bound_to 4362
  -16.4285  -27.0025  -35.1402 LP  0  0  0  0  0  0  0  0  0  0  0  0  # atno 8639 bound_to 2196
  -15.8342  -26.3104  -36.6126 LP  0  0  0  0  0  0  0  0  0  0  0  0  # atno 8640 bound_to 2196
  -13.0658  -23.8972  -36.2738 LP  0  0  0  0  0  0  0  0  0  0  0  0  # atno 8641 bound_to 4706
  -12.1412  -24.6844  -37.5089 LP  0  0  0  0  0  0  0  0  0  0  0  0  # atno 8642 bound_to 4706
   -3.5092  -29.5779  -21.3152 LP  0  0  0  0  0  0  0  0  0  0  0  0  # atno 8647 bound_to 403 
   -3.1164  -27.9053  -21.5343 LP  0  0  0  0  0  0  0  0  0  0  0  0  # atno 8648 bound_to 403 
    0.9461  -28.7172  -34.2616 LP  0  0  0  0  0  0  0  0  0  0  0  0  # atno 8651 bound_to 2871
    0.1241  -27.8230  -35.4964 LP  0  0  0  0  0  0  0  0  0  0  0  0  # atno 8652 bound_to 2871
    1.0024  -22.8849  -34.8114 LP  0  0  0  0  0  0  0  0  0  0  0  0  # atno 8653 bound_to 2904
    0.5811  -24.5463  -35.0607 LP  0  0  0  0  0  0  0  0  0  0  0  0  # atno 8654 bound_to 2904
   -8.1289  -25.1033  -36.9966 LP  0  0  0  0  0  0  0  0  0  0  0  0  # atno 8655 bound_to 4663
   -8.5202  -23.4184  -37.0853 LP  0  0  0  0  0  0  0  0  0  0  0  0  # atno 8656 bound_to 4663
   -4.3979  -26.1310  -37.2482 LP  0  0  0  0  0  0  0  0  0  0  0  0  # atno 8657 bound_to 4400

> <Gold.Score>
     Fitness  S(hb_ext) S(vdw_ext)  S(hb_int)    S(int)      intcor
     28.59       7.11      15.63       0.00      -0.01      -0.76

> <Gold.Goldscore.Fitness>
28.5949

> <Gold.Goldscore.Internal.Vdw>
-0.3372

> <Gold.Goldscore.Internal.Torsion>
-0.4326

> <Gold.Goldscore.External.Vdw>
15.6338

> <Gold.Goldscore.Internal.HBond>
0.0000

> <Gold.Goldscore.External.HBond>
7.1129

> <Gold.Goldscore.Internal.Correction>
-0.7554

> <Gold.Goldscore.Hbonds>
donor molecule, donor type, donor heavy atom, donor atom, acceptor molecule, acceptor atom, score
      L1  H     8    22       P1  2901  0.83
      L1  H    10    23       P1   399  0.35

> <Gold.Goldscore.Internal.Vdw.Weighted>
-0.3372

> <Gold.Goldscore.Internal.Torsion.Weighted>
-0.4326

> <Gold.Goldscore.External.Vdw.Weighted>
21.4964

> <Gold.Goldscore.Internal.HBond.Weighted>
0.0000

> <Gold.Goldscore.External.HBond.Weighted>
7.1129

> <Gold.Goldscore.Internal.Correction.Weighted>
-0.7554

> <Gold.Rescore>
     Score     S(PLP)   S(hbond)     S(cho)   S(metal)  DE(clash)   DE(tors)     intcor
     28.36     -25.76       0.92       0.00       0.00       0.00       0.08       ----

> <Gold.PLP.Fitness>
28.3613

> <Gold.PLP.PLP>
-25.7565

> <Gold.PLP.part.hbond>
-2.0000

> <Gold.PLP.part.metal>
0.0000

> <Gold.PLP.part.buried>
-1.2846

> <Gold.PLP.part.nonpolar>
-23.8526

> <Gold.PLP.part.repulsive>
1.8017

> <Gold.PLP.ligand.clash>
0.0000

> <Gold.PLP.ligand.torsion>
0.0774

> <Gold.PLP.Chemscore.Hbond>
0.9199

> <Gold.PLP.Chemscore.CHOScore>
0.0000

> <Gold.PLP.Chemscore.Metal>
0.0000

> <Gold.Chemscore.Hbonds>
donor molecule, donor type, donor heavy atom, donor atom, acceptor molecule, acceptor atom, score
      L1  H     8    22       P1  2901  1.00
      L1  H    10    23       P1   399  0.49

> <Gold.PLP.Chemscore.Internal.Correction>
   9.000000E+99

