#       Name:                CT1002167954
#       Creating user name   hitesit
#       Creation time:       Sun Apr 16 02:22:21 2023


#       File generated by GOLD software.
#

@<TRIPOS>MOLECULE
CT1002167954|ligand_prepared|mol2|1|dock9
    29    30     1
SMALL
NO_CHARGES


@<TRIPOS>ATOM
      1 C1         -11.0898 -24.5899 -28.4698 C.3            1 RES1               0.0000
      2 C2          -9.6750 -24.5362 -27.8579 C.ar           1 RES1               0.0000
      3 C3         -10.8999 -24.6756 -29.9813 C.2            1 RES1               0.0000
      4 C4         -11.7730 -25.8082 -27.8585 C.2            1 RES1               0.0000
      5 C5         -11.9550 -23.3479 -28.1531 C.3            1 RES1               0.0000
      6 C6          -8.7705 -25.5718 -28.0724 C.ar           1 RES1               0.0000
      7 C7          -9.2599 -23.4584 -27.0804 C.ar           1 RES1               0.0000
      8 N8         -11.1417 -25.8761 -30.5815 N.am           1 RES1               0.0000
      9 O9         -10.5058 -23.7151 -30.6313 O.2            1 RES1               0.0000
     10 N10        -12.0913 -26.8502 -28.6896 N.am           1 RES1               0.0000
     11 O11        -12.0235 -25.8822 -26.6618 O.2            1 RES1               0.0000
     12 C12        -13.3554 -23.4098 -28.7424 C.3            1 RES1               0.0000
     13 C13         -7.4960 -25.5302 -27.5317 C.ar           1 RES1               0.0000
     14 C14         -7.9850 -23.4188 -26.5404 C.ar           1 RES1               0.0000
     15 C15        -11.7789 -26.9522 -30.0178 C.2            1 RES1               0.0000
     16 C16         -7.1023 -24.4536 -26.7658 C.ar           1 RES1               0.0000
     17 O17        -12.0509 -27.9453 -30.6865 O.2            1 RES1               0.0000
     18 H18        -12.0346 -23.2413 -27.0642 H              1 RES1               0.0000
     19 H19        -11.4478 -22.4559 -28.5411 H              1 RES1               0.0000
     20 H20         -9.0633 -26.4284 -28.6704 H              1 RES1               0.0000
     21 H21         -9.9378 -22.6336 -26.8889 H              1 RES1               0.0000
     22 H22        -10.8188 -25.9838 -31.5377 H              1 RES1               0.0000
     23 H23        -12.6093 -27.6212 -28.2802 H              1 RES1               0.0000
     24 H24        -13.9198 -22.5144 -28.4905 H              1 RES1               0.0000
     25 H25        -13.3144 -23.4907 -29.8266 H              1 RES1               0.0000
     26 H26        -13.8977 -24.2714 -28.3585 H              1 RES1               0.0000
     27 H27         -6.8055 -26.3477 -27.7109 H              1 RES1               0.0000
     28 H28         -7.6796 -22.5699 -25.9378 H              1 RES1               0.0000
     29 H29         -6.1037 -24.4210 -26.3427 H              1 RES1               0.0000
@<TRIPOS>BOND
    1    1    2 1     
    2    1    3 1     
    3    1    4 1     
    4    1    5 1     
    5    2    6 ar    
    6    2    7 ar    
    7    3    8 1     
    8    3    9 2     
    9    4   10 1     
   10    4   11 2     
   11    5   12 1     
   12    5   18 1     
   13    5   19 1     
   14    6   13 ar    
   15    6   20 1     
   16    7   14 ar    
   17    7   21 1     
   18    8   15 1     
   19    8   22 1     
   20   10   15 1     
   21   10   23 1     
   22   12   24 1     
   23   12   25 1     
   24   12   26 1     
   25   13   16 ar    
   26   13   27 1     
   27   14   16 ar    
   28   14   28 1     
   29   15   17 2     
   30   16   29 1     
@<TRIPOS>SUBSTRUCTURE
      1 RES1           1
@<TRIPOS>SET
DONOR_HYDROGENS      STATIC     ATOMS    <user>   **** ""
2 22 23
ATOM$RED        STATIC     ATOMS    COLORGROUP SYSTEM
2 22 23
@<TRIPOS>COMMENT
> <Gold.Version>
2022.3.0

> <Gold.Id.Protein>
unknown|7kl0_clean|pdb

> <Gold.Protein.RotatedTorsions>
[ 1096 1086 1087 1088 ] final  -48.60 input   77.66 | X-H torsion
[ 1116 1106 1107 1108 ] final -108.84 input   75.39 | X-H torsion
[ 2209 2193 2194 2195 ] final  -92.58 input  128.07 | X-H torsion
[ 2253 2229 2230 2231 ] final  111.55 input   94.48 | X-H torsion
[ 2733 2713 2714 2715 ] final    6.61 input   74.45 | X-H torsion
[ 2762 2750 2751 2752 ] final   54.81 input  128.15 | X-H torsion
[ 2793 2774 2775 2776 ] final  -28.61 input  106.68 | X-H torsion
[ 2827 2811 2812 2813 ] final  130.39 input   64.81 | X-H torsion
[ 2857 2843 2844 2845 ] final  137.85 input   70.34 | X-H torsion
[  504  482  483  484 ] final   31.86 input   40.33 | X-H torsion
[  528  521  522  523 ] final   17.23 input   38.54 | X-H torsion
[  612  602  601  598 ] final  -10.59 input   59.99 | X-H torsion
[  636  620  621  622 ] final  161.71 input   33.60 | X-H torsion
[  668  652  653  654 ] final  -35.14 input   67.24 | X-H torsion
[ 1152 1130 1131 1132 ] final -173.16 input  101.11 | X-H torsion
[ 1162 1138 1137 1136 ] final  -77.58 input   59.97 | X-H torsion
[ 1189 1173 1174 1175 ] final  -84.10 input   74.99 | X-H torsion
[ 4769 4761 4762 4763 ] final -150.03 input -116.16 | X-H torsion
[ 4799 4788 4789 4790 ] final   98.46 input   84.75 | X-H torsion
[ 4825 4821 4822 4823 ] final  -23.73 input  114.67 | X-H torsion
[  760  736  737  738 ] final   43.98 input  123.93 | X-H torsion
[ 1072 1051 1052 1053 ] final -127.30 input   37.12 | X-H torsion
[ 2863 2849 2847 2844 ] final  169.65 input   59.99 | X-H torsion
[ 2875 2868 2869 2870 ] final -115.07 input   94.70 | X-H torsion
[ 2889 2882 2883 2884 ] final   42.99 input -101.73 | X-H torsion
[ 4743 4738 4739 4740 ] final -105.95 input   44.52 | X-H torsion
[  447  429  430  431 ] final  -81.29 input   69.31 | X-H torsion
[  470  463  464  465 ] final   92.18 input   13.24 | X-H torsion
[  712  688  689  690 ] final  -14.07 input   42.22 | X-H torsion
[ 2916 2901 2902 2903 ] final  -48.88 input  112.69 | X-H torsion
[ 4310 4296 4297 4298 ] final -167.93 input   86.41 | X-H torsion
[ 4343 4324 4325 4326 ] final -134.92 input   71.41 | X-H torsion
[ 4381 4362 4363 4364 ] final  -83.93 input   70.60 | X-H torsion
[ 4419 4400 4401 4402 ] final  -23.63 input   92.71 | X-H torsion
[  790  779  780  781 ] final  109.12 input   42.63 | X-H torsion
[ 4847 4839 4840 4841 ] final  -51.65 input   74.58 | X-H torsion
[ 2649 2634 2635 2636 ] final  -58.81 input   83.10 | X-H torsion
[ 2946 2930 2931 2932 ] final  -88.78 input  126.41 | X-H torsion
[ 4496 4485 4484 4483 ] final   22.11 input   60.01 | X-H torsion
[ 8535  691  690  689 ] final   15.56 input    0.00 | X-H torsion
[ 8537 1054 1053 1052 ] final  128.08 input    0.00 | X-H torsion
[ 8540 1089 1088 1087 ] final   74.41 input    0.00 | X-H torsion
[ 8545 2232 2231 2230 ] final  -17.03 input    0.00 | X-H torsion
[ 8548 2716 2715 2714 ] final   69.85 input    0.00 | X-H torsion
[ 8551 2753 2752 2751 ] final -153.47 input    0.00 | X-H torsion
[ 8558 2777 2776 2775 ] final  151.67 input    0.00 | X-H torsion
[ 8561 2814 2813 2812 ] final  155.60 input    0.00 | X-H torsion
[ 8564  466  465  464 ] final    4.60 input   -0.00 | X-H torsion
[ 8567  485  484  483 ] final -167.38 input    0.00 | X-H torsion
[ 8573  623  622  621 ] final  179.86 input    0.00 | X-H torsion
[ 8576 1109 1108 1107 ] final   82.48 input   -0.00 | X-H torsion
[ 8579 1133 1132 1131 ] final  171.86 input    0.00 | X-H torsion
[ 8586 2637 2636 2635 ] final  -32.89 input    0.00 | X-H torsion
[ 8588 4741 4740 4739 ] final  148.49 input    0.00 | X-H torsion
[ 8591 4764 4763 4762 ] final  149.94 input    0.00 | X-H torsion
[ 8600 1021 1020 1019 ] final  176.61 input    0.00 | X-H torsion
[ 8603 2846 2845 2844 ] final   37.31 input   -0.00 | X-H torsion
[ 8609 4403 4402 4401 ] final  -72.37 input    0.00 | X-H torsion
[ 8612 4791 4790 4789 ] final  -20.36 input    0.00 | X-H torsion
[ 8615  432  431  430 ] final   76.81 input    0.00 | X-H torsion
[ 8618  655  654  653 ] final   86.20 input    0.00 | X-H torsion
[ 8626 4270 4269 4268 ] final  135.57 input    0.00 | X-H torsion
[ 8628 2885 2884 2883 ] final  -17.47 input    0.00 | X-H torsion
[ 8633 4299 4298 4297 ] final   30.45 input    0.00 | X-H torsion
[ 8636 4327 4326 4325 ] final -109.00 input    0.00 | X-H torsion
[ 8639 2196 2195 2194 ] final  -87.90 input    0.00 | X-H torsion
[ 8641 4706 4705 4704 ] final   12.95 input    0.00 | X-H torsion
[ 8647  403  402  401 ] final  140.16 input    0.00 | X-H torsion
[ 8651 2871 2870 2869 ] final  -90.61 input    0.00 | X-H torsion
[ 8653 2904 2903 2902 ] final  124.43 input    0.00 | X-H torsion
[ 8655 4663 4662 4661 ] final  170.85 input    0.00 | X-H torsion

> <Gold.Protein.ActiveResidues>
 GLU18   LEU19   GLY20   LYS21   GLY22   SER25   VAL26   VAL27   ARG28   ARG29  
 CYS30   GLU38   TYR39   ALA40   ALA41   LYS42   ILE43   ILE44   GLU60   CYS64  
 VAL73   ARG74   LEU75   LEU87   ILE88   PHE89   ASP90   LEU91   VAL92   THR93  
 GLY94   GLY95   GLU96   LEU97   GLU99   GLU139  ASN140  LEU141  LEU142  LEU143 
 LYS146  LYS153  LEU154  ALA155  ASP156  PHE157  GLY158  LEU159 

> <Gold.Protein.RotatedAtoms>
   -5.1167  -27.7533  -21.4657 H   0  0  0  0  0  0  0  0  0  0  0  0  # atno 447  bound_to 429 
   -6.7788  -25.8288  -23.5743 H   0  0  0  0  0  0  0  0  0  0  0  0  # atno 470  bound_to 463 
   -6.9174  -21.3802  -22.8922 H   0  0  0  0  0  0  0  0  0  0  0  0  # atno 504  bound_to 482 
   -9.7492  -19.9281  -19.9184 H   0  0  0  0  0  0  0  0  0  0  0  0  # atno 528  bound_to 521 
  -12.7127  -19.9670  -20.8878 H   0  0  0  0  0  0  0  0  0  0  0  0  # atno 612  bound_to 602 
  -12.4099  -22.6729  -18.7110 H   0  0  0  0  0  0  0  0  0  0  0  0  # atno 636  bound_to 620 
  -10.1774  -25.5702  -20.6534 H   0  0  0  0  0  0  0  0  0  0  0  0  # atno 668  bound_to 652 
  -10.4094  -28.7806  -23.1367 H   0  0  0  0  0  0  0  0  0  0  0  0  # atno 712  bound_to 688 
   -8.4938  -31.8980  -21.8608 H   0  0  0  0  0  0  0  0  0  0  0  0  # atno 760  bound_to 736 
  -11.1136  -33.9150  -23.6122 H   0  0  0  0  0  0  0  0  0  0  0  0  # atno 790  bound_to 779 
  -11.5180  -36.8420  -27.8975 H   0  0  0  0  0  0  0  0  0  0  0  0  # atno 1072 bound_to 1051
  -12.4681  -33.2345  -26.8895 H   0  0  0  0  0  0  0  0  0  0  0  0  # atno 1096 bound_to 1086
  -13.0281  -30.6697  -25.8592 H   0  0  0  0  0  0  0  0  0  0  0  0  # atno 1116 bound_to 1106
  -13.9066  -27.6629  -24.9855 H   0  0  0  0  0  0  0  0  0  0  0  0  # atno 1152 bound_to 1130
  -15.7943  -20.0174  -25.9994 H   0  0  0  0  0  0  0  0  0  0  0  0  # atno 1162 bound_to 1138
  -17.0047  -20.5941  -25.0250 H   0  0  0  0  0  0  0  0  0  0  0  0  # atno 1163 bound_to 1138
  -16.0191  -19.3741  -24.4895 H   0  0  0  0  0  0  0  0  0  0  0  0  # atno 1164 bound_to 1138
  -15.6428  -25.9550  -22.0924 H   0  0  0  0  0  0  0  0  0  0  0  0  # atno 1189 bound_to 1173
  -13.1633  -27.1337  -38.2890 H   0  0  0  0  0  0  0  0  0  0  0  0  # atno 2209 bound_to 2193
  -14.6169  -29.8893  -36.3106 H   0  0  0  0  0  0  0  0  0  0  0  0  # atno 2253 bound_to 2229
  -19.1700  -28.4251  -23.7783 H   0  0  0  0  0  0  0  0  0  0  0  0  # atno 2649 bound_to 2634
  -15.5103  -31.3413  -28.2478 H   0  0  0  0  0  0  0  0  0  0  0  0  # atno 2733 bound_to 2713
  -14.1447  -30.9183  -31.9605 H   0  0  0  0  0  0  0  0  0  0  0  0  # atno 2762 bound_to 2750
  -11.4670  -32.8932  -32.2829 H   0  0  0  0  0  0  0  0  0  0  0  0  # atno 2793 bound_to 2774
   -9.0746  -31.1933  -32.2229 H   0  0  0  0  0  0  0  0  0  0  0  0  # atno 2827 bound_to 2811
   -5.6851  -32.6857  -33.8928 H   0  0  0  0  0  0  0  0  0  0  0  0  # atno 2857 bound_to 2843
   -3.2514  -35.1051  -34.8160 H   0  0  0  0  0  0  0  0  0  0  0  0  # atno 2863 bound_to 2849
   -2.4969  -31.8285  -34.0529 H   0  0  0  0  0  0  0  0  0  0  0  0  # atno 2875 bound_to 2868
   -1.4929  -28.5449  -34.4504 H   0  0  0  0  0  0  0  0  0  0  0  0  # atno 2889 bound_to 2882
   -1.3683  -25.6304  -33.5675 H   0  0  0  0  0  0  0  0  0  0  0  0  # atno 2916 bound_to 2901
   -1.1658  -23.5691  -35.4918 H   0  0  0  0  0  0  0  0  0  0  0  0  # atno 2946 bound_to 2930
   -5.6899  -18.4842  -32.9199 H   0  0  0  0  0  0  0  0  0  0  0  0  # atno 4310 bound_to 4296
   -7.2058  -20.2772  -35.5968 H   0  0  0  0  0  0  0  0  0  0  0  0  # atno 4343 bound_to 4324
   -5.3487  -23.2862  -36.7665 H   0  0  0  0  0  0  0  0  0  0  0  0  # atno 4381 bound_to 4362
   -4.6154  -27.0753  -36.5240 H   0  0  0  0  0  0  0  0  0  0  0  0  # atno 4419 bound_to 4400
    0.0302  -33.0691  -33.0334 H   0  0  0  0  0  0  0  0  0  0  0  0  # atno 4496 bound_to 4485
   -0.2498  -34.6507  -32.6252 H   0  0  0  0  0  0  0  0  0  0  0  0  # atno 4497 bound_to 4485
    0.1863  -33.5589  -31.4577 H   0  0  0  0  0  0  0  0  0  0  0  0  # atno 4498 bound_to 4485
  -11.7032  -22.5015  -36.5506 H   0  0  0  0  0  0  0  0  0  0  0  0  # atno 4743 bound_to 4738
  -12.4200  -22.4023  -32.1665 H   0  0  0  0  0  0  0  0  0  0  0  0  # atno 4769 bound_to 4761
  -15.2699  -20.6642  -32.0605 H   0  0  0  0  0  0  0  0  0  0  0  0  # atno 4799 bound_to 4788
  -16.3188  -17.5546  -31.2327 H   0  0  0  0  0  0  0  0  0  0  0  0  # atno 4825 bound_to 4821
  -17.0606  -15.8093  -30.3010 H   0  0  0  0  0  0  0  0  0  0  0  0  # atno 4847 bound_to 4839
  -11.3648  -30.4504  -23.1490 LP  0  0  0  0  0  0  0  0  0  0  0  0  # atno 8535 bound_to 691 
  -11.0197  -32.0842  -23.6093 LP  0  0  0  0  0  0  0  0  0  0  0  0  # atno 8536 bound_to 691 
  -10.0477  -33.8016  -25.8391 LP  0  0  0  0  0  0  0  0  0  0  0  0  # atno 8537 bound_to 1054
  -11.3694  -34.6958  -25.1658 LP  0  0  0  0  0  0  0  0  0  0  0  0  # atno 8538 bound_to 1054
  -11.4570  -32.7921  -28.2578 LP  0  0  0  0  0  0  0  0  0  0  0  0  # atno 8539 bound_to 1086
  -14.2721  -31.0761  -27.4816 LP  0  0  0  0  0  0  0  0  0  0  0  0  # atno 8540 bound_to 1089
  -13.8725  -29.4078  -27.2424 LP  0  0  0  0  0  0  0  0  0  0  0  0  # atno 8541 bound_to 1089
  -12.1653  -30.7909  -24.3350 LP  0  0  0  0  0  0  0  0  0  0  0  0  # atno 8542 bound_to 1106
  -13.4421  -25.7056  -37.3078 LP  0  0  0  0  0  0  0  0  0  0  0  0  # atno 8543 bound_to 2193
  -15.0419  -28.2874  -35.7484 LP  0  0  0  0  0  0  0  0  0  0  0  0  # atno 8544 bound_to 2229
  -15.4756  -30.8398  -33.8727 LP  0  0  0  0  0  0  0  0  0  0  0  0  # atno 8545 bound_to 2232
  -16.2387  -30.0615  -32.5266 LP  0  0  0  0  0  0  0  0  0  0  0  0  # atno 8546 bound_to 2232
  -16.5263  -29.9258  -28.4576 LP  0  0  0  0  0  0  0  0  0  0  0  0  # atno 8547 bound_to 2713
  -14.4318  -32.8325  -28.9870 LP  0  0  0  0  0  0  0  0  0  0  0  0  # atno 8548 bound_to 2716
  -12.8916  -32.2250  -29.4956 LP  0  0  0  0  0  0  0  0  0  0  0  0  # atno 8549 bound_to 2716
  -15.1053  -32.2440  -31.3399 LP  0  0  0  0  0  0  0  0  0  0  0  0  # atno 8550 bound_to 2750
  -10.7417  -30.9066  -31.4844 LP  0  0  0  0  0  0  0  0  0  0  0  0  # atno 8551 bound_to 2753
  -12.4350  -30.6231  -31.2558 LP  0  0  0  0  0  0  0  0  0  0  0  0  # atno 8552 bound_to 2753
  -11.6735  -34.1229  -31.0488 LP  0  0  0  0  0  0  0  0  0  0  0  0  # atno 8557 bound_to 2774
   -9.1106  -33.0733  -34.3942 LP  0  0  0  0  0  0  0  0  0  0  0  0  # atno 8558 bound_to 2777
   -9.4241  -34.4851  -33.4411 LP  0  0  0  0  0  0  0  0  0  0  0  0  # atno 8559 bound_to 2777
   -8.0445  -32.5799  -31.9216 LP  0  0  0  0  0  0  0  0  0  0  0  0  # atno 8560 bound_to 2811
   -4.9648  -30.9138  -31.3359 LP  0  0  0  0  0  0  0  0  0  0  0  0  # atno 8561 bound_to 2814
   -6.3261  -29.9003  -31.6819 LP  0  0  0  0  0  0  0  0  0  0  0  0  # atno 8562 bound_to 2814
   -5.1592  -31.0194  -33.7559 LP  0  0  0  0  0  0  0  0  0  0  0  0  # atno 8563 bound_to 2843
   -7.3403  -24.9534  -21.2566 LP  0  0  0  0  0  0  0  0  0  0  0  0  # atno 8564 bound_to 466 
   -8.1431  -23.6154  -20.5046 LP  0  0  0  0  0  0  0  0  0  0  0  0  # atno 8565 bound_to 466 
   -7.0024  -22.8604  -21.9519 LP  0  0  0  0  0  0  0  0  0  0  0  0  # atno 8566 bound_to 482 
   -8.7290  -18.6364  -22.9854 LP  0  0  0  0  0  0  0  0  0  0  0  0  # atno 8567 bound_to 485 
   -7.6080  -19.9391  -23.2008 LP  0  0  0  0  0  0  0  0  0  0  0  0  # atno 8568 bound_to 485 
   -9.1854  -19.9964  -21.5823 LP  0  0  0  0  0  0  0  0  0  0  0  0  # atno 8569 bound_to 521 
  -13.9218  -19.7444  -21.9541 LP  0  0  0  0  0  0  0  0  0  0  0  0  # atno 8570 bound_to 602 
  -12.9134  -21.0189  -22.1132 LP  0  0  0  0  0  0  0  0  0  0  0  0  # atno 8571 bound_to 602 
  -12.9263  -23.1038  -20.3344 LP  0  0  0  0  0  0  0  0  0  0  0  0  # atno 8572 bound_to 620 
  -12.6678  -25.9131  -21.8323 LP  0  0  0  0  0  0  0  0  0  0  0  0  # atno 8573 bound_to 623 
  -13.1956  -24.9375  -20.5020 LP  0  0  0  0  0  0  0  0  0  0  0  0  # atno 8574 bound_to 623 
  -10.2818  -24.3594  -21.9139 LP  0  0  0  0  0  0  0  0  0  0  0  0  # atno 8575 bound_to 652 
  -11.9510  -28.3154  -23.2512 LP  0  0  0  0  0  0  0  0  0  0  0  0  # atno 8576 bound_to 1109
  -13.1039  -28.2375  -21.9609 LP  0  0  0  0  0  0  0  0  0  0  0  0  # atno 8577 bound_to 1109
  -15.1643  -28.2866  -23.9373 LP  0  0  0  0  0  0  0  0  0  0  0  0  # atno 8578 bound_to 1130
  -17.4512  -26.7836  -21.8527 LP  0  0  0  0  0  0  0  0  0  0  0  0  # atno 8579 bound_to 1133
  -17.2124  -26.6043  -23.5588 LP  0  0  0  0  0  0  0  0  0  0  0  0  # atno 8580 bound_to 1133
  -14.1160  -26.1588  -21.2526 LP  0  0  0  0  0  0  0  0  0  0  0  0  # atno 8581 bound_to 1173
  -16.3727  -27.5572  -26.0095 LP  0  0  0  0  0  0  0  0  0  0  0  0  # atno 8586 bound_to 2637
  -16.0980  -29.2481  -25.7538 LP  0  0  0  0  0  0  0  0  0  0  0  0  # atno 8587 bound_to 2637
  -12.1050  -19.3793  -33.9856 LP  0  0  0  0  0  0  0  0  0  0  0  0  # atno 8588 bound_to 4741
  -10.7024  -20.1432  -34.6557 LP  0  0  0  0  0  0  0  0  0  0  0  0  # atno 8589 bound_to 4741
  -12.5599  -21.2557  -33.4927 LP  0  0  0  0  0  0  0  0  0  0  0  0  # atno 8590 bound_to 4761
  -13.7152  -17.7316  -33.2087 LP  0  0  0  0  0  0  0  0  0  0  0  0  # atno 8591 bound_to 4764
  -12.5124  -17.8651  -31.9695 LP  0  0  0  0  0  0  0  0  0  0  0  0  # atno 8592 bound_to 4764
  -14.1631  -19.2999  -31.9624 LP  0  0  0  0  0  0  0  0  0  0  0  0  # atno 8597 bound_to 4788
  -15.5414  -18.7996  -30.2732 LP  0  0  0  0  0  0  0  0  0  0  0  0  # atno 8598 bound_to 4821
   -8.5858  -31.1614  -23.4469 LP  0  0  0  0  0  0  0  0  0  0  0  0  # atno 8599 bound_to 736 
  -12.3192  -36.4831  -29.6457 LP  0  0  0  0  0  0  0  0  0  0  0  0  # atno 8600 bound_to 1021
  -11.6865  -38.0922  -29.7476 LP  0  0  0  0  0  0  0  0  0  0  0  0  # atno 8601 bound_to 1021
  -11.7968  -36.4465  -26.2096 LP  0  0  0  0  0  0  0  0  0  0  0  0  # atno 8602 bound_to 1051
   -1.2760  -32.8800  -32.4895 LP  0  0  0  0  0  0  0  0  0  0  0  0  # atno 8603 bound_to 2846
   -0.8071  -31.2235  -32.6794 LP  0  0  0  0  0  0  0  0  0  0  0  0  # atno 8604 bound_to 2846
   -2.8545  -33.5397  -35.0161 LP  0  0  0  0  0  0  0  0  0  0  0  0  # atno 8605 bound_to 2849
   -4.4227  -33.9950  -35.0251 LP  0  0  0  0  0  0  0  0  0  0  0  0  # atno 8606 bound_to 2849
   -3.4721  -30.4600  -34.5381 LP  0  0  0  0  0  0  0  0  0  0  0  0  # atno 8607 bound_to 2868
   -2.2891  -29.2132  -33.0411 LP  0  0  0  0  0  0  0  0  0  0  0  0  # atno 8608 bound_to 2882
   -3.0533  -29.8014  -36.0933 LP  0  0  0  0  0  0  0  0  0  0  0  0  # atno 8609 bound_to 4403
   -4.7674  -29.5567  -36.0466 LP  0  0  0  0  0  0  0  0  0  0  0  0  # atno 8610 bound_to 4403
  -10.1624  -21.9439  -35.9206 LP  0  0  0  0  0  0  0  0  0  0  0  0  # atno 8611 bound_to 4738
  -18.3839  -17.5927  -32.4843 LP  0  0  0  0  0  0  0  0  0  0  0  0  # atno 8612 bound_to 4791
  -18.5602  -17.5637  -30.7615 LP  0  0  0  0  0  0  0  0  0  0  0  0  # atno 8613 bound_to 4791
   -6.7137  -28.0879  -22.1093 LP  0  0  0  0  0  0  0  0  0  0  0  0  # atno 8614 bound_to 429 
   -4.6670  -25.5986  -25.6211 LP  0  0  0  0  0  0  0  0  0  0  0  0  # atno 8615 bound_to 432 
   -3.5979  -25.0876  -24.3579 LP  0  0  0  0  0  0  0  0  0  0  0  0  # atno 8616 bound_to 432 
   -5.3512  -25.6636  -22.5680 LP  0  0  0  0  0  0  0  0  0  0  0  0  # atno 8617 bound_to 463 
   -8.2027  -27.0756  -20.8130 LP  0  0  0  0  0  0  0  0  0  0  0  0  # atno 8618 bound_to 655 
   -7.5800  -27.3833  -22.3997 LP  0  0  0  0  0  0  0  0  0  0  0  0  # atno 8619 bound_to 655 
  -10.1819  -27.9852  -21.5927 LP  0  0  0  0  0  0  0  0  0  0  0  0  # atno 8620 bound_to 688 
   -1.1809  -24.8353  -32.0200 LP  0  0  0  0  0  0  0  0  0  0  0  0  # atno 8623 bound_to 2901
   -5.9601  -20.7657  -31.8433 LP  0  0  0  0  0  0  0  0  0  0  0  0  # atno 8626 bound_to 4270
   -4.3782  -21.2601  -32.3464 LP  0  0  0  0  0  0  0  0  0  0  0  0  # atno 8627 bound_to 4270
   -2.1424  -26.9661  -35.1909 LP  0  0  0  0  0  0  0  0  0  0  0  0  # atno 8628 bound_to 2885
   -2.5658  -25.2866  -35.1815 LP  0  0  0  0  0  0  0  0  0  0  0  0  # atno 8629 bound_to 2885
   -5.2295  -19.1471  -34.4812 LP  0  0  0  0  0  0  0  0  0  0  0  0  # atno 8632 bound_to 4296
   -9.3446  -20.4848  -35.1384 LP  0  0  0  0  0  0  0  0  0  0  0  0  # atno 8633 bound_to 4299
   -8.5355  -21.8922  -35.7422 LP  0  0  0  0  0  0  0  0  0  0  0  0  # atno 8634 bound_to 4299
   -5.4833  -20.4090  -35.2989 LP  0  0  0  0  0  0  0  0  0  0  0  0  # atno 8635 bound_to 4324
   -3.4263  -22.9030  -36.5915 LP  0  0  0  0  0  0  0  0  0  0  0  0  # atno 8636 bound_to 4327
   -4.0641  -22.1516  -35.1671 LP  0  0  0  0  0  0  0  0  0  0  0  0  # atno 8637 bound_to 4327
   -6.9219  -23.9935  -36.4593 LP  0  0  0  0  0  0  0  0  0  0  0  0  # atno 8638 bound_to 4362
  -15.9986  -26.6284  -35.0211 LP  0  0  0  0  0  0  0  0  0  0  0  0  # atno 8639 bound_to 2196
  -16.2642  -26.6845  -36.7317 LP  0  0  0  0  0  0  0  0  0  0  0  0  # atno 8640 bound_to 2196
  -12.3451  -24.5055  -37.6896 LP  0  0  0  0  0  0  0  0  0  0  0  0  # atno 8641 bound_to 4706
  -12.8619  -24.0761  -36.0932 LP  0  0  0  0  0  0  0  0  0  0  0  0  # atno 8642 bound_to 4706
   -3.4656  -29.0482  -22.2202 LP  0  0  0  0  0  0  0  0  0  0  0  0  # atno 8647 bound_to 403 
   -3.1600  -28.4351  -20.6293 LP  0  0  0  0  0  0  0  0  0  0  0  0  # atno 8648 bound_to 403 
    0.9470  -28.7217  -34.2655 LP  0  0  0  0  0  0  0  0  0  0  0  0  # atno 8651 bound_to 2871
    0.1232  -27.8185  -35.4925 LP  0  0  0  0  0  0  0  0  0  0  0  0  # atno 8652 bound_to 2871
    0.6577  -24.2341  -35.6167 LP  0  0  0  0  0  0  0  0  0  0  0  0  # atno 8653 bound_to 2904
    0.9257  -23.1972  -34.2554 LP  0  0  0  0  0  0  0  0  0  0  0  0  # atno 8654 bound_to 2904
   -8.6610  -23.4658  -36.9724 LP  0  0  0  0  0  0  0  0  0  0  0  0  # atno 8655 bound_to 4663
   -7.9881  -25.0558  -37.1095 LP  0  0  0  0  0  0  0  0  0  0  0  0  # atno 8656 bound_to 4663
   -3.2394  -26.0269  -36.8133 LP  0  0  0  0  0  0  0  0  0  0  0  0  # atno 8657 bound_to 4400

> <Gold.Score>
     Fitness  S(hb_ext) S(vdw_ext)  S(hb_int)    S(int)      intcor
     32.65       0.19      23.66       0.00      -0.07      -0.76

> <Gold.Goldscore.Fitness>
32.6537

> <Gold.Goldscore.Internal.Vdw>
-0.4576

> <Gold.Goldscore.Internal.Torsion>
-0.3676

> <Gold.Goldscore.External.Vdw>
23.6604

> <Gold.Goldscore.Internal.HBond>
0.0000

> <Gold.Goldscore.External.HBond>
0.1904

> <Gold.Goldscore.Internal.Correction>
-0.7554

> <Gold.Goldscore.Hbonds>
donor molecule, donor type, donor heavy atom, donor atom, acceptor molecule, acceptor atom, score
      L1  H    10    23       P1  1089  0.10

> <Gold.Goldscore.Internal.Vdw.Weighted>
-0.4576

> <Gold.Goldscore.Internal.Torsion.Weighted>
-0.3676

> <Gold.Goldscore.External.Vdw.Weighted>
32.5331

> <Gold.Goldscore.Internal.HBond.Weighted>
0.0000

> <Gold.Goldscore.External.HBond.Weighted>
0.1904

> <Gold.Goldscore.Internal.Correction.Weighted>
-0.7554

> <Gold.Rescore>
     Score     S(PLP)   S(hbond)     S(cho)   S(metal)  DE(clash)   DE(tors)     intcor
     24.67     -24.71       0.00       0.00       0.00       0.00       0.02       ----

> <Gold.PLP.Fitness>
24.6748

> <Gold.PLP.PLP>
-24.7079

> <Gold.PLP.part.hbond>
0.0000

> <Gold.PLP.part.metal>
0.0000

> <Gold.PLP.part.buried>
5.2658

> <Gold.PLP.part.nonpolar>
-30.7993

> <Gold.PLP.part.repulsive>
0.1099

> <Gold.PLP.ligand.clash>
0.0000

> <Gold.PLP.ligand.torsion>
0.0165

> <Gold.PLP.Chemscore.Hbond>
0.0000

> <Gold.PLP.Chemscore.CHOScore>
0.0000

> <Gold.PLP.Chemscore.Metal>
0.0000

> <Gold.PLP.Chemscore.Internal.Correction>
   9.000000E+99

