@<TRIPOS>MOLECULE
A:LI21355
    58    62     1     0     1
SMALL
NO_CHARGES
****
Generated from the CSD

@<TRIPOS>ATOM
     1 C2       7.6970  16.8470  37.7910   C.ar      1 LI21355   0.0000
     2 C3       7.4690  16.5540  39.1310   C.ar      1 LI21355   0.0000
     3 C4       6.8000  15.3920  39.5290   C.ar      1 LI21355   0.0000
     4 C5       6.4230  14.5080  38.5100   C.ar      1 LI21355   0.0000
     5 C6       6.6510  14.7930  37.1560   C.ar      1 LI21355   0.0000
     6 C7       7.2950  15.9760  36.7940   C.ar      1 LI21355   0.0000
     7 C8       6.2270  13.8110  36.1220   C.2       1 LI21355   0.0000
     8 O9       5.2390  13.1310  36.3430   O.2       1 LI21355   0.0000
     9 N10      7.0090  13.6810  35.0110   N.am      1 LI21355   0.0000
    10 C11      6.8070  12.7690  33.9560   C.ar      1 LI21355   0.0000
    11 C12      7.8600  11.9170  33.5820   C.ar      1 LI21355   0.0000
    12 C13      7.7290  11.0010  32.5530   C.ar      1 LI21355   0.0000
    13 C14      6.5350  10.9230  31.8540   C.ar      1 LI21355   0.0000
    14 N15      6.1000  10.1270  30.8130   N.pl3     1 LI21355   0.0000
    15 C17      4.8030  10.4600  30.5020   C.2       1 LI21355   0.0000
    16 C18      4.3710  11.4520  31.3070   C.2       1 LI21355   0.0000
    17 C19      3.0110  12.1060  31.3050   C.3       1 LI21355   0.0000
    18 C20      2.2040  11.6290  32.5140   C.3       1 LI21355   0.0000
    19 C21      1.7530  10.1990  32.3490   C.ar      1 LI21355   0.0000
    20 C22      0.6990   9.8620  31.5030   C.ar      1 LI21355   0.0000
    21 C23      0.3190   8.5320  31.3850   C.ar      1 LI21355   0.0000
    22 N24      0.9390   7.5840  32.0770   N.ar      1 LI21355   0.0000
    23 C25      1.9410   7.8700  32.8890   C.ar      1 LI21355   0.0000
    24 C26      2.3770   9.1750  33.0560   C.ar      1 LI21355   0.0000
    25 C27      5.4710  11.7790  32.2170   C.ar      1 LI21355   0.0000
    26 C28      5.6130  12.7130  33.2620   C.ar      1 LI21355   0.0000
    27 N29      6.5920  15.0760  40.9080   N.3       1 LI21355   0.0000
    28 C30      5.6800  13.9520  41.1820   C.3       1 LI21355   0.0000
    29 C31      5.8330  13.5300  42.6410   C.3       1 LI21355   0.0000
    30 O32      5.4740  14.6290  43.4950   O.3       1 LI21355   0.0000
    31 C33      6.3890  15.7080  43.2810   C.3       1 LI21355   0.0000
    32 C34      6.3200  16.2010  41.8310   C.3       1 LI21355   0.0000
    33 F1       8.3180  17.9930  37.4450   F         1 LI21355   0.0000
    34 H1       1.3277  12.2654  32.6278   H         1 LI21355   0.0000
    35 H2       2.8250  11.7035  33.4055   H         1 LI21355   0.0000
    36 H3       0.1780  10.6346  30.9395   H         1 LI21355   0.0000
    37 H4       2.4833  11.8397  30.3904   H         1 LI21355   0.0000
    38 H5       3.1299  13.1874  31.3537   H         1 LI21355   0.0000
    39 H6       8.5592  10.3455  32.2941   H         1 LI21355   0.0000
    40 H7      -0.4976   8.2632  30.7166   H         1 LI21355   0.0000
    41 H8       5.3269  16.6009  41.6315   H         1 LI21355   0.0000
    42 H9       7.0633  16.9822  41.6785   H         1 LI21355   0.0000
    43 H10      6.6503   9.4101  30.3509   H         1 LI21355   0.0000
    44 H11      6.8668  13.2450  42.8305   H         1 LI21355   0.0000
    45 H12      5.1798  12.6828  42.8448   H         1 LI21355   0.0000
    46 H13      7.4007  15.3658  43.4940   H         1 LI21355   0.0000
    47 H14      6.1353  16.5292  43.9497   H         1 LI21355   0.0000
    48 H15      7.4780  16.2097  35.7462   H         1 LI21355   0.0000
    49 H16      3.1999   9.3972  33.7338   H         1 LI21355   0.0000
    50 H17      5.9280  13.1142  40.5320   H         1 LI21355   0.0000
    51 H18      4.6526  14.2626  40.9979   H         1 LI21355   0.0000
    52 H19      5.9379  13.5704  38.7775   H         1 LI21355   0.0000
    53 H20      4.2099   9.9905  29.7186   H         1 LI21355   0.0000
    54 H21      4.7931  13.3819  33.5195   H         1 LI21355   0.0000
    55 H22      7.8212  17.2488  39.8920   H         1 LI21355   0.0000
    56 H23      8.8063  11.9793  34.1173   H         1 LI21355   0.0000
    57 H24      2.4326   7.0670  33.4363   H         1 LI21355   0.0000
    58 H25      7.8109  14.2989  34.9379   H         1 LI21355   0.0000
@<TRIPOS>BOND
     1     1     2   ar
     2     2     3   ar
     3     3     4   ar
     4     4     5   ar
     5     1     6   ar
     6     5     6   ar
     7     5     7    1
     8     7     8    2
     9     7     9   am
    10     9    10    1
    11    10    11   ar
    12    11    12   ar
    13    12    13   ar
    14    13    14    1
    15    14    15    1
    16    15    16    2
    17    16    17    1
    18    17    18    1
    19    18    19    1
    20    19    20   ar
    21    20    21   ar
    22    21    22   ar
    23    22    23   ar
    24    19    24   ar
    25    23    24   ar
    26    13    25   ar
    27    16    25    1
    28    10    26   ar
    29    25    26   ar
    30     3    27    1
    31    27    28    1
    32    28    29    1
    33    29    30    1
    34    30    31    1
    35    27    32    1
    36    31    32    1
    37     1    33    1
    38    18    34    1
    39    18    35    1
    40    20    36    1
    41    17    37    1
    42    17    38    1
    43    12    39    1
    44    21    40    1
    45    32    41    1
    46    32    42    1
    47    14    43    1
    48    29    44    1
    49    29    45    1
    50    31    46    1
    51    31    47    1
    52     6    48    1
    53    24    49    1
    54    28    50    1
    55    28    51    1
    56     4    52    1
    57    15    53    1
    58    26    54    1
    59     2    55    1
    60    11    56    1
    61    23    57    1
    62     9    58    1
@<TRIPOS>SUBSTRUCTURE
     1 LI21355     1 GROUP             0 A     LI2     0  
@<TRIPOS>SET
CCDC_LIGAND STATIC ATOMS
58 1 2 3 4 5 6 7 8 9 \
10 11 12 13 14 15 16 17 18 19 \
20 21 22 23 24 25 26 27 28 29 \
30 31 32 33 34 35 36 37 38 39 \
40 41 42 43 44 45 46 47 48 49 \
50 51 52 53 54 55 56 57 58 
