@<TRIPOS>MOLECULE
A:GOL1356
    14    13     1     0     1
SMALL
NO_CHARGES
****
Generated from the CSD

@<TRIPOS>ATOM
     1 C1      25.0220  20.4400  40.0310   C.3       1 GOL1356   0.0000
     2 O1      23.6210  20.6080  40.2440   O.3       1 GOL1356   0.0000
     3 C2      25.7500  20.1370  41.3490   C.3       1 GOL1356   0.0000
     4 O2      24.9910  20.6510  42.4490   O.3       1 GOL1356   0.0000
     5 C3      25.9530  18.6260  41.5210   C.3       1 GOL1356   0.0000
     6 O3      27.3250  18.2440  41.3520   O.3       1 GOL1356   0.0000
     7 H1      26.7238  20.6243  41.3341   H         1 GOL1356   0.0000
     8 H2      27.8840  18.7102  42.0274   H         1 GOL1356   0.0000
     9 H3      23.4697  21.3631  40.8709   H         1 GOL1356   0.0000
    10 H4      24.0952  20.2227  42.4619   H         1 GOL1356   0.0000
    11 H5      25.4287  21.3548  39.6024   H         1 GOL1356   0.0000
    12 H6      25.1799  19.6137  39.3395   H         1 GOL1356   0.0000
    13 H7      25.3492  18.1039  40.7803   H         1 GOL1356   0.0000
    14 H8      25.6292  18.3396  42.5205   H         1 GOL1356   0.0000
@<TRIPOS>BOND
     1     1     2    1
     2     1     3    1
     3     3     4    1
     4     3     5    1
     5     5     6    1
     6     3     7    1
     7     6     8    1
     8     2     9    1
     9     4    10    1
    10     1    11    1
    11     1    12    1
    12     5    13    1
    13     5    14    1
@<TRIPOS>SUBSTRUCTURE
     1 GOL1356     1 GROUP             0 A     GOL     0  
@<TRIPOS>SET
CCDC_LIGAND STATIC ATOMS
14 1 2 3 4 5 6 7 8 9 \
10 11 12 13 14 
