8ef6
  PyMOL2.6          3D                             0

 21 25  0  0  0  0  0  0  0  0999 V2000
  135.4200  118.5960  132.1730 C   0  0  0  0  0  0  0  0  0  0  0  0
  137.0970  121.6950  128.9170 N   0  0  0  0  0  0  0  0  0  0  0  0
  133.3050  120.2140  134.7270 O   0  0  0  0  0  0  0  0  0  0  0  0
  137.0390  119.6290  130.4620 C   0  0  0  0  0  0  0  0  0  0  0  0
  136.5590  122.7330  135.2550 O   0  0  0  0  0  0  0  0  0  0  0  0
  136.0380  119.7040  131.5890 C   0  0  0  0  0  0  0  0  0  0  0  0
  134.6670  122.4540  133.4330 O   0  0  0  0  0  0  0  0  0  0  0  0
  135.6970  120.9510  132.0810 C   0  0  0  0  0  0  0  0  0  0  0  0
  136.2340  122.2760  131.6270 C   0  0  0  0  0  0  0  0  0  0  0  0
  137.7060  122.0820  131.2380 C   0  0  0  0  0  0  0  0  0  0  0  0
  135.4440  122.8680  130.4300 C   0  0  0  0  0  0  0  0  0  0  0  0
  135.7050  122.1460  129.0910 C   0  0  0  0  0  0  0  0  0  0  0  0
  137.3040  121.0030  127.6500 C   0  0  0  0  0  0  0  0  0  0  0  0
  134.5010  118.7730  133.2300 C   0  0  0  0  0  0  0  0  0  0  0  0
  134.1890  120.0520  133.7120 C   0  0  0  0  0  0  0  0  0  0  0  0
  134.8100  121.1280  133.1170 C   0  0  0  0  0  0  0  0  0  0  0  0
  135.9130  123.0510  132.9210 C   0  0  0  0  0  0  0  0  0  0  0  0
  137.0640  123.0880  133.9690 C   0  0  0  0  0  0  0  0  0  0  0  0
  138.3180  122.2970  133.6630 C   0  0  0  0  0  0  0  0  0  0  0  0
  138.6050  121.8330  132.4300 C   0  0  0  0  0  0  0  0  0  0  0  0
  137.6970  121.0110  130.0900 C   0  0  0  0  0  0  0  0  0  0  0  0
  1  6  4  0  0  0  0
  1 14  4  0  0  0  0
  2 12  1  0  0  0  0
  2 13  1  0  0  0  0
  2 21  1  0  0  0  0
  3 15  1  0  0  0  0
  4  6  1  0  0  0  0
  4 21  1  0  0  0  0
  5 18  1  0  0  0  0
  6  8  4  0  0  0  0
  7 16  1  0  0  0  0
  7 17  1  0  0  0  0
  8  9  1  0  0  0  0
  8 16  4  0  0  0  0
  9 10  1  0  0  0  0
  9 11  1  0  0  0  0
  9 17  1  0  0  0  0
 10 20  1  0  0  0  0
 10 21  1  0  0  0  0
 11 12  1  0  0  0  0
 14 15  4  0  0  0  0
 15 16  4  0  0  0  0
 17 18  1  0  0  0  0
 18 19  1  0  0  0  0
 19 20  1  0  0  0  0
M  END
>  <pdb_header>
CRYST1    1.000    1.000    1.000  90.00  90.00  90.00 P 1           1


$$$$
