@<TRIPOS>MOLECULE
B:KLD804
    53    55     1     0     1
SMALL
NO_CHARGES
****
Generated from the CSD

@<TRIPOS>ATOM
     1 N01    117.9250 243.0980 323.4390   N.ar      1 KLD804   0.0000
     2 C02    118.9620 242.7620 322.6530   C.ar      1 KLD804   0.0000
     3 N02    119.7680 241.7410 323.0530   N.pl3     1 KLD804   0.0000
     4 C03    119.1720 243.4540 321.4580   C.ar      1 KLD804   0.0000
     5 C04    118.2990 244.4830 321.1040   C.ar      1 KLD804   0.0000
     6 C05    117.2490 244.8120 321.9490   C.ar      1 KLD804   0.0000
     7 C06    117.0710 244.0870 323.1250   C.ar      1 KLD804   0.0000
     8 C07    118.4880 245.2480 319.8170   C.3       1 KLD804   0.0000
     9 C08    115.9870 244.4100 324.1200   C.3       1 KLD804   0.0000
    10 C09    114.5780 244.3610 323.5820   C.3       1 KLD804   0.0000
    11 C11    114.3000 242.9400 323.1890   C.ar      1 KLD804   0.0000
    12 C12    114.2690 242.6090 321.8460   C.ar      1 KLD804   0.0000
    13 C13    114.0040 241.3060 321.4520   C.ar      1 KLD804   0.0000
    14 C14    113.7740 240.3290 322.4140   C.ar      1 KLD804   0.0000
    15 C15    113.8100 240.6660 323.7640   C.ar      1 KLD804   0.0000
    16 C16    114.0720 241.9740 324.1570   C.ar      1 KLD804   0.0000
    17 C17    113.5540 239.6020 324.8020   C.3       1 KLD804   0.0000
    18 C18    113.2650 240.2590 326.1480   C.3       1 KLD804   0.0000
    19 C21    112.7500 240.9390 328.6710   C.3       1 KLD804   0.0000
    20 N21    111.7090 240.0860 328.0760   N.3       1 KLD804   0.0000
    21 C22    110.3780 240.6230 328.4180   C.3       1 KLD804   0.0000
    22 C23    109.7810 241.2370 327.1550   C.3       1 KLD804   0.0000
    23 C24    110.8630 241.1150 326.0870   C.3       1 KLD804   0.0000
    24 C25    111.8190 240.0400 326.6030   C.3       1 KLD804   0.0000
    25 F13    113.9720 240.9990 320.1380   F         1 KLD804   0.0000
    26 F23    109.4290 242.5440 327.3810   F         1 KLD804   0.0000
    27 H1     114.4876 245.0123 322.7139   H         1 KLD804   0.0000
    28 H2     113.8746 244.6798 324.3498   H         1 KLD804   0.0000
    29 H3     114.4536 243.3754 321.0946   H         1 KLD804   0.0000
    30 H4     112.6320 240.9542 329.7535   H         1 KLD804   0.0000
    31 H5     113.7323 240.5425 328.4185   H         1 KLD804   0.0000
    32 H6     112.6561 241.9516 328.2814   H         1 KLD804   0.0000
    33 H7     113.4467 241.3293 326.0615   H         1 KLD804   0.0000
    34 H8     113.9351 239.8363 326.8951   H         1 KLD804   0.0000
    35 H9     114.4321 238.9641 324.8912   H         1 KLD804   0.0000
    36 H10    112.6975 239.0006 324.5009   H         1 KLD804   0.0000
    37 H11    114.0978 242.2366 325.2135   H         1 KLD804   0.0000
    38 H12    120.5590 241.4646 322.4802   H         1 KLD804   0.0000
    39 H13    119.5781 241.2559 323.9241   H         1 KLD804   0.0000
    40 H14    118.4278 244.5610 318.9742   H         1 KLD804   0.0000
    41 H15    117.7089 246.0034 319.7260   H         1 KLD804   0.0000
    42 H16    119.4637 245.7316 319.8221   H         1 KLD804   0.0000
    43 H17    111.4804 239.0662 326.2523   H         1 KLD804   0.0000
    44 H18    111.3854 242.0625 325.9631   H         1 KLD804   0.0000
    45 H19    110.4276 240.8134 325.1355   H         1 KLD804   0.0000
    46 H20    108.9027 240.6689 326.8522   H         1 KLD804   0.0000
    47 H21    110.4737 241.3849 329.1902   H         1 KLD804   0.0000
    48 H22    109.7364 239.8200 328.7779   H         1 KLD804   0.0000
    49 H23    116.5724 245.6269 321.6960   H         1 KLD804   0.0000
    50 H24    116.1672 245.4151 324.4985   H         1 KLD804   0.0000
    51 H25    116.0589 243.6955 324.9387   H         1 KLD804   0.0000
    52 H26    120.0076 243.1933 320.8101   H         1 KLD804   0.0000
    53 H27    113.5664 239.3034 322.1123   H         1 KLD804   0.0000
@<TRIPOS>BOND
     1     1     2   ar
     2     2     3    1
     3     2     4   ar
     4     4     5   ar
     5     5     6   ar
     6     1     7   ar
     7     6     7   ar
     8     5     8    1
     9     7     9    1
    10     9    10    1
    11    10    11    1
    12    11    12   ar
    13    12    13   ar
    14    13    14   ar
    15    14    15   ar
    16    11    16   ar
    17    15    16   ar
    18    15    17    1
    19    17    18    1
    20    19    20    1
    21    20    21    1
    22    21    22    1
    23    22    23    1
    24    18    24    1
    25    20    24    1
    26    23    24    1
    27    13    25    1
    28    22    26    1
    29    10    27    1
    30    10    28    1
    31    12    29    1
    32    19    30    1
    33    19    31    1
    34    19    32    1
    35    18    33    1
    36    18    34    1
    37    17    35    1
    38    17    36    1
    39    16    37    1
    40     3    38    1
    41     3    39    1
    42     8    40    1
    43     8    41    1
    44     8    42    1
    45    24    43    1
    46    23    44    1
    47    23    45    1
    48    22    46    1
    49    21    47    1
    50    21    48    1
    51     6    49    1
    52     9    50    1
    53     9    51    1
    54     4    52    1
    55    14    53    1
@<TRIPOS>SUBSTRUCTURE
     1 KLD804      1 GROUP             0 B     KLD     0  
@<TRIPOS>SET
CCDC_LIGAND STATIC ATOMS
53 1 2 3 4 5 6 7 8 9 \
10 11 12 13 14 15 16 17 18 19 \
20 21 22 23 24 25 26 27 28 29 \
30 31 32 33 34 35 36 37 38 39 \
40 41 42 43 44 45 46 47 48 49 \
50 51 52 53 
