@<TRIPOS>MOLECULE
A:KLD803
    53    55     1     0     1
SMALL
NO_CHARGES
****
Generated from the CSD

@<TRIPOS>ATOM
     1 N01    117.2110 243.6050 357.3230   N.ar      1 KLD803   0.0000
     2 C02    116.3950 242.8400 358.0610   C.ar      1 KLD803   0.0000
     3 N02    116.1560 241.5770 357.6120   N.pl3     1 KLD803   0.0000
     4 C03    115.8180 243.3550 359.2350   C.ar      1 KLD803   0.0000
     5 C04    116.1420 244.6650 359.5930   C.ar      1 KLD803   0.0000
     6 C05    116.9700 245.4260 358.7790   C.ar      1 KLD803   0.0000
     7 C06    117.5130 244.8690 357.6400   C.ar      1 KLD803   0.0000
     8 C07    115.6080 245.3240 360.8330   C.3       1 KLD803   0.0000
     9 C08    118.3880 245.6620 356.7030   C.3       1 KLD803   0.0000
    10 C09    119.5980 246.2720 357.3600   C.3       1 KLD803   0.0000
    11 C11    120.5400 245.1420 357.6380   C.ar      1 KLD803   0.0000
    12 C12    120.8080 244.7390 358.9360   C.ar      1 KLD803   0.0000
    13 C13    121.6820 243.6840 359.1530   C.ar      1 KLD803   0.0000
    14 C14    122.2770 243.0400 358.0770   C.ar      1 KLD803   0.0000
    15 C15    121.9970 243.4580 356.7820   C.ar      1 KLD803   0.0000
    16 C16    121.1170 244.5010 356.5640   C.ar      1 KLD803   0.0000
    17 C17    122.6030 242.7750 355.5880   C.3       1 KLD803   0.0000
    18 C18    124.1160 242.9770 355.4520   C.3       1 KLD803   0.0000
    19 C21    123.0450 243.0780 352.4600   C.3       1 KLD803   0.0000
    20 N21    124.4460 243.2830 352.8620   N.3       1 KLD803   0.0000
    21 C22    124.8740 244.4170 352.0300   C.3       1 KLD803   0.0000
    22 C23    124.5420 245.6890 352.8100   C.3       1 KLD803   0.0000
    23 C24    124.2150 245.2340 354.2270   C.3       1 KLD803   0.0000
    24 C25    124.6670 243.7780 354.2510   C.3       1 KLD803   0.0000
    25 F13    121.9590 243.2890 360.4110   F         1 KLD803   0.0000
    26 F23    123.4580 246.3210 352.2640   F         1 KLD803   0.0000
    27 H1     122.9610 242.2099 358.2473   H         1 KLD803   0.0000
    28 H2     123.1468 245.3125 354.4235   H         1 KLD803   0.0000
    29 H3     124.7633 245.8232 354.9606   H         1 KLD803   0.0000
    30 H4     117.1903 246.4603 359.0391   H         1 KLD803   0.0000
    31 H5     115.1431 242.7542 359.8428   H         1 KLD803   0.0000
    32 H6     123.0021 242.8526 351.3954   H         1 KLD803   0.0000
    33 H7     122.6233 242.2475 353.0242   H         1 KLD803   0.0000
    34 H8     122.4731 243.9822 352.6630   H         1 KLD803   0.0000
    35 H9     115.5447 240.9592 358.1363   H         1 KLD803   0.0000
    36 H10    116.5891 241.2533 356.7530   H         1 KLD803   0.0000
    37 H11    125.7472 243.8065 354.3858   H         1 KLD803   0.0000
    38 H12    125.4010 246.3582 352.8196   H         1 KLD803   0.0000
    39 H13    119.3146 246.7639 358.2893   H         1 KLD803   0.0000
    40 H14    120.0641 246.9961 356.6934   H         1 KLD803   0.0000
    41 H15    120.3373 245.2453 359.7774   H         1 KLD803   0.0000
    42 H16    124.5659 241.9863 355.4065   H         1 KLD803   0.0000
    43 H17    124.4508 243.4866 356.3543   H         1 KLD803   0.0000
    44 H18    122.1240 243.1653 354.6912   H         1 KLD803   0.0000
    45 H19    122.4066 241.7069 355.6689   H         1 KLD803   0.0000
    46 H20    120.8809 244.8146 355.5482   H         1 KLD803   0.0000
    47 H21    117.7903 246.4651 356.2743   H         1 KLD803   0.0000
    48 H22    118.7279 244.9988 355.9089   H         1 KLD803   0.0000
    49 H23    115.9198 244.7566 361.7086   H         1 KLD803   0.0000
    50 H24    115.9968 246.3390 360.9008   H         1 KLD803   0.0000
    51 H25    114.5203 245.3542 360.7884   H         1 KLD803   0.0000
    52 H26    124.3390 244.4087 351.0815   H         1 KLD803   0.0000
    53 H27    125.9454 244.3611 351.8429   H         1 KLD803   0.0000
@<TRIPOS>BOND
     1     1     2   ar
     2     2     3    1
     3     2     4   ar
     4     4     5   ar
     5     5     6   ar
     6     1     7   ar
     7     6     7   ar
     8     5     8    1
     9     7     9    1
    10     9    10    1
    11    10    11    1
    12    11    12   ar
    13    12    13   ar
    14    13    14   ar
    15    14    15   ar
    16    11    16   ar
    17    15    16   ar
    18    15    17    1
    19    17    18    1
    20    19    20    1
    21    20    21    1
    22    21    22    1
    23    22    23    1
    24    18    24    1
    25    20    24    1
    26    23    24    1
    27    13    25    1
    28    22    26    1
    29    14    27    1
    30    23    28    1
    31    23    29    1
    32     6    30    1
    33     4    31    1
    34    19    32    1
    35    19    33    1
    36    19    34    1
    37     3    35    1
    38     3    36    1
    39    24    37    1
    40    22    38    1
    41    10    39    1
    42    10    40    1
    43    12    41    1
    44    18    42    1
    45    18    43    1
    46    17    44    1
    47    17    45    1
    48    16    46    1
    49     9    47    1
    50     9    48    1
    51     8    49    1
    52     8    50    1
    53     8    51    1
    54    21    52    1
    55    21    53    1
@<TRIPOS>SUBSTRUCTURE
     1 KLD803      1 GROUP             0 A     KLD     0  
@<TRIPOS>SET
CCDC_LIGAND STATIC ATOMS
53 1 2 3 4 5 6 7 8 9 \
10 11 12 13 14 15 16 17 18 19 \
20 21 22 23 24 25 26 27 28 29 \
30 31 32 33 34 35 36 37 38 39 \
40 41 42 43 44 45 46 47 48 49 \
50 51 52 53 
