#       Name:                CT1002167954
#       Creating user name   hitesit
#       Creation time:       Sun Apr 16 20:16:48 2023


#       File generated by GOLD software.
#

@<TRIPOS>MOLECULE
CT1002167954|ligand_prepared|mol2|1|dock9
    29    30     1
SMALL
NO_CHARGES


@<TRIPOS>ATOM
      1 C1         123.4422 245.1796 355.5628 C.3            1 RES1               0.0000
      2 C2         123.8279 245.5863 354.1259 C.ar           1 RES1               0.0000
      3 C3         123.5541 243.6590 355.6222 C.2            1 RES1               0.0000
      4 C4         124.4091 245.9111 356.4873 C.2            1 RES1               0.0000
      5 C5         122.0032 245.5822 355.9612 C.3            1 RES1               0.0000
      6 C6         125.0896 246.1051 353.8508 C.ar           1 RES1               0.0000
      7 C7         122.9352 245.4465 353.0666 C.ar           1 RES1               0.0000
      8 N8         124.6152 243.1293 356.2956 N.am           1 RES1               0.0000
      9 O9         122.7454 242.9360 355.0534 O.2            1 RES1               0.0000
     10 N10        125.2919 245.1595 357.2177 N.am           1 RES1               0.0000
     11 O11        124.4256 247.1326 356.5773 O.2            1 RES1               0.0000
     12 C12        121.6616 245.2806 357.4119 C.3            1 RES1               0.0000
     13 C13        125.4470 246.4681 352.5628 C.ar           1 RES1               0.0000
     14 C14        123.2946 245.8104 351.7794 C.ar           1 RES1               0.0000
     15 C15        125.4595 243.8037 357.1407 C.2            1 RES1               0.0000
     16 C16        124.5501 246.3206 351.5263 C.ar           1 RES1               0.0000
     17 O17        126.3124 243.2052 357.7898 O.2            1 RES1               0.0000
     18 H18        121.8757 246.6573 355.7845 H              1 RES1               0.0000
     19 H19        121.2955 245.0497 355.3139 H              1 RES1               0.0000
     20 H20        125.8079 246.2307 354.6541 H              1 RES1               0.0000
     21 H21        121.9416 245.0483 353.2424 H              1 RES1               0.0000
     22 H22        124.7980 242.1404 356.1580 H              1 RES1               0.0000
     23 H23        125.8784 245.6568 357.8803 H              1 RES1               0.0000
     24 H24        120.6412 245.5824 357.6387 H              1 RES1               0.0000
     25 H25        121.7535 244.2160 357.6166 H              1 RES1               0.0000
     26 H26        122.3302 245.8140 358.0845 H              1 RES1               0.0000
     27 H27        126.4359 246.8705 352.3692 H              1 RES1               0.0000
     28 H28        122.5853 245.6931 350.9668 H              1 RES1               0.0000
     29 H29        124.8305 246.6047 350.5174 H              1 RES1               0.0000
@<TRIPOS>BOND
    1    1    2 1     
    2    1    3 1     
    3    1    4 1     
    4    1    5 1     
    5    2    6 ar    
    6    2    7 ar    
    7    3    8 1     
    8    3    9 2     
    9    4   10 1     
   10    4   11 2     
   11    5   12 1     
   12    5   18 1     
   13    5   19 1     
   14    6   13 ar    
   15    6   20 1     
   16    7   14 ar    
   17    7   21 1     
   18    8   15 1     
   19    8   22 1     
   20   10   15 1     
   21   10   23 1     
   22   12   24 1     
   23   12   25 1     
   24   12   26 1     
   25   13   16 ar    
   26   13   27 1     
   27   14   16 ar    
   28   14   28 1     
   29   15   17 2     
   30   16   29 1     
@<TRIPOS>SUBSTRUCTURE
      1 RES1           1
@<TRIPOS>SET
DONOR_HYDROGENS      STATIC     ATOMS    <user>   **** ""
2 22 23
ATOM$RED        STATIC     ATOMS    COLORGROUP SYSTEM
2 22 23
@<TRIPOS>COMMENT
> <Gold.Version>
2022.3.0

> <Gold.Id.Protein>
unknown|4uh5_clean|pdb

> <Gold.Protein.RotatedTorsions>
[ 9141 9120 9119 9117 ] final   23.18 input   60.01 | X-H torsion
[ 9040 9030 9029 9026 ] final  -54.98 input   59.99 | X-H torsion
[ 8396 8366 8365 8363 ] final  -33.07 input   60.01 | X-H torsion

> <Gold.Protein.ActiveResidues>
 MET341  TRP414  CYS420  VAL421  GLY422  LEU429  LEU460  SER462  ALA463  ILE464 
 SER482  GLN483  LEU484  ILE485  ARG486  TYR487  ASP500  ALA502  ASN503  TRP566 
 TYR567  LEU569  PRO570  ALA571  VAL572  SER573  ASN574  PRO588  PHE589  SER590 
 GLY591  TRP592  TYR593  MET594  GLY595  THR596  GLU597  ILE598  ARG601  ASP602 
 ASP605  ARG608  ILE653  VAL654  TRP683  PRO687  SER691  PHE696  HIS697  TYR711 
 HEM750  H4B760 

> <Gold.Protein.RotatedAtoms>
  125.2809  242.4843  359.6329 H   0  0  0  0  0  0  0  0  0  0  0  0  # atno 8396 bound_to 8366
  115.2170  246.0281  366.7146 H   0  0  0  0  0  0  0  0  0  0  0  0  # atno 9040 bound_to 9030
  122.8750  242.2292  358.4696 H   0  0  0  0  0  0  0  0  0  0  0  0  # atno 9141 bound_to 9120
  123.6820  240.8226  358.6035 LP  0  0  0  0  0  0  0  0  0  0  0  0  # atno 13532 bound_to 9120
  123.0166  241.5144  359.9245 LP  0  0  0  0  0  0  0  0  0  0  0  0  # atno 13533 bound_to 9120
  116.0899  244.7752  367.2769 LP  0  0  0  0  0  0  0  0  0  0  0  0  # atno 13546 bound_to 9030
  115.0184  244.5491  366.0655 LP  0  0  0  0  0  0  0  0  0  0  0  0  # atno 13547 bound_to 9030
  126.8555  242.0762  359.6703 LP  0  0  0  0  0  0  0  0  0  0  0  0  # atno 13558 bound_to 8366
  126.2703  243.1815  360.7203 LP  0  0  0  0  0  0  0  0  0  0  0  0  # atno 13559 bound_to 8366

> <Gold.Score>
     Fitness  S(hb_ext) S(vdw_ext)  S(hb_int)    S(int)      intcor
     33.59       4.51      22.20       0.00      -1.44      -0.76

> <Gold.Goldscore.Fitness>
33.5912

> <Gold.Goldscore.Internal.Vdw>
-1.8021

> <Gold.Goldscore.Internal.Torsion>
-0.4004

> <Gold.Goldscore.External.Vdw>
22.2031

> <Gold.Goldscore.Internal.HBond>
0.0000

> <Gold.Goldscore.External.HBond>
4.5060

> <Gold.Goldscore.Internal.Correction>
-0.7585

> <Gold.Goldscore.Hbonds>
donor molecule, donor type, donor heavy atom, donor atom, acceptor molecule, acceptor atom, score
      L1  H     8    22       P1  9396  0.75

> <Gold.Goldscore.Internal.Vdw.Weighted>
-1.8021

> <Gold.Goldscore.Internal.Torsion.Weighted>
-0.4004

> <Gold.Goldscore.External.Vdw.Weighted>
30.5293

> <Gold.Goldscore.Internal.HBond.Weighted>
0.0000

> <Gold.Goldscore.External.HBond.Weighted>
4.5060

> <Gold.Goldscore.Internal.Correction.Weighted>
-0.7585

> <Gold.Rescore>
     Score     S(PLP)   S(hbond)     S(cho)   S(metal)  DE(clash)   DE(tors)     intcor
     21.73     -22.04       0.68       0.00       0.00       0.79       0.78       ----

> <Gold.PLP.Fitness>
21.7274

> <Gold.PLP.PLP>
-22.0352

> <Gold.PLP.part.hbond>
-3.0146

> <Gold.PLP.part.metal>
0.0000

> <Gold.PLP.part.buried>
0.2246

> <Gold.PLP.part.nonpolar>
-21.7056

> <Gold.PLP.part.repulsive>
0.8103

> <Gold.PLP.ligand.clash>
0.7944

> <Gold.PLP.ligand.torsion>
0.7756

> <Gold.PLP.Chemscore.Hbond>
0.6793

> <Gold.PLP.Chemscore.CHOScore>
0.0000

> <Gold.PLP.Chemscore.Metal>
0.0000

> <Gold.Chemscore.Hbonds>
donor molecule, donor type, donor heavy atom, donor atom, acceptor molecule, acceptor atom, score
      L1  H     8    22       P1  9396  0.50

> <Gold.PLP.Chemscore.Internal.Correction>
   9.000000E+99

