#       Name:                CT1002167954
#       Creating user name   hitesit
#       Creation time:       Sun Apr 16 20:16:43 2023


#       File generated by GOLD software.
#

@<TRIPOS>MOLECULE
CT1002167954|ligand_prepared|mol2|1|dock4
    29    30     1
SMALL
NO_CHARGES


@<TRIPOS>ATOM
      1 C1         121.2271 245.7001 358.4615 C.3            1 RES1               0.0000
      2 C2         119.7664 246.1914 358.5234 C.ar           1 RES1               0.0000
      3 C3         121.2369 244.5036 357.5147 C.2            1 RES1               0.0000
      4 C4         122.0553 246.8845 357.9760 C.2            1 RES1               0.0000
      5 C5         121.7931 245.2496 359.8283 C.3            1 RES1               0.0000
      6 C6         119.0456 246.4198 357.3551 C.ar           1 RES1               0.0000
      7 C7         119.1266 246.4176 359.7391 C.ar           1 RES1               0.0000
      8 N8         121.7747 244.6837 356.2744 N.am           1 RES1               0.0000
      9 O9         120.7446 243.4294 357.8372 O.2            1 RES1               0.0000
     10 N10        122.6644 246.7836 356.7526 N.am           1 RES1               0.0000
     11 O11        122.1724 247.9107 358.6344 O.2            1 RES1               0.0000
     12 C12        123.1330 244.5371 359.7323 C.3            1 RES1               0.0000
     13 C13        117.7317 246.8558 357.4004 C.ar           1 RES1               0.0000
     14 C14        117.8126 246.8538 359.7822 C.ar           1 RES1               0.0000
     15 C15        122.5364 245.7490 355.8663 C.2            1 RES1               0.0000
     16 C16        117.1143 247.0727 358.6138 C.ar           1 RES1               0.0000
     17 O17        123.0717 245.7551 354.7615 O.2            1 RES1               0.0000
     18 H18        121.9073 246.1311 360.4712 H              1 RES1               0.0000
     19 H19        121.0695 244.5776 360.3061 H              1 RES1               0.0000
     20 H20        119.5156 246.2570 356.3909 H              1 RES1               0.0000
     21 H21        119.6568 246.2531 360.6710 H              1 RES1               0.0000
     22 H22        121.5938 243.9594 355.5868 H              1 RES1               0.0000
     23 H23        123.2693 247.5508 356.4771 H              1 RES1               0.0000
     24 H24        123.4848 244.2425 360.7188 H              1 RES1               0.0000
     25 H25        123.0505 243.6412 359.1204 H              1 RES1               0.0000
     26 H26        123.8834 245.1854 359.2845 H              1 RES1               0.0000
     27 H27        117.1869 247.0279 356.4780 H              1 RES1               0.0000
     28 H28        117.3309 247.0238 360.7394 H              1 RES1               0.0000
     29 H29        116.0849 247.4138 358.6491 H              1 RES1               0.0000
@<TRIPOS>BOND
    1    1    2 1     
    2    1    3 1     
    3    1    4 1     
    4    1    5 1     
    5    2    6 ar    
    6    2    7 ar    
    7    3    8 1     
    8    3    9 2     
    9    4   10 1     
   10    4   11 2     
   11    5   12 1     
   12    5   18 1     
   13    5   19 1     
   14    6   13 ar    
   15    6   20 1     
   16    7   14 ar    
   17    7   21 1     
   18    8   15 1     
   19    8   22 1     
   20   10   15 1     
   21   10   23 1     
   22   12   24 1     
   23   12   25 1     
   24   12   26 1     
   25   13   16 ar    
   26   13   27 1     
   27   14   16 ar    
   28   14   28 1     
   29   15   17 2     
   30   16   29 1     
@<TRIPOS>SUBSTRUCTURE
      1 RES1           1
@<TRIPOS>SET
DONOR_HYDROGENS      STATIC     ATOMS    <user>   **** ""
2 22 23
ATOM$RED        STATIC     ATOMS    COLORGROUP SYSTEM
2 22 23
@<TRIPOS>COMMENT
> <Gold.Version>
2022.3.0

> <Gold.Id.Protein>
unknown|4uh5_clean|pdb

> <Gold.Protein.RotatedTorsions>
[ 9141 9120 9119 9117 ] final -104.89 input   60.01 | X-H torsion
[ 9040 9030 9029 9026 ] final -167.19 input   59.99 | X-H torsion
[ 8396 8366 8365 8363 ] final -100.32 input   60.01 | X-H torsion

> <Gold.Protein.ActiveResidues>
 MET341  TRP414  CYS420  VAL421  GLY422  LEU429  LEU460  SER462  ALA463  ILE464 
 SER482  GLN483  LEU484  ILE485  ARG486  TYR487  ASP500  ALA502  ASN503  TRP566 
 TYR567  LEU569  PRO570  ALA571  VAL572  SER573  ASN574  PRO588  PHE589  SER590 
 GLY591  TRP592  TYR593  MET594  GLY595  THR596  GLU597  ILE598  ARG601  ASP602 
 ASP605  ARG608  ILE653  VAL654  TRP683  PRO687  SER691  PHE696  HIS697  TYR711 
 HEM750  H4B760 

> <Gold.Protein.RotatedAtoms>
  126.1129  241.9584  359.3079 H   0  0  0  0  0  0  0  0  0  0  0  0  # atno 8396 bound_to 8366
  116.0968  244.8966  367.3160 H   0  0  0  0  0  0  0  0  0  0  0  0  # atno 9040 bound_to 9030
  123.6832  240.7754  358.7270 H   0  0  0  0  0  0  0  0  0  0  0  0  # atno 9141 bound_to 9120
  122.9529  241.6290  359.9043 LP  0  0  0  0  0  0  0  0  0  0  0  0  # atno 13532 bound_to 9120
  122.9316  242.1723  358.3645 LP  0  0  0  0  0  0  0  0  0  0  0  0  # atno 13533 bound_to 9120
  115.0910  244.4558  366.1151 LP  0  0  0  0  0  0  0  0  0  0  0  0  # atno 13546 bound_to 9030
  115.1316  246.0077  366.6217 LP  0  0  0  0  0  0  0  0  0  0  0  0  # atno 13547 bound_to 9030
  126.9427  242.7565  360.4577 LP  0  0  0  0  0  0  0  0  0  0  0  0  # atno 13558 bound_to 8366
  125.3451  243.0311  360.2604 LP  0  0  0  0  0  0  0  0  0  0  0  0  # atno 13559 bound_to 8366

> <Gold.Score>
     Fitness  S(hb_ext) S(vdw_ext)  S(hb_int)    S(int)      intcor
     37.56       0.00      27.58       0.00      -0.36      -0.76

> <Gold.Goldscore.Fitness>
37.5592

> <Gold.Goldscore.Internal.Vdw>
-0.5822

> <Gold.Goldscore.Internal.Torsion>
-0.5406

> <Gold.Goldscore.External.Vdw>
27.5799

> <Gold.Goldscore.Internal.HBond>
0.0000

> <Gold.Goldscore.External.HBond>
0.0000

> <Gold.Goldscore.Internal.Correction>
-0.7595

> <Gold.Goldscore.Internal.Vdw.Weighted>
-0.5822

> <Gold.Goldscore.Internal.Torsion.Weighted>
-0.5406

> <Gold.Goldscore.External.Vdw.Weighted>
37.9224

> <Gold.Goldscore.Internal.HBond.Weighted>
0.0000

> <Gold.Goldscore.External.HBond.Weighted>
0.0000

> <Gold.Goldscore.Internal.Correction.Weighted>
-0.7595

> <Gold.Rescore>
     Score     S(PLP)   S(hbond)     S(cho)   S(metal)  DE(clash)   DE(tors)     intcor
     38.15     -37.22       0.79       0.00       0.00       0.00       0.71       ----

> <Gold.PLP.Fitness>
38.1487

> <Gold.PLP.PLP>
-37.2198

> <Gold.PLP.part.hbond>
-2.7012

> <Gold.PLP.part.metal>
0.0000

> <Gold.PLP.part.buried>
10.1472

> <Gold.PLP.part.nonpolar>
-45.8843

> <Gold.PLP.part.repulsive>
0.5112

> <Gold.PLP.ligand.clash>
0.0000

> <Gold.PLP.ligand.torsion>
0.7141

> <Gold.PLP.Chemscore.Hbond>
0.7857

> <Gold.PLP.Chemscore.CHOScore>
0.0000

> <Gold.PLP.Chemscore.Metal>
0.0000

> <Gold.Chemscore.Hbonds>
donor molecule, donor type, donor heavy atom, donor atom, acceptor molecule, acceptor atom, score
      L1  H     8    22       P1  9234  0.11
      P1  H  5622  5648       L1    11  0.32

> <Gold.PLP.Chemscore.Internal.Correction>
   9.000000E+99

