@<TRIPOS>MOLECULE
A:ACT361
     8     7     1     0     1
SMALL
NO_CHARGES
****
Generated from the CSD

@<TRIPOS>ATOM
     1 C       48.4460  32.9340  32.7450   C.2       1 ACT361   0.0000
     2 O       49.4400  32.6860  32.0140   O.2       1 ACT361   0.0000
     3 CH3     48.5150  33.9940  33.8020   C.3       1 ACT361   0.0000
     4 OXT     47.4040  32.2500  32.5450   O.3       1 ACT361   0.0000
     5 H1      47.6070  31.2884  32.6870   H         1 ACT361   0.0000
     6 H2      48.7365  34.9545  33.3390   H         1 ACT361   0.0000
     7 H3      47.5590  34.0527  34.3202   H         1 ACT361   0.0000
     8 H4      49.2996  33.7451  34.5150   H         1 ACT361   0.0000
@<TRIPOS>BOND
     1     1     2    2
     2     1     3    1
     3     1     4    1
     4     4     5    1
     5     3     6    1
     6     3     7    1
     7     3     8    1
@<TRIPOS>SUBSTRUCTURE
     1 ACT361      1 GROUP             0 A     ACT     0  
@<TRIPOS>SET
CCDC_LIGAND STATIC ATOMS
8 1 2 3 4 5 6 7 8 
