#       Name:                CT1002167954
#       Creating user name   hitesit
#       Creation time:       Sun Apr 16 02:22:05 2023


#       File generated by GOLD software.
#

@<TRIPOS>MOLECULE
CT1002167954|ligand_prepared|mol2|1|dock1
    29    30     1
SMALL
NO_CHARGES


@<TRIPOS>ATOM
      1 C1         -44.7642  25.7938   3.0706 C.3            1 RES1               0.0000
      2 C2         -43.7608  25.3298   4.1461 C.ar           1 RES1               0.0000
      3 C3         -45.2883  24.5279   2.3990 C.2            1 RES1               0.0000
      4 C4         -45.8330  26.5977   3.8028 C.2            1 RES1               0.0000
      5 C5         -44.1415  26.7035   1.9860 C.3            1 RES1               0.0000
      6 C6         -44.2054  24.9122   5.3970 C.ar           1 RES1               0.0000
      7 C7         -42.3902  25.3113   3.9016 C.ar           1 RES1               0.0000
      8 N8         -46.5600  24.1350   2.6964 N.am           1 RES1               0.0000
      9 O9         -44.5829  23.8628   1.6505 O.2            1 RES1               0.0000
     10 N10        -47.1075  26.0951   3.8314 N.am           1 RES1               0.0000
     11 O11        -45.5794  27.6536   4.3694 O.2            1 RES1               0.0000
     12 C12        -45.1663  27.3653   1.0784 C.3            1 RES1               0.0000
     13 C13        -43.3126  24.4886   6.3673 C.ar           1 RES1               0.0000
     14 C14        -41.4990  24.8875   4.8736 C.ar           1 RES1               0.0000
     15 C15        -47.5128  24.8850   3.3377 C.2            1 RES1               0.0000
     16 C16        -41.9590  24.4756   6.1062 C.ar           1 RES1               0.0000
     17 O17        -48.6656  24.4780   3.4499 O.2            1 RES1               0.0000
     18 H18        -43.5488  27.4846   2.4780 H              1 RES1               0.0000
     19 H19        -43.4601  26.1033   1.3704 H              1 RES1               0.0000
     20 H20        -45.2669  24.9179   5.6215 H              1 RES1               0.0000
     21 H21        -42.0056  25.6320   2.9395 H              1 RES1               0.0000
     22 H22        -46.8271  23.1967   2.4162 H              1 RES1               0.0000
     23 H23        -47.8201  26.6769   4.2604 H              1 RES1               0.0000
     24 H24        -44.6765  27.9920   0.3361 H              1 RES1               0.0000
     25 H25        -45.7571  26.6173   0.5538 H              1 RES1               0.0000
     26 H26        -45.8453  27.9903   1.6548 H              1 RES1               0.0000
     27 H27        -43.6795  24.1667   7.3363 H              1 RES1               0.0000
     28 H28        -40.4345  24.8795   4.6639 H              1 RES1               0.0000
     29 H29        -41.2597  24.1433   6.8664 H              1 RES1               0.0000
@<TRIPOS>BOND
    1    1    2 1     
    2    1    3 1     
    3    1    4 1     
    4    1    5 1     
    5    2    6 ar    
    6    2    7 ar    
    7    3    8 1     
    8    3    9 2     
    9    4   10 1     
   10    4   11 2     
   11    5   12 1     
   12    5   18 1     
   13    5   19 1     
   14    6   13 ar    
   15    6   20 1     
   16    7   14 ar    
   17    7   21 1     
   18    8   15 1     
   19    8   22 1     
   20   10   15 1     
   21   10   23 1     
   22   12   24 1     
   23   12   25 1     
   24   12   26 1     
   25   13   16 ar    
   26   13   27 1     
   27   14   16 ar    
   28   14   28 1     
   29   15   17 2     
   30   16   29 1     
@<TRIPOS>SUBSTRUCTURE
      1 RES1           1
@<TRIPOS>SET
DONOR_HYDROGENS      STATIC     ATOMS    <user>   **** ""
2 22 23
ATOM$RED        STATIC     ATOMS    COLORGROUP SYSTEM
2 22 23
@<TRIPOS>COMMENT
> <Gold.Version>
2022.3.0

> <Gold.Id.Protein>
unknown|7ta6_clean|pdb

> <Gold.Protein.RotatedTorsions>
[ 12165 12063 12062 12060 ] final   47.42 input   59.99 | X-H torsion
[ 2816 2645 2646 2647 ] final  169.51 input  110.81 | X-H torsion
[ 17517 17490 17491 17492 ] final  -59.30 input  128.41 | X-H torsion
[ 17444 17358 17359 17360 ] final  -23.55 input   71.00 | X-H torsion
[ 16061 15941 15940 15938 ] final  -80.06 input   60.02 | X-H torsion
[ 20694 2648 2647 2646 ] final -126.96 input    0.00 | X-H torsion
[ 20709 17361 17360 17359 ] final  176.22 input    0.00 | X-H torsion
[ 20712 20041 20040 20039 ] final   12.86 input    0.00 | X-H torsion

> <Gold.Protein.ActiveResidues>
 TRP28   LEU57   ILE58   TYR59   SER60   LEU94   TYR119  LEU120  GLY121  GLY122 
 VAL123  PHE124  TYR151  XCP1    LEU2    GLY3    TRP4    ILE6    ILE24   LEU25  

> <Gold.Protein.RotatedAtoms>
  -39.4019   28.5461   11.8498 H   0  0  0  0  0  0  0  0  0  0  0  0  # atno 2816 bound_to 2645
  -39.3361   23.2558    8.6918 H   0  0  0  0  0  0  0  0  0  0  0  0  # atno 12165 bound_to 12063
  -35.3135   20.2503    9.4537 H   0  0  0  0  0  0  0  0  0  0  0  0  # atno 16061 bound_to 15941
  -33.0776   26.5242    7.8069 H   0  0  0  0  0  0  0  0  0  0  0  0  # atno 17444 bound_to 17358
  -34.6515   24.8398    8.7448 H   0  0  0  0  0  0  0  0  0  0  0  0  # atno 17517 bound_to 17490
  -40.2197   31.4910    7.7937 LP  0  0  0  0  0  0  0  0  0  0  0  0  # atno 20694 bound_to 2648
  -41.3892   30.2143    7.7480 LP  0  0  0  0  0  0  0  0  0  0  0  0  # atno 20695 bound_to 2648
  -40.3441   22.1293    8.0895 LP  0  0  0  0  0  0  0  0  0  0  0  0  # atno 20700 bound_to 12063
  -40.0417   23.4939    7.2449 LP  0  0  0  0  0  0  0  0  0  0  0  0  # atno 20701 bound_to 12063
  -39.0880   30.2386   11.5331 LP  0  0  0  0  0  0  0  0  0  0  0  0  # atno 20708 bound_to 2645
  -34.7219   24.0063   10.5146 LP  0  0  0  0  0  0  0  0  0  0  0  0  # atno 20709 bound_to 17361
  -35.2431   25.6463   10.7118 LP  0  0  0  0  0  0  0  0  0  0  0  0  # atno 20710 bound_to 17361
  -33.8948   24.5105    7.2034 LP  0  0  0  0  0  0  0  0  0  0  0  0  # atno 20711 bound_to 17490
  -40.1232   26.9062   13.1030 LP  0  0  0  0  0  0  0  0  0  0  0  0  # atno 20712 bound_to 20041
  -41.1667   28.2541   12.7962 LP  0  0  0  0  0  0  0  0  0  0  0  0  # atno 20713 bound_to 20041
  -33.9963   27.6326    6.7215 LP  0  0  0  0  0  0  0  0  0  0  0  0  # atno 20714 bound_to 17358

> <Gold.Score>
     Fitness  S(hb_ext) S(vdw_ext)  S(hb_int)    S(int)      intcor
     28.44       0.04      20.74       0.00      -0.12      -0.79

> <Gold.Goldscore.Fitness>
28.4415

> <Gold.Goldscore.Internal.Vdw>
-0.3666

> <Gold.Goldscore.Internal.Torsion>
-0.5416

> <Gold.Goldscore.External.Vdw>
20.7439

> <Gold.Goldscore.Internal.HBond>
0.0000

> <Gold.Goldscore.External.HBond>
0.0396

> <Gold.Goldscore.Internal.Correction>
-0.7872

> <Gold.Goldscore.Hbonds>
donor molecule, donor type, donor heavy atom, donor atom, acceptor molecule, acceptor atom, score
      P1  H 12484 12549       L1    17  0.02

> <Gold.Goldscore.Internal.Vdw.Weighted>
-0.3666

> <Gold.Goldscore.Internal.Torsion.Weighted>
-0.5416

> <Gold.Goldscore.External.Vdw.Weighted>
28.5229

> <Gold.Goldscore.Internal.HBond.Weighted>
0.0000

> <Gold.Goldscore.External.HBond.Weighted>
0.0396

> <Gold.Goldscore.Internal.Correction.Weighted>
-0.7872

> <Gold.Rescore>
     Score     S(PLP)   S(hbond)     S(cho)   S(metal)  DE(clash)   DE(tors)     intcor
     27.74     -27.39       0.85       0.00       0.00       0.00       1.10       ----

> <Gold.PLP.Fitness>
27.7414

> <Gold.PLP.PLP>
-27.3878

> <Gold.PLP.part.hbond>
-1.0000

> <Gold.PLP.part.metal>
0.0000

> <Gold.PLP.part.buried>
-4.2664

> <Gold.PLP.part.nonpolar>
-23.4871

> <Gold.PLP.part.repulsive>
0.2948

> <Gold.PLP.ligand.clash>
0.0000

> <Gold.PLP.ligand.torsion>
1.0982

> <Gold.PLP.Chemscore.Hbond>
0.8500

> <Gold.PLP.Chemscore.CHOScore>
0.0000

> <Gold.PLP.Chemscore.Metal>
0.0000

> <Gold.Chemscore.Hbonds>
donor molecule, donor type, donor heavy atom, donor atom, acceptor molecule, acceptor atom, score
      P1  H 12484 12549       L1    17  0.28

> <Gold.PLP.Chemscore.Internal.Correction>
   9.000000E+99

