#       Name:                CT1002167954
#       Creating user name   hitesit
#       Creation time:       Sun Apr 16 02:22:08 2023


#       File generated by GOLD software.
#

@<TRIPOS>MOLECULE
CT1002167954|ligand_prepared|mol2|1|dock5
    29    30     1
SMALL
NO_CHARGES


@<TRIPOS>ATOM
      1 C1         -45.0448  25.6239   3.3015 C.3            1 RES1               0.0000
      2 C2         -43.8838  25.2101   4.2286 C.ar           1 RES1               0.0000
      3 C3         -44.7422  27.0482   2.8453 C.2            1 RES1               0.0000
      4 C4         -45.0732  24.6013   2.1709 C.2            1 RES1               0.0000
      5 C5         -46.4292  25.6126   3.9907 C.3            1 RES1               0.0000
      6 C6         -42.5630  25.3282   3.8061 C.ar           1 RES1               0.0000
      7 C7         -44.1172  24.7121   5.5077 C.ar           1 RES1               0.0000
      8 N8         -44.3200  27.2239   1.5605 N.am           1 RES1               0.0000
      9 O9         -44.8345  27.9982   3.6129 O.2            1 RES1               0.0000
     10 N10        -44.7812  25.0359   0.9046 N.am           1 RES1               0.0000
     11 O11        -45.3295  23.4199   2.3678 O.2            1 RES1               0.0000
     12 C12        -47.5559  26.1327   3.1119 C.3            1 RES1               0.0000
     13 C13        -41.5135  24.9644   4.6334 C.ar           1 RES1               0.0000
     14 C14        -43.0661  24.3486   6.3333 C.ar           1 RES1               0.0000
     15 C15        -44.3759  26.2946   0.5529 C.2            1 RES1               0.0000
     16 C16        -41.7642  24.4748   5.8975 C.ar           1 RES1               0.0000
     17 O17        -44.0782  26.5954  -0.5995 O.2            1 RES1               0.0000
     18 H18        -46.6640  24.5850   4.2945 H              1 RES1               0.0000
     19 H19        -46.3769  26.2269   4.8981 H              1 RES1               0.0000
     20 H20        -42.3464  25.7092   2.8137 H              1 RES1               0.0000
     21 H21        -45.1333  24.6031   5.8712 H              1 RES1               0.0000
     22 H22        -43.9263  28.1299   1.3272 H              1 RES1               0.0000
     23 H23        -44.8748  24.3584   0.1545 H              1 RES1               0.0000
     24 H24        -48.5047  26.1032   3.6435 H              1 RES1               0.0000
     25 H25        -47.3675  27.1614   2.8117 H              1 RES1               0.0000
     26 H26        -47.6528  25.5293   2.2118 H              1 RES1               0.0000
     27 H27        -40.4908  25.0644   4.2852 H              1 RES1               0.0000
     28 H28        -43.2681  23.9632   7.3272 H              1 RES1               0.0000
     29 H29        -40.9418  24.1903   6.5456 H              1 RES1               0.0000
@<TRIPOS>BOND
    1    1    2 1     
    2    1    3 1     
    3    1    4 1     
    4    1    5 1     
    5    2    6 ar    
    6    2    7 ar    
    7    3    8 1     
    8    3    9 2     
    9    4   10 1     
   10    4   11 2     
   11    5   12 1     
   12    5   18 1     
   13    5   19 1     
   14    6   13 ar    
   15    6   20 1     
   16    7   14 ar    
   17    7   21 1     
   18    8   15 1     
   19    8   22 1     
   20   10   15 1     
   21   10   23 1     
   22   12   24 1     
   23   12   25 1     
   24   12   26 1     
   25   13   16 ar    
   26   13   27 1     
   27   14   16 ar    
   28   14   28 1     
   29   15   17 2     
   30   16   29 1     
@<TRIPOS>SUBSTRUCTURE
      1 RES1           1
@<TRIPOS>SET
DONOR_HYDROGENS      STATIC     ATOMS    <user>   **** ""
2 22 23
ATOM$RED        STATIC     ATOMS    COLORGROUP SYSTEM
2 22 23
@<TRIPOS>COMMENT
> <Gold.Version>
2022.3.0

> <Gold.Id.Protein>
unknown|7ta6_clean|pdb

> <Gold.Protein.RotatedTorsions>
[ 12165 12063 12062 12060 ] final   61.16 input   59.99 | X-H torsion
[ 2816 2645 2646 2647 ] final  116.78 input  110.81 | X-H torsion
[ 17517 17490 17491 17492 ] final   27.07 input  128.41 | X-H torsion
[ 17444 17358 17359 17360 ] final -126.43 input   71.00 | X-H torsion
[ 16061 15941 15940 15938 ] final  116.74 input   60.02 | X-H torsion
[ 20694 2648 2647 2646 ] final -105.99 input    0.00 | X-H torsion
[ 20709 17361 17360 17359 ] final -103.08 input    0.00 | X-H torsion
[ 20712 20041 20040 20039 ] final  145.16 input    0.00 | X-H torsion

> <Gold.Protein.ActiveResidues>
 TRP28   LEU57   ILE58   TYR59   SER60   LEU94   TYR119  LEU120  GLY121  GLY122 
 VAL123  PHE124  TYR151  XCP1    LEU2    GLY3    TRP4    ILE6    ILE24   LEU25  

> <Gold.Protein.RotatedAtoms>
  -39.9084   29.0619   12.1672 H   0  0  0  0  0  0  0  0  0  0  0  0  # atno 2816 bound_to 2645
  -39.3112   23.4332    8.5572 H   0  0  0  0  0  0  0  0  0  0  0  0  # atno 12165 bound_to 12063
  -35.1900   21.4023   10.8993 H   0  0  0  0  0  0  0  0  0  0  0  0  # atno 16061 bound_to 15941
  -33.7135   27.9106    7.8115 H   0  0  0  0  0  0  0  0  0  0  0  0  # atno 17444 bound_to 17358
  -33.5252   24.9956    8.3231 H   0  0  0  0  0  0  0  0  0  0  0  0  # atno 17517 bound_to 17490
  -40.0312   31.2422    7.7499 LP  0  0  0  0  0  0  0  0  0  0  0  0  # atno 20694 bound_to 2648
  -41.5776   30.4631    7.7918 LP  0  0  0  0  0  0  0  0  0  0  0  0  # atno 20695 bound_to 2648
  -40.2344   22.1209    8.2865 LP  0  0  0  0  0  0  0  0  0  0  0  0  # atno 20700 bound_to 12063
  -40.1764   23.3236    7.1835 LP  0  0  0  0  0  0  0  0  0  0  0  0  # atno 20701 bound_to 12063
  -38.5974   29.7389   11.2258 LP  0  0  0  0  0  0  0  0  0  0  0  0  # atno 20708 bound_to 2645
  -34.1399   24.9255   10.7868 LP  0  0  0  0  0  0  0  0  0  0  0  0  # atno 20709 bound_to 17361
  -35.8252   24.7272   10.4397 LP  0  0  0  0  0  0  0  0  0  0  0  0  # atno 20710 bound_to 17361
  -34.9909   24.3588    7.6139 LP  0  0  0  0  0  0  0  0  0  0  0  0  # atno 20711 bound_to 17490
  -41.4644   27.6321   12.6743 LP  0  0  0  0  0  0  0  0  0  0  0  0  # atno 20712 bound_to 20041
  -39.8255   27.5283   13.2249 LP  0  0  0  0  0  0  0  0  0  0  0  0  # atno 20713 bound_to 20041
  -33.4755   26.4972    6.7177 LP  0  0  0  0  0  0  0  0  0  0  0  0  # atno 20714 bound_to 17358

> <Gold.Score>
     Fitness  S(hb_ext) S(vdw_ext)  S(hb_int)    S(int)      intcor
     25.62       0.00      18.68       0.00      -0.06      -0.76

> <Gold.Goldscore.Fitness>
25.6217

> <Gold.Goldscore.Internal.Vdw>
-0.4124

> <Gold.Goldscore.Internal.Torsion>
-0.4074

> <Gold.Goldscore.External.Vdw>
18.6786

> <Gold.Goldscore.Internal.HBond>
0.0000

> <Gold.Goldscore.External.HBond>
0.0000

> <Gold.Goldscore.Internal.Correction>
-0.7585

> <Gold.Goldscore.Internal.Vdw.Weighted>
-0.4124

> <Gold.Goldscore.Internal.Torsion.Weighted>
-0.4074

> <Gold.Goldscore.External.Vdw.Weighted>
25.6830

> <Gold.Goldscore.Internal.HBond.Weighted>
0.0000

> <Gold.Goldscore.External.HBond.Weighted>
0.0000

> <Gold.Goldscore.Internal.Correction.Weighted>
-0.7585

> <Gold.Rescore>
     Score     S(PLP)   S(hbond)     S(cho)   S(metal)  DE(clash)   DE(tors)     intcor
     24.67     -24.86       0.00       0.00       0.00       0.00       0.10       ----

> <Gold.PLP.Fitness>
24.6717

> <Gold.PLP.PLP>
-24.8647

> <Gold.PLP.part.hbond>
0.0000

> <Gold.PLP.part.metal>
0.0000

> <Gold.PLP.part.buried>
-1.3138

> <Gold.PLP.part.nonpolar>
-26.4495

> <Gold.PLP.part.repulsive>
1.2997

> <Gold.PLP.ligand.clash>
0.0000

> <Gold.PLP.ligand.torsion>
0.0965

> <Gold.PLP.Chemscore.Hbond>
0.0000

> <Gold.PLP.Chemscore.CHOScore>
0.0000

> <Gold.PLP.Chemscore.Metal>
0.0000

> <Gold.PLP.Chemscore.Internal.Correction>
   9.000000E+99

