#       Name:                CT1002167954
#       Creating user name   hitesit
#       Creation time:       Sun Apr 16 02:23:29 2023


#       File generated by GOLD software.
#

@<TRIPOS>MOLECULE
CT1002167954|ligand_prepared|mol2|1|dock3
    29    30     1
SMALL
NO_CHARGES


@<TRIPOS>ATOM
      1 C1         133.3286 155.0542 148.1493 C.3            1 RES1               0.0000
      2 C2         132.2972 155.0834 149.2957 C.ar           1 RES1               0.0000
      3 C3         132.9447 153.8771 147.2575 C.2            1 RES1               0.0000
      4 C4         133.2395 156.4115 147.4606 C.2            1 RES1               0.0000
      5 C5         134.7864 154.8548 148.6254 C.3            1 RES1               0.0000
      6 C6         130.9774 154.7032 149.0714 C.ar           1 RES1               0.0000
      7 C7         132.6506 155.4850 150.5812 C.ar           1 RES1               0.0000
      8 N8         132.3661 154.1579 146.0549 N.am           1 RES1               0.0000
      9 O9         133.1108 152.7193 147.6209 O.2            1 RES1               0.0000
     10 N10        132.7872 156.4470 146.1676 N.am           1 RES1               0.0000
     11 O11        133.5411 157.4524 148.0315 O.2            1 RES1               0.0000
     12 C12        135.7566 154.5166 147.5044 C.3            1 RES1               0.0000
     13 C13        130.0453 154.7209 150.0957 C.ar           1 RES1               0.0000
     14 C14        131.7168 155.5022 151.6041 C.ar           1 RES1               0.0000
     15 C15        132.3174 155.3850 145.4438 C.2            1 RES1               0.0000
     16 C16        130.4144 155.1199 151.3626 C.ar           1 RES1               0.0000
     17 O17        131.8760 155.5051 144.3046 O.2            1 RES1               0.0000
     18 H18        135.1250 155.7733 149.1203 H              1 RES1               0.0000
     19 H19        134.8083 154.0467 149.3670 H              1 RES1               0.0000
     20 H20        130.6679 154.3886 148.0803 H              1 RES1               0.0000
     21 H21        133.6693 155.7909 150.7940 H              1 RES1               0.0000
     22 H22        131.9292 153.3839 145.5646 H              1 RES1               0.0000
     23 H23        132.8023 157.3485 145.7013 H              1 RES1               0.0000
     24 H24        136.7646 154.3872 147.8927 H              1 RES1               0.0000
     25 H25        135.4643 153.5945 147.0063 H              1 RES1               0.0000
     26 H26        135.7791 155.3109 146.7611 H              1 RES1               0.0000
     27 H27        129.0212 154.4204 149.9001 H              1 RES1               0.0000
     28 H28        132.0115 155.8175 152.5995 H              1 RES1               0.0000
     29 H29        129.6841 155.1333 152.1649 H              1 RES1               0.0000
@<TRIPOS>BOND
    1    1    2 1     
    2    1    3 1     
    3    1    4 1     
    4    1    5 1     
    5    2    6 ar    
    6    2    7 ar    
    7    3    8 1     
    8    3    9 2     
    9    4   10 1     
   10    4   11 2     
   11    5   12 1     
   12    5   18 1     
   13    5   19 1     
   14    6   13 ar    
   15    6   20 1     
   16    7   14 ar    
   17    7   21 1     
   18    8   15 1     
   19    8   22 1     
   20   10   15 1     
   21   10   23 1     
   22   12   24 1     
   23   12   25 1     
   24   12   26 1     
   25   13   16 ar    
   26   13   27 1     
   27   14   16 ar    
   28   14   28 1     
   29   15   17 2     
   30   16   29 1     
@<TRIPOS>SUBSTRUCTURE
      1 RES1           1
@<TRIPOS>SET
DONOR_HYDROGENS      STATIC     ATOMS    <user>   **** ""
2 22 23
ATOM$RED        STATIC     ATOMS    COLORGROUP SYSTEM
2 22 23
@<TRIPOS>COMMENT
> <Gold.Version>
2022.3.0

> <Gold.Id.Protein>
unknown|7xmr_cavity_clean|pdb

> <Gold.Protein.RotatedTorsions>
[ 12006 11997 11998 11999 ] final -107.88 input  108.66 | X-H torsion
[ 12016 12005 12004 12003 ] final   42.45 input   59.98 | X-H torsion
[ 1008 1003 1002 1001 ] final  -70.55 input   59.97 | X-H torsion
[ 12074 12063 12062 12061 ] final  -96.56 input   60.02 | X-H torsion
[ 3571 3566 3564 3561 ] final  -35.34 input   59.98 | X-H torsion
[ 10750 10743 10741 10738 ] final   10.77 input   60.00 | X-H torsion
[ 12029 12024 12023 12020 ] final  171.73 input   59.99 | X-H torsion
[ 11960 11951 11952 11953 ] final   80.25 input   62.39 | X-H torsion

> <Gold.Protein.ActiveResidues>
 LYS192  PHE336  ASP337  THR340  ASP341  ILE344  THR163  MET164  ALA165  VAL166 
 TRP167  GLY168  LYS246  LYS249  SER250  LYS253  VAL254 

> <Gold.Protein.RotatedAtoms>
  145.0080  165.2766  124.5992 H   0  0  0  0  0  0  0  0  0  0  0  0  # atno 1008 bound_to 1003
  143.6634  164.5330  125.2213 H   0  0  0  0  0  0  0  0  0  0  0  0  # atno 1009 bound_to 1003
  144.9272  163.6221  124.6533 H   0  0  0  0  0  0  0  0  0  0  0  0  # atno 1010 bound_to 1003
  138.7396  160.9927  127.7017 H   0  0  0  0  0  0  0  0  0  0  0  0  # atno 3571 bound_to 3566
  136.2734  133.1679  123.3530 H   0  0  0  0  0  0  0  0  0  0  0  0  # atno 10750 bound_to 10743
  139.3400  164.0898  143.1736 H   0  0  0  0  0  0  0  0  0  0  0  0  # atno 11960 bound_to 11951
  141.5310  158.3566  147.7529 H   0  0  0  0  0  0  0  0  0  0  0  0  # atno 12006 bound_to 11997
  134.6172  158.9356  149.7923 H   0  0  0  0  0  0  0  0  0  0  0  0  # atno 12016 bound_to 12005
  135.4163  159.8594  150.9133 H   0  0  0  0  0  0  0  0  0  0  0  0  # atno 12017 bound_to 12005
  134.8993  160.5410  149.4941 H   0  0  0  0  0  0  0  0  0  0  0  0  # atno 12018 bound_to 12005
  140.3137  157.5564  141.4147 H   0  0  0  0  0  0  0  0  0  0  0  0  # atno 12029 bound_to 12024
  134.1850  149.7452  146.4534 H   0  0  0  0  0  0  0  0  0  0  0  0  # atno 12074 bound_to 12063
  134.6177  150.6207  145.1145 H   0  0  0  0  0  0  0  0  0  0  0  0  # atno 12075 bound_to 12063
  134.1966  149.0247  144.9607 H   0  0  0  0  0  0  0  0  0  0  0  0  # atno 12076 bound_to 12063
  140.3010  161.4386  127.8131 LP  0  0  0  0  0  0  0  0  0  0  0  0  # atno 13008 bound_to 3566
  139.1200  162.4690  128.2716 LP  0  0  0  0  0  0  0  0  0  0  0  0  # atno 13009 bound_to 3566
  135.4389  134.1693  124.3273 LP  0  0  0  0  0  0  0  0  0  0  0  0  # atno 13012 bound_to 10743
  135.1257  132.5666  124.3378 LP  0  0  0  0  0  0  0  0  0  0  0  0  # atno 13013 bound_to 10743
  141.1773  156.3628  142.1053 LP  0  0  0  0  0  0  0  0  0  0  0  0  # atno 13022 bound_to 12024
  140.9724  157.7828  142.8852 LP  0  0  0  0  0  0  0  0  0  0  0  0  # atno 13023 bound_to 12024

> <Gold.Score>
     Fitness  S(hb_ext) S(vdw_ext)  S(hb_int)    S(int)      intcor
     21.67       0.00      16.08       0.00      -0.44      -0.77

> <Gold.Goldscore.Fitness>
21.6673

> <Gold.Goldscore.Internal.Vdw>
-0.5773

> <Gold.Goldscore.Internal.Torsion>
-0.6307

> <Gold.Goldscore.External.Vdw>
16.0776

> <Gold.Goldscore.Internal.HBond>
0.0000

> <Gold.Goldscore.External.HBond>
0.0000

> <Gold.Goldscore.Internal.Correction>
-0.7686

> <Gold.Goldscore.Internal.Vdw.Weighted>
-0.5773

> <Gold.Goldscore.Internal.Torsion.Weighted>
-0.6307

> <Gold.Goldscore.External.Vdw.Weighted>
22.1067

> <Gold.Goldscore.Internal.HBond.Weighted>
0.0000

> <Gold.Goldscore.External.HBond.Weighted>
0.0000

> <Gold.Goldscore.Internal.Correction.Weighted>
-0.7686

> <Gold.Rescore>
     Score     S(PLP)   S(hbond)     S(cho)   S(metal)  DE(clash)   DE(tors)     intcor
     22.19     -24.76       0.02       0.00       0.00       0.00       1.32       ----

> <Gold.PLP.Fitness>
22.1900

> <Gold.PLP.PLP>
-24.7564

> <Gold.PLP.part.hbond>
-2.0000

> <Gold.PLP.part.metal>
0.0000

> <Gold.PLP.part.buried>
-2.3703

> <Gold.PLP.part.nonpolar>
-20.8350

> <Gold.PLP.part.repulsive>
0.2107

> <Gold.PLP.ligand.clash>
0.0000

> <Gold.PLP.ligand.torsion>
1.3198

> <Gold.PLP.Chemscore.Hbond>
0.0245

> <Gold.PLP.Chemscore.CHOScore>
0.0000

> <Gold.PLP.Chemscore.Metal>
0.0000

> <Gold.PLP.Chemscore.Internal.Correction>
   9.000000E+99

