@<TRIPOS>MOLECULE
C:EDO201
    10     9     1     0     1
SMALL
NO_CHARGES
****
Generated from the CSD

@<TRIPOS>ATOM
     1 C1     -38.6100  21.7440 -20.3080   C.3       1 EDO201   0.0000
     2 O1     -40.0390  21.8210 -20.2610   O.3       1 EDO201   0.0000
     3 C2     -38.2160  21.2590 -21.6970   C.3       1 EDO201   0.0000
     4 O2     -38.9020  22.0610 -22.6670   O.3       1 EDO201   0.0000
     5 H1     -38.2517  21.0433 -19.5553   H         1 EDO201   0.0000
     6 H2     -38.1796  22.7271 -20.1228   H         1 EDO201   0.0000
     7 H3     -38.6424  23.0126 -22.5529   H         1 EDO201   0.0000
     8 H4     -40.4248  20.9227 -20.4348   H         1 EDO201   0.0000
     9 H5     -38.4999  20.2144 -21.8162   H         1 EDO201   0.0000
    10 H6     -37.1400  21.3603 -21.8306   H         1 EDO201   0.0000
@<TRIPOS>BOND
     1     1     2    1
     2     1     3    1
     3     3     4    1
     4     1     5    1
     5     1     6    1
     6     4     7    1
     7     2     8    1
     8     3     9    1
     9     3    10    1
@<TRIPOS>SUBSTRUCTURE
     1 EDO201      1 GROUP             0 C     EDO     0  
@<TRIPOS>SET
CCDC_LIGAND STATIC ATOMS
10 1 2 3 4 5 6 7 8 9 \
10 
