@<TRIPOS>MOLECULE
A:EDO201
    10     9     1     0     1
SMALL
NO_CHARGES
****
Generated from the CSD

@<TRIPOS>ATOM
     1 C1     -42.3880  24.7410   5.0640   C.3       1 EDO201   0.0000
     2 O1     -41.7790  24.4600   6.3300   O.3       1 EDO201   0.0000
     3 C2     -41.4590  24.3160   3.9300   C.3       1 EDO201   0.0000
     4 O2     -40.2110  25.0140   4.0300   O.3       1 EDO201   0.0000
     5 H1     -39.7821  24.8021   4.9002   H         1 EDO201   0.0000
     6 H2     -41.9267  24.5487   2.9745   H         1 EDO201   0.0000
     7 H3     -41.2786  23.2440   3.9943   H         1 EDO201   0.0000
     8 H4     -42.5842  25.8095   4.9878   H         1 EDO201   0.0000
     9 H5     -43.3260  24.1932   4.9859   H         1 EDO201   0.0000
    10 H6     -40.9241  24.9596   6.4042   H         1 EDO201   0.0000
@<TRIPOS>BOND
     1     1     2    1
     2     1     3    1
     3     3     4    1
     4     4     5    1
     5     3     6    1
     6     3     7    1
     7     1     8    1
     8     1     9    1
     9     2    10    1
@<TRIPOS>SUBSTRUCTURE
     1 EDO201      1 GROUP             0 A     EDO     0  
@<TRIPOS>SET
CCDC_LIGAND STATIC ATOMS
10 1 2 3 4 5 6 7 8 9 \
10 
