@<TRIPOS>MOLECULE
A:EDO202
    10     9     1     0     1
SMALL
NO_CHARGES
****
Generated from the CSD

@<TRIPOS>ATOM
     1 C1     -44.4030  13.5910  22.4480   C.3       1 EDO202   0.0000
     2 O1     -44.9680  13.5320  23.7640   O.3       1 EDO202   0.0000
     3 C2     -44.8680  12.3600  21.6810   C.3       1 EDO202   0.0000
     4 O2     -44.6870  11.2120  22.5180   O.3       1 EDO202   0.0000
     5 H1     -45.2233  11.3188  23.3469   H         1 EDO202   0.0000
     6 H2     -44.2792  12.2489  20.7716   H         1 EDO202   0.0000
     7 H3     -45.9205  12.4640  21.4215   H         1 EDO202   0.0000
     8 H4     -44.6584  12.7062  24.2204   H         1 EDO202   0.0000
     9 H5     -43.3159  13.5976  22.5124   H         1 EDO202   0.0000
    10 H6     -44.7420  14.4928  21.9403   H         1 EDO202   0.0000
@<TRIPOS>BOND
     1     1     2    1
     2     1     3    1
     3     3     4    1
     4     4     5    1
     5     3     6    1
     6     3     7    1
     7     2     8    1
     8     1     9    1
     9     1    10    1
@<TRIPOS>SUBSTRUCTURE
     1 EDO202      1 GROUP             0 A     EDO     0  
@<TRIPOS>SET
CCDC_LIGAND STATIC ATOMS
10 1 2 3 4 5 6 7 8 9 \
10 
