@<TRIPOS>MOLECULE
B:EDO201
    10     9     1     0     1
SMALL
NO_CHARGES
****
Generated from the CSD

@<TRIPOS>ATOM
     1 C1     -45.1430  26.9980 -19.6660   C.3       1 EDO201   0.0000
     2 O1     -44.4730  26.2440 -20.6830   O.3       1 EDO201   0.0000
     3 C2     -45.6850  28.2640 -20.3120   C.3       1 EDO201   0.0000
     4 O2     -46.4490  27.8790 -21.4610   O.3       1 EDO201   0.0000
     5 H1     -44.4424  27.2565 -18.8734   H         1 EDO201   0.0000
     6 H2     -45.9623  26.4137 -19.2499   H         1 EDO201   0.0000
     7 H3     -44.8602  28.9074 -20.6146   H         1 EDO201   0.0000
     8 H4     -46.3208  28.7966 -19.6063   H         1 EDO201   0.0000
     9 H5     -43.7305  26.7845 -21.0608   H         1 EDO201   0.0000
    10 H6     -47.1967  27.2896 -21.1790   H         1 EDO201   0.0000
@<TRIPOS>BOND
     1     1     2    1
     2     1     3    1
     3     3     4    1
     4     1     5    1
     5     1     6    1
     6     3     7    1
     7     3     8    1
     8     2     9    1
     9     4    10    1
@<TRIPOS>SUBSTRUCTURE
     1 EDO201      1 GROUP             0 B     EDO     0  
@<TRIPOS>SET
CCDC_LIGAND STATIC ATOMS
10 1 2 3 4 5 6 7 8 9 \
10 
