@<TRIPOS>MOLECULE
C:EDO202
    10     9     1     0     1
SMALL
NO_CHARGES
****
Generated from the CSD

@<TRIPOS>ATOM
     1 C1     -38.8840   4.1590 -28.2080   C.3       1 EDO202   0.0000
     2 O1     -40.0670   3.6890 -27.5510   O.3       1 EDO202   0.0000
     3 C2     -39.2080   5.5090 -28.8290   C.3       1 EDO202   0.0000
     4 O2     -40.2310   6.1180 -28.0340   O.3       1 EDO202   0.0000
     5 H1     -38.5858   3.4554 -28.9838   H         1 EDO202   0.0000
     6 H2     -38.0761   4.2668 -27.4857   H         1 EDO202   0.0000
     7 H3     -39.9021   6.2350 -27.1044   H         1 EDO202   0.0000
     8 H4     -40.8000   3.5976 -28.2146   H         1 EDO202   0.0000
     9 H5     -39.5629   5.3725 -29.8495   H         1 EDO202   0.0000
    10 H6     -38.3189   6.1378 -28.8349   H         1 EDO202   0.0000
@<TRIPOS>BOND
     1     1     2    1
     2     1     3    1
     3     3     4    1
     4     1     5    1
     5     1     6    1
     6     4     7    1
     7     2     8    1
     8     3     9    1
     9     3    10    1
@<TRIPOS>SUBSTRUCTURE
     1 EDO202      1 GROUP             0 C     EDO     0  
@<TRIPOS>SET
CCDC_LIGAND STATIC ATOMS
10 1 2 3 4 5 6 7 8 9 \
10 
