@<TRIPOS>MOLECULE
N:EDO102
    10     9     1     0     1
SMALL
NO_CHARGES
****
Generated from the CSD

@<TRIPOS>ATOM
     1 C1     -40.7740  28.4190   3.0830   C.3       1 EDO102   0.0000
     2 O1     -40.8610  29.0230   4.3780   O.3       1 EDO102   0.0000
     3 C2     -42.1520  27.8910   2.7010   C.3       1 EDO102   0.0000
     4 O2     -43.0040  27.9100   3.8540   O.3       1 EDO102   0.0000
     5 H1     -42.0610  26.8701   2.3329   H         1 EDO102   0.0000
     6 H2     -42.5797  28.5209   1.9224   H         1 EDO102   0.0000
     7 H3     -41.1594  28.3455   5.0398   H         1 EDO102   0.0000
     8 H4     -43.0863  28.8410   4.1894   H         1 EDO102   0.0000
     9 H5     -40.0600  27.5972   3.1084   H         1 EDO102   0.0000
    10 H6     -40.4494  29.1595   2.3535   H         1 EDO102   0.0000
@<TRIPOS>BOND
     1     1     2    1
     2     1     3    1
     3     3     4    1
     4     3     5    1
     5     3     6    1
     6     2     7    1
     7     4     8    1
     8     1     9    1
     9     1    10    1
@<TRIPOS>SUBSTRUCTURE
     1 EDO102      1 GROUP             0 N     EDO     0  
@<TRIPOS>SET
CCDC_LIGAND STATIC ATOMS
10 1 2 3 4 5 6 7 8 9 \
10 
