@<TRIPOS>MOLECULE
E:EDO201
    10     9     1     0     1
SMALL
NO_CHARGES
****
Generated from the CSD

@<TRIPOS>ATOM
     1 C1      -2.6040  34.0260 -28.4530   C.3       1 EDO201   0.0000
     2 O1      -1.7040  32.9980 -28.0210   O.3       1 EDO201   0.0000
     3 C2      -4.0300  33.5410 -28.2400   C.3       1 EDO201   0.0000
     4 O2      -4.1790  32.2780 -28.8990   O.3       1 EDO201   0.0000
     5 H1      -2.4415  34.2363 -29.5091   H         1 EDO201   0.0000
     6 H2      -2.4334  34.9313 -27.8722   H         1 EDO201   0.0000
     7 H3      -4.7304  34.2608 -28.6609   H         1 EDO201   0.0000
     8 H4      -4.2244  33.4256 -27.1747   H         1 EDO201   0.0000
     9 H5      -1.8641  32.1737 -28.5511   H         1 EDO201   0.0000
    10 H6      -3.5366  31.6260 -28.5140   H         1 EDO201   0.0000
@<TRIPOS>BOND
     1     1     2    1
     2     1     3    1
     3     3     4    1
     4     1     5    1
     5     1     6    1
     6     3     7    1
     7     3     8    1
     8     2     9    1
     9     4    10    1
@<TRIPOS>SUBSTRUCTURE
     1 EDO201      1 GROUP             0 E     EDO     0  
@<TRIPOS>SET
CCDC_LIGAND STATIC ATOMS
10 1 2 3 4 5 6 7 8 9 \
10 
