#       Name:                CT1002167954
#       Creating user name   hitesit
#       Creation time:       Sun Apr 16 02:22:30 2023


#       File generated by GOLD software.
#

@<TRIPOS>MOLECULE
CT1002167954|ligand_prepared|mol2|1|dock6
    29    30     1
SMALL
NO_CHARGES


@<TRIPOS>ATOM
      1 C1         -44.8427  10.8727  22.7259 C.3            1 RES1               0.0000
      2 C2         -44.0954  11.3402  23.9915 C.ar           1 RES1               0.0000
      3 C3         -44.0339   9.7115  22.1552 C.2            1 RES1               0.0000
      4 C4         -46.2478  10.4897  23.1772 C.2            1 RES1               0.0000
      5 C5         -44.9713  11.9636  21.6374 C.3            1 RES1               0.0000
      6 C6         -43.2890  10.4583  24.7047 C.ar           1 RES1               0.0000
      7 C7         -44.2003  12.6487  24.4558 C.ar           1 RES1               0.0000
      8 N8         -44.5399   8.4542  22.3071 N.am           1 RES1               0.0000
      9 O9         -42.9496   9.8926  21.6151 O.2            1 RES1               0.0000
     10 N10        -46.6172   9.1737  23.0796 N.am           1 RES1               0.0000
     11 O11        -47.0326  11.3128  23.6320 O.2            1 RES1               0.0000
     12 C12        -45.3842  11.4260  20.2763 C.3            1 RES1               0.0000
     13 C13        -42.6096  10.8702  25.8392 C.ar           1 RES1               0.0000
     14 C14        -43.5202  13.0584  25.5908 C.ar           1 RES1               0.0000
     15 C15        -45.8163   8.1335  22.6937 C.2            1 RES1               0.0000
     16 C16        -42.7244  12.1704  26.2828 C.ar           1 RES1               0.0000
     17 O17        -46.2045   6.9689  22.6837 O.2            1 RES1               0.0000
     18 H18        -45.7123  12.7033  21.9646 H              1 RES1               0.0000
     19 H19        -44.0071  12.4770  21.5364 H              1 RES1               0.0000
     20 H20        -43.1884   9.4305  24.3722 H              1 RES1               0.0000
     21 H21        -44.8215  13.3643  23.9280 H              1 RES1               0.0000
     22 H22        -43.9110   7.6808  22.1155 H              1 RES1               0.0000
     23 H23        -47.5782   8.9487  23.3164 H              1 RES1               0.0000
     24 H24        -45.4597  12.2324  19.5498 H              1 RES1               0.0000
     25 H25        -44.6561  10.7058  19.9089 H              1 RES1               0.0000
     26 H26        -46.3513  10.9307  20.3345 H              1 RES1               0.0000
     27 H27        -41.9857  10.1671  26.3811 H              1 RES1               0.0000
     28 H28        -43.6140  14.0826  25.9365 H              1 RES1               0.0000
     29 H29        -42.1918  12.4930  27.1713 H              1 RES1               0.0000
@<TRIPOS>BOND
    1    1    2 1     
    2    1    3 1     
    3    1    4 1     
    4    1    5 1     
    5    2    6 ar    
    6    2    7 ar    
    7    3    8 1     
    8    3    9 2     
    9    4   10 1     
   10    4   11 2     
   11    5   12 1     
   12    5   18 1     
   13    5   19 1     
   14    6   13 ar    
   15    6   20 1     
   16    7   14 ar    
   17    7   21 1     
   18    8   15 1     
   19    8   22 1     
   20   10   15 1     
   21   10   23 1     
   22   12   24 1     
   23   12   25 1     
   24   12   26 1     
   25   13   16 ar    
   26   13   27 1     
   27   14   16 ar    
   28   14   28 1     
   29   15   17 2     
   30   16   29 1     
@<TRIPOS>SUBSTRUCTURE
      1 RES1           1
@<TRIPOS>SET
DONOR_HYDROGENS      STATIC     ATOMS    <user>   **** ""
2 22 23
ATOM$RED        STATIC     ATOMS    COLORGROUP SYSTEM
2 22 23
@<TRIPOS>COMMENT
> <Gold.Version>
2022.3.0

> <Gold.Id.Protein>
unknown|7ta6_clean|pdb

> <Gold.Protein.ActiveResidues>
 PRO12   VAL13   ALA14   HIS15   VAL16   LEU29   ASN30   ARG32   ALA33   ASN34  
 ALA35   LEU36   LEU37   ALA38   ASN39   GLY40   VAL41   GLU42   LEU43   ARG44  
 LEU48   VAL49   ILE154 

> <Gold.Score>
     Fitness  S(hb_ext) S(vdw_ext)  S(hb_int)    S(int)      intcor
     32.48       0.02      24.31       0.00      -0.97      -0.76

> <Gold.Goldscore.Fitness>
32.4845

> <Gold.Goldscore.Internal.Vdw>
-1.0290

> <Gold.Goldscore.Internal.Torsion>
-0.6961

> <Gold.Goldscore.External.Vdw>
24.3126

> <Gold.Goldscore.Internal.HBond>
0.0000

> <Gold.Goldscore.External.HBond>
0.0216

> <Gold.Goldscore.Internal.Correction>
-0.7582

> <Gold.Goldscore.Hbonds>
donor molecule, donor type, donor heavy atom, donor atom, acceptor molecule, acceptor atom, score
      P1  H  4028  4101       L1    17  0.01

> <Gold.Goldscore.Internal.Vdw.Weighted>
-1.0290

> <Gold.Goldscore.Internal.Torsion.Weighted>
-0.6961

> <Gold.Goldscore.External.Vdw.Weighted>
33.4298

> <Gold.Goldscore.Internal.HBond.Weighted>
0.0000

> <Gold.Goldscore.External.HBond.Weighted>
0.0216

> <Gold.Goldscore.Internal.Correction.Weighted>
-0.7582

> <Gold.Rescore>
     Score     S(PLP)   S(hbond)     S(cho)   S(metal)  DE(clash)   DE(tors)     intcor
     20.84     -23.16       0.00       0.00       0.00       0.20       1.06       ----

> <Gold.PLP.Fitness>
20.8409

> <Gold.PLP.PLP>
-23.1574

> <Gold.PLP.part.hbond>
0.0000

> <Gold.PLP.part.metal>
0.0000

> <Gold.PLP.part.buried>
-3.4131

> <Gold.PLP.part.nonpolar>
-21.0982

> <Gold.PLP.part.repulsive>
0.4264

> <Gold.PLP.ligand.clash>
0.2046

> <Gold.PLP.ligand.torsion>
1.0559

> <Gold.PLP.Chemscore.Hbond>
0.0000

> <Gold.PLP.Chemscore.CHOScore>
0.0000

> <Gold.PLP.Chemscore.Metal>
0.0000

> <Gold.PLP.Chemscore.Internal.Correction>
   9.000000E+99

