#       Name:                CT1002167954
#       Creating user name   hitesit
#       Creation time:       Sun Apr 16 02:22:27 2023


#       File generated by GOLD software.
#

@<TRIPOS>MOLECULE
CT1002167954|ligand_prepared|mol2|1|dock2
    29    30     1
SMALL
NO_CHARGES


@<TRIPOS>ATOM
      1 C1         -44.8528  11.1412  24.3525 C.3            1 RES1               0.0000
      2 C2         -44.7197  11.1425  22.8159 C.ar           1 RES1               0.0000
      3 C3         -44.1348   9.8877  24.8437 C.2            1 RES1               0.0000
      4 C4         -44.2285  12.4456  24.8358 C.2            1 RES1               0.0000
      5 C5         -46.3154  11.0975  24.8529 C.3            1 RES1               0.0000
      6 C6         -43.6454  10.5101  22.1972 C.ar           1 RES1               0.0000
      7 C7         -45.6629  11.7683  22.0052 C.ar           1 RES1               0.0000
      8 N8         -42.9251  10.0500  25.4522 N.am           1 RES1               0.0000
      9 O9         -44.6044   8.7707  24.6646 O.2            1 RES1               0.0000
     10 N10        -43.0900  12.3699  25.5948 N.am           1 RES1               0.0000
     11 O11        -44.7027  13.5387  24.5523 O.2            1 RES1               0.0000
     12 C12        -46.4434  10.9302  26.3588 C.3            1 RES1               0.0000
     13 C13        -43.5201  10.5011  20.8179 C.ar           1 RES1               0.0000
     14 C14        -45.5356  11.7583  20.6260 C.ar           1 RES1               0.0000
     15 C15        -42.3928  11.2326  25.8991 C.2            1 RES1               0.0000
     16 C16        -44.4652  11.1247  20.0314 C.ar           1 RES1               0.0000
     17 O17        -41.3466  11.2506  26.5411 O.2            1 RES1               0.0000
     18 H18        -46.8178  12.0266  24.5569 H              1 RES1               0.0000
     19 H19        -46.8325  10.2650  24.3600 H              1 RES1               0.0000
     20 H20        -42.8905  10.0162  22.7999 H              1 RES1               0.0000
     21 H21        -46.5127  12.2739  22.4511 H              1 RES1               0.0000
     22 H22        -42.3643   9.2148  25.5874 H              1 RES1               0.0000
     23 H23        -42.7290  13.2423  25.9676 H              1 RES1               0.0000
     24 H24        -47.4896  10.9055  26.6566 H              1 RES1               0.0000
     25 H25        -45.9764  10.0032  26.6851 H              1 RES1               0.0000
     26 H26        -45.9618  11.7544  26.8808 H              1 RES1               0.0000
     27 H27        -42.6751  10.0023  20.3549 H              1 RES1               0.0000
     28 H28        -46.2815  12.2509  20.0110 H              1 RES1               0.0000
     29 H29        -44.3670  11.1172  18.9509 H              1 RES1               0.0000
@<TRIPOS>BOND
    1    1    2 1     
    2    1    3 1     
    3    1    4 1     
    4    1    5 1     
    5    2    6 ar    
    6    2    7 ar    
    7    3    8 1     
    8    3    9 2     
    9    4   10 1     
   10    4   11 2     
   11    5   12 1     
   12    5   18 1     
   13    5   19 1     
   14    6   13 ar    
   15    6   20 1     
   16    7   14 ar    
   17    7   21 1     
   18    8   15 1     
   19    8   22 1     
   20   10   15 1     
   21   10   23 1     
   22   12   24 1     
   23   12   25 1     
   24   12   26 1     
   25   13   16 ar    
   26   13   27 1     
   27   14   16 ar    
   28   14   28 1     
   29   15   17 2     
   30   16   29 1     
@<TRIPOS>SUBSTRUCTURE
      1 RES1           1
@<TRIPOS>SET
DONOR_HYDROGENS      STATIC     ATOMS    <user>   **** ""
2 22 23
ATOM$RED        STATIC     ATOMS    COLORGROUP SYSTEM
2 22 23
@<TRIPOS>COMMENT
> <Gold.Version>
2022.3.0

> <Gold.Id.Protein>
unknown|7ta6_clean|pdb

> <Gold.Protein.ActiveResidues>
 PRO12   VAL13   ALA14   HIS15   VAL16   LEU29   ASN30   ARG32   ALA33   ASN34  
 ALA35   LEU36   LEU37   ALA38   ASN39   GLY40   VAL41   GLU42   LEU43   ARG44  
 LEU48   VAL49   ILE154 

> <Gold.Score>
     Fitness  S(hb_ext) S(vdw_ext)  S(hb_int)    S(int)      intcor
     28.51       0.66      20.94       0.00      -0.95      -0.77

> <Gold.Goldscore.Fitness>
28.5136

> <Gold.Goldscore.Internal.Vdw>
-1.2728

> <Gold.Goldscore.Internal.Torsion>
-0.4441

> <Gold.Goldscore.External.Vdw>
20.9442

> <Gold.Goldscore.Internal.HBond>
0.0000

> <Gold.Goldscore.External.HBond>
0.6636

> <Gold.Goldscore.Internal.Correction>
-0.7686

> <Gold.Goldscore.Hbonds>
donor molecule, donor type, donor heavy atom, donor atom, acceptor molecule, acceptor atom, score
      L1  H    10    23       P1  3203  0.33

> <Gold.Goldscore.Internal.Vdw.Weighted>
-1.2728

> <Gold.Goldscore.Internal.Torsion.Weighted>
-0.4441

> <Gold.Goldscore.External.Vdw.Weighted>
28.7982

> <Gold.Goldscore.Internal.HBond.Weighted>
0.0000

> <Gold.Goldscore.External.HBond.Weighted>
0.6636

> <Gold.Goldscore.Internal.Correction.Weighted>
-0.7686

> <Gold.Rescore>
     Score     S(PLP)   S(hbond)     S(cho)   S(metal)  DE(clash)   DE(tors)     intcor
     23.95     -26.17       0.00       0.00       0.00       0.42       0.90       ----

> <Gold.PLP.Fitness>
23.9536

> <Gold.PLP.PLP>
-26.1657

> <Gold.PLP.part.hbond>
-1.0000

> <Gold.PLP.part.metal>
0.0000

> <Gold.PLP.part.buried>
-3.0307

> <Gold.PLP.part.nonpolar>
-23.5542

> <Gold.PLP.part.repulsive>
0.2646

> <Gold.PLP.ligand.clash>
0.4205

> <Gold.PLP.ligand.torsion>
0.8958

> <Gold.PLP.Chemscore.Hbond>
0.0000

> <Gold.PLP.Chemscore.CHOScore>
0.0000

> <Gold.PLP.Chemscore.Metal>
0.0000

> <Gold.Chemscore.Hbonds>
donor molecule, donor type, donor heavy atom, donor atom, acceptor molecule, acceptor atom, score
      L1  H    10    23       P1  3203  1.00

> <Gold.PLP.Chemscore.Internal.Correction>
   9.000000E+99

