#       Name:                CT1002167954
#       Creating user name   hitesit
#       Creation time:       Sun Apr 16 02:22:32 2023


#       File generated by GOLD software.
#

@<TRIPOS>MOLECULE
CT1002167954|ligand_prepared|mol2|1|dock10
    29    30     1
SMALL
NO_CHARGES


@<TRIPOS>ATOM
      1 C1         -44.2818  12.2329  25.0845 C.3            1 RES1               0.0000
      2 C2         -43.0911  11.7107  25.9141 C.ar           1 RES1               0.0000
      3 C3         -45.5247  12.0351  25.9474 C.2            1 RES1               0.0000
      4 C4         -43.9722  13.6911  24.7647 C.2            1 RES1               0.0000
      5 C5         -44.4880  11.4839  23.7473 C.3            1 RES1               0.0000
      6 C6         -42.3504  10.6158  25.4791 C.ar           1 RES1               0.0000
      7 C7         -42.7203  12.3141  27.1129 C.ar           1 RES1               0.0000
      8 N8         -46.0834  13.1427  26.5138 N.am           1 RES1               0.0000
      9 O9         -45.9842  10.9197  26.1598 O.2            1 RES1               0.0000
     10 N10        -44.7815  14.6537  25.3089 N.am           1 RES1               0.0000
     11 O11        -43.0246  14.0161  24.0598 O.2            1 RES1               0.0000
     12 C12        -45.6420  12.0207  22.9154 C.3            1 RES1               0.0000
     13 C13        -41.2760  10.1430  26.2144 C.ar           1 RES1               0.0000
     14 C14        -41.6457  11.8395  27.8467 C.ar           1 RES1               0.0000
     15 C15        -45.8045  14.4471  26.1938 C.2            1 RES1               0.0000
     16 C16        -40.9227  10.7547  27.3983 C.ar           1 RES1               0.0000
     17 O17        -46.4522  15.3686  26.6822 O.2            1 RES1               0.0000
     18 H18        -43.5654  11.5533  23.1578 H              1 RES1               0.0000
     19 H19        -44.6702  10.4234  23.9610 H              1 RES1               0.0000
     20 H20        -42.6150  10.1200  24.5511 H              1 RES1               0.0000
     21 H21        -43.2753  13.1683  27.4856 H              1 RES1               0.0000
     22 H22        -46.7723  12.9867  27.2428 H              1 RES1               0.0000
     23 H23        -44.6051  15.6131  25.0283 H              1 RES1               0.0000
     24 H24        -45.7427  11.4602  21.9884 H              1 RES1               0.0000
     25 H25        -46.5799  11.9437  23.4616 H              1 RES1               0.0000
     26 H26        -45.4816  13.0669  22.6631 H              1 RES1               0.0000
     27 H27        -40.7111   9.2880  25.8578 H              1 RES1               0.0000
     28 H28        -41.3716  12.3237  28.7782 H              1 RES1               0.0000
     29 H29        -40.0808  10.3843  27.9738 H              1 RES1               0.0000
@<TRIPOS>BOND
    1    1    2 1     
    2    1    3 1     
    3    1    4 1     
    4    1    5 1     
    5    2    6 ar    
    6    2    7 ar    
    7    3    8 1     
    8    3    9 2     
    9    4   10 1     
   10    4   11 2     
   11    5   12 1     
   12    5   18 1     
   13    5   19 1     
   14    6   13 ar    
   15    6   20 1     
   16    7   14 ar    
   17    7   21 1     
   18    8   15 1     
   19    8   22 1     
   20   10   15 1     
   21   10   23 1     
   22   12   24 1     
   23   12   25 1     
   24   12   26 1     
   25   13   16 ar    
   26   13   27 1     
   27   14   16 ar    
   28   14   28 1     
   29   15   17 2     
   30   16   29 1     
@<TRIPOS>SUBSTRUCTURE
      1 RES1           1
@<TRIPOS>SET
DONOR_HYDROGENS      STATIC     ATOMS    <user>   **** ""
2 22 23
ATOM$RED        STATIC     ATOMS    COLORGROUP SYSTEM
2 22 23
@<TRIPOS>COMMENT
> <Gold.Version>
2022.3.0

> <Gold.Id.Protein>
unknown|7ta6_clean|pdb

> <Gold.Protein.ActiveResidues>
 PRO12   VAL13   ALA14   HIS15   VAL16   LEU29   ASN30   ARG32   ALA33   ASN34  
 ALA35   LEU36   LEU37   ALA38   ASN39   GLY40   VAL41   GLU42   LEU43   ARG44  
 LEU48   VAL49   ILE154 

> <Gold.Score>
     Fitness  S(hb_ext) S(vdw_ext)  S(hb_int)    S(int)      intcor
     30.48       3.24      20.38       0.00      -0.79      -0.76

> <Gold.Goldscore.Fitness>
30.4831

> <Gold.Goldscore.Internal.Vdw>
-1.1766

> <Gold.Goldscore.Internal.Torsion>
-0.3694

> <Gold.Goldscore.External.Vdw>
20.3840

> <Gold.Goldscore.Internal.HBond>
0.0000

> <Gold.Goldscore.External.HBond>
3.2428

> <Gold.Goldscore.Internal.Correction>
-0.7582

> <Gold.Goldscore.Hbonds>
donor molecule, donor type, donor heavy atom, donor atom, acceptor molecule, acceptor atom, score
      P1  H  3005  3084       L1    11  0.62
      L1  H    10    23       P1  3293  1.00

> <Gold.Goldscore.Internal.Vdw.Weighted>
-1.1766

> <Gold.Goldscore.Internal.Torsion.Weighted>
-0.3694

> <Gold.Goldscore.External.Vdw.Weighted>
28.0280

> <Gold.Goldscore.Internal.HBond.Weighted>
0.0000

> <Gold.Goldscore.External.HBond.Weighted>
3.2428

> <Gold.Goldscore.Internal.Correction.Weighted>
-0.7582

> <Gold.Rescore>
     Score     S(PLP)   S(hbond)     S(cho)   S(metal)  DE(clash)   DE(tors)     intcor
     29.91     -24.87       1.72       0.00       0.00       0.00       0.06       ----

> <Gold.PLP.Fitness>
29.9144

> <Gold.PLP.PLP>
-24.8715

> <Gold.PLP.part.hbond>
-2.1544

> <Gold.PLP.part.metal>
0.0000

> <Gold.PLP.part.buried>
-4.7785

> <Gold.PLP.part.nonpolar>
-19.3835

> <Gold.PLP.part.repulsive>
0.5312

> <Gold.PLP.ligand.clash>
0.0000

> <Gold.PLP.ligand.torsion>
0.0586

> <Gold.PLP.Chemscore.Hbond>
1.7200

> <Gold.PLP.Chemscore.CHOScore>
0.0000

> <Gold.PLP.Chemscore.Metal>
0.0000

> <Gold.Chemscore.Hbonds>
donor molecule, donor type, donor heavy atom, donor atom, acceptor molecule, acceptor atom, score
      L1  H    10    23       P1  3293  0.71
      P1  H  3005  3084       L1    11  0.24
      P1  H  3541  3590       L1    17  0.32

> <Gold.PLP.Chemscore.Internal.Correction>
   9.000000E+99

