#       Name:                CT1002167954
#       Creating user name   hitesit
#       Creation time:       Sun Apr 16 02:22:29 2023


#       File generated by GOLD software.
#

@<TRIPOS>MOLECULE
CT1002167954|ligand_prepared|mol2|1|dock5
    29    30     1
SMALL
NO_CHARGES


@<TRIPOS>ATOM
      1 C1         -44.3859  12.1543  25.1971 C.3            1 RES1               0.0000
      2 C2         -44.6035  11.7485  23.7252 C.ar           1 RES1               0.0000
      3 C3         -44.1122  13.6554  25.1917 C.2            1 RES1               0.0000
      4 C4         -45.6555  11.7561  25.9416 C.2            1 RES1               0.0000
      5 C5         -43.1922  11.4398  25.8724 C.3            1 RES1               0.0000
      6 C6         -44.6667  10.4065  23.3620 C.ar           1 RES1               0.0000
      7 C7         -44.7452  12.7029  22.7214 C.ar           1 RES1               0.0000
      8 N8         -45.1033  14.4800  25.6365 N.am           1 RES1               0.0000
      9 O9         -43.0578  14.1112  24.7666 O.2            1 RES1               0.0000
     10 N10        -46.4302  12.7553  26.4700 N.am           1 RES1               0.0000
     11 O11        -46.0008  10.5870  26.0610 O.2            1 RES1               0.0000
     12 C12        -42.9622  11.8605  27.3154 C.3            1 RES1               0.0000
     13 C13        -44.8672  10.0322  22.0437 C.ar           1 RES1               0.0000
     14 C14        -44.9455  12.3264  21.4036 C.ar           1 RES1               0.0000
     15 C15        -46.2277  14.1007  26.3247 C.2            1 RES1               0.0000
     16 C16        -45.0071  10.9917  21.0638 C.ar           1 RES1               0.0000
     17 O17        -46.9990  14.9386  26.7833 O.2            1 RES1               0.0000
     18 H18        -43.3666  10.3571  25.8437 H              1 RES1               0.0000
     19 H19        -42.2832  11.6484  25.2947 H              1 RES1               0.0000
     20 H20        -44.5562   9.6372  24.1191 H              1 RES1               0.0000
     21 H21        -44.6991  13.7588  22.9654 H              1 RES1               0.0000
     22 H22        -44.9988  15.4701  25.4391 H              1 RES1               0.0000
     23 H23        -47.2320  12.4697  27.0231 H              1 RES1               0.0000
     24 H24        -42.1135  11.3296  27.7414 H              1 RES1               0.0000
     25 H25        -42.7607  12.9279  27.3785 H              1 RES1               0.0000
     26 H26        -43.8376  11.6443  27.9243 H              1 RES1               0.0000
     27 H27        -44.9136   8.9804  21.7813 H              1 RES1               0.0000
     28 H28        -45.0545  13.0850  20.6356 H              1 RES1               0.0000
     29 H29        -45.1646  10.6982  20.0312 H              1 RES1               0.0000
@<TRIPOS>BOND
    1    1    2 1     
    2    1    3 1     
    3    1    4 1     
    4    1    5 1     
    5    2    6 ar    
    6    2    7 ar    
    7    3    8 1     
    8    3    9 2     
    9    4   10 1     
   10    4   11 2     
   11    5   12 1     
   12    5   18 1     
   13    5   19 1     
   14    6   13 ar    
   15    6   20 1     
   16    7   14 ar    
   17    7   21 1     
   18    8   15 1     
   19    8   22 1     
   20   10   15 1     
   21   10   23 1     
   22   12   24 1     
   23   12   25 1     
   24   12   26 1     
   25   13   16 ar    
   26   13   27 1     
   27   14   16 ar    
   28   14   28 1     
   29   15   17 2     
   30   16   29 1     
@<TRIPOS>SUBSTRUCTURE
      1 RES1           1
@<TRIPOS>SET
DONOR_HYDROGENS      STATIC     ATOMS    <user>   **** ""
2 22 23
ATOM$RED        STATIC     ATOMS    COLORGROUP SYSTEM
2 22 23
@<TRIPOS>COMMENT
> <Gold.Version>
2022.3.0

> <Gold.Id.Protein>
unknown|7ta6_clean|pdb

> <Gold.Protein.ActiveResidues>
 PRO12   VAL13   ALA14   HIS15   VAL16   LEU29   ASN30   ARG32   ALA33   ASN34  
 ALA35   LEU36   LEU37   ALA38   ASN39   GLY40   VAL41   GLU42   LEU43   ARG44  
 LEU48   VAL49   ILE154 

> <Gold.Score>
     Fitness  S(hb_ext) S(vdw_ext)  S(hb_int)    S(int)      intcor
     29.02       2.52      20.50       0.00      -1.69      -0.76

> <Gold.Goldscore.Fitness>
29.0176

> <Gold.Goldscore.Internal.Vdw>
-2.0767

> <Gold.Goldscore.Internal.Torsion>
-0.3702

> <Gold.Goldscore.External.Vdw>
20.4958

> <Gold.Goldscore.Internal.HBond>
0.0000

> <Gold.Goldscore.External.HBond>
2.5246

> <Gold.Goldscore.Internal.Correction>
-0.7582

> <Gold.Goldscore.Hbonds>
donor molecule, donor type, donor heavy atom, donor atom, acceptor molecule, acceptor atom, score
      P1  H  3005  3084       L1     9  0.26
      L1  H     8    22       P1  3293  1.00

> <Gold.Goldscore.Internal.Vdw.Weighted>
-2.0767

> <Gold.Goldscore.Internal.Torsion.Weighted>
-0.3702

> <Gold.Goldscore.External.Vdw.Weighted>
28.1817

> <Gold.Goldscore.Internal.HBond.Weighted>
0.0000

> <Gold.Goldscore.External.HBond.Weighted>
2.5246

> <Gold.Goldscore.Internal.Correction.Weighted>
-0.7582

> <Gold.Rescore>
     Score     S(PLP)   S(hbond)     S(cho)   S(metal)  DE(clash)   DE(tors)     intcor
     25.99     -21.89       1.85       0.00       0.00       1.19       0.13       ----

> <Gold.PLP.Fitness>
25.9865

> <Gold.PLP.PLP>
-21.8939

> <Gold.PLP.part.hbond>
-2.0000

> <Gold.PLP.part.metal>
0.0000

> <Gold.PLP.part.buried>
-2.0294

> <Gold.PLP.part.nonpolar>
-23.9346

> <Gold.PLP.part.repulsive>
5.1968

> <Gold.PLP.ligand.clash>
1.1902

> <Gold.PLP.ligand.torsion>
0.1306

> <Gold.PLP.Chemscore.Hbond>
1.8480

> <Gold.PLP.Chemscore.CHOScore>
0.0000

> <Gold.PLP.Chemscore.Metal>
0.0000

> <Gold.Chemscore.Hbonds>
donor molecule, donor type, donor heavy atom, donor atom, acceptor molecule, acceptor atom, score
      L1  H     8    22       P1  3293  1.00
      P1  H  3005  3084       L1     9  0.80

> <Gold.PLP.Chemscore.Internal.Correction>
   9.000000E+99

