#       Name:                CT1002167954
#       Creating user name   hitesit
#       Creation time:       Sun Apr 16 02:22:27 2023


#       File generated by GOLD software.
#

@<TRIPOS>MOLECULE
CT1002167954|ligand_prepared|mol2|1|dock1
    29    30     1
SMALL
NO_CHARGES


@<TRIPOS>ATOM
      1 C1         -44.2480   8.6374  23.2662 C.3            1 RES1               0.0000
      2 C2         -44.5390   9.8758  22.3942 C.ar           1 RES1               0.0000
      3 C3         -44.6814   7.4252  22.4471 C.2            1 RES1               0.0000
      4 C4         -42.7560   8.6763  23.5780 C.2            1 RES1               0.0000
      5 C5         -45.0164   8.6236  24.6082 C.3            1 RES1               0.0000
      6 C6         -43.8559  10.0770  21.1985 C.ar           1 RES1               0.0000
      7 C7         -45.4880  10.8228  22.7702 C.ar           1 RES1               0.0000
      8 N8         -43.7022   6.6474  21.9030 N.am           1 RES1               0.0000
      9 O9         -45.8645   7.1781  22.2485 O.2            1 RES1               0.0000
     10 N10        -41.9666   7.6809  23.0646 N.am           1 RES1               0.0000
     11 O11        -42.2544   9.5692  24.2499 O.2            1 RES1               0.0000
     12 C12        -44.7491   7.3893  25.4551 C.3            1 RES1               0.0000
     13 C13        -44.1141  11.1831  20.4059 C.ar           1 RES1               0.0000
     14 C14        -45.7445  11.9283  21.9762 C.ar           1 RES1               0.0000
     15 C15        -42.3671   6.6852  22.2157 C.2            1 RES1               0.0000
     16 C16        -45.0587  12.1092  20.7940 C.ar           1 RES1               0.0000
     17 O17        -41.5872   5.8581  21.7524 O.2            1 RES1               0.0000
     18 H18        -44.7369   9.5144  25.1842 H              1 RES1               0.0000
     19 H19        -46.0918   8.6828  24.3999 H              1 RES1               0.0000
     20 H20        -43.1072   9.3601  20.8780 H              1 RES1               0.0000
     21 H21        -46.0388  10.7016  23.6967 H              1 RES1               0.0000
     22 H22        -43.9891   5.9755  21.1983 H              1 RES1               0.0000
     23 H23        -40.9899   7.6821  23.3409 H              1 RES1               0.0000
     24 H24        -45.3125   7.4302  26.3849 H              1 RES1               0.0000
     25 H25        -45.0392   6.4860  24.9226 H              1 RES1               0.0000
     26 H26        -43.6923   7.3126  25.7022 H              1 RES1               0.0000
     27 H27        -43.5707  11.3215  19.4771 H              1 RES1               0.0000
     28 H28        -46.4884  12.6550  22.2859 H              1 RES1               0.0000
     29 H29        -45.2611  12.9754  20.1727 H              1 RES1               0.0000
@<TRIPOS>BOND
    1    1    2 1     
    2    1    3 1     
    3    1    4 1     
    4    1    5 1     
    5    2    6 ar    
    6    2    7 ar    
    7    3    8 1     
    8    3    9 2     
    9    4   10 1     
   10    4   11 2     
   11    5   12 1     
   12    5   18 1     
   13    5   19 1     
   14    6   13 ar    
   15    6   20 1     
   16    7   14 ar    
   17    7   21 1     
   18    8   15 1     
   19    8   22 1     
   20   10   15 1     
   21   10   23 1     
   22   12   24 1     
   23   12   25 1     
   24   12   26 1     
   25   13   16 ar    
   26   13   27 1     
   27   14   16 ar    
   28   14   28 1     
   29   15   17 2     
   30   16   29 1     
@<TRIPOS>SUBSTRUCTURE
      1 RES1           1
@<TRIPOS>SET
DONOR_HYDROGENS      STATIC     ATOMS    <user>   **** ""
2 22 23
ATOM$RED        STATIC     ATOMS    COLORGROUP SYSTEM
2 22 23
@<TRIPOS>COMMENT
> <Gold.Version>
2022.3.0

> <Gold.Id.Protein>
unknown|7ta6_clean|pdb

> <Gold.Protein.ActiveResidues>
 PRO12   VAL13   ALA14   HIS15   VAL16   LEU29   ASN30   ARG32   ALA33   ASN34  
 ALA35   LEU36   LEU37   ALA38   ASN39   GLY40   VAL41   GLU42   LEU43   ARG44  
 LEU48   VAL49   ILE154 

> <Gold.Score>
     Fitness  S(hb_ext) S(vdw_ext)  S(hb_int)    S(int)      intcor
     29.11       1.17      20.53       0.00      -0.28      -0.77

> <Gold.Goldscore.Fitness>
29.1081

> <Gold.Goldscore.Internal.Vdw>
-0.6825

> <Gold.Goldscore.Internal.Torsion>
-0.3699

> <Gold.Goldscore.External.Vdw>
20.5279

> <Gold.Goldscore.Internal.HBond>
0.0000

> <Gold.Goldscore.External.HBond>
1.1659

> <Gold.Goldscore.Internal.Correction>
-0.7686

> <Gold.Goldscore.Hbonds>
donor molecule, donor type, donor heavy atom, donor atom, acceptor molecule, acceptor atom, score
      P1  H  4028  4101       L1     9  0.12
      L1  H     8    22       P1  4031  0.46

> <Gold.Goldscore.Internal.Vdw.Weighted>
-0.6825

> <Gold.Goldscore.Internal.Torsion.Weighted>
-0.3699

> <Gold.Goldscore.External.Vdw.Weighted>
28.2259

> <Gold.Goldscore.Internal.HBond.Weighted>
0.0000

> <Gold.Goldscore.External.HBond.Weighted>
1.1659

> <Gold.Goldscore.Internal.Correction.Weighted>
-0.7686

> <Gold.Rescore>
     Score     S(PLP)   S(hbond)     S(cho)   S(metal)  DE(clash)   DE(tors)     intcor
     29.53     -24.63       1.80       0.00       0.00       0.00       0.25       ----

> <Gold.PLP.Fitness>
29.5280

> <Gold.PLP.PLP>
-24.6273

> <Gold.PLP.part.hbond>
-2.0000

> <Gold.PLP.part.metal>
0.0000

> <Gold.PLP.part.buried>
1.8838

> <Gold.PLP.part.nonpolar>
-25.8893

> <Gold.PLP.part.repulsive>
0.2796

> <Gold.PLP.ligand.clash>
0.0000

> <Gold.PLP.ligand.torsion>
0.2496

> <Gold.PLP.Chemscore.Hbond>
1.8000

> <Gold.PLP.Chemscore.CHOScore>
0.0000

> <Gold.PLP.Chemscore.Metal>
0.0000

> <Gold.Chemscore.Hbonds>
donor molecule, donor type, donor heavy atom, donor atom, acceptor molecule, acceptor atom, score
      L1  H     8    22       P1  4031  0.88
      P1  H  4028  4101       L1     9  1.00

> <Gold.PLP.Chemscore.Internal.Correction>
   9.000000E+99

