#       Name:                CT1002167954
#       Creating user name   hitesit
#       Creation time:       Sun Apr 16 02:22:29 2023


#       File generated by GOLD software.
#

@<TRIPOS>MOLECULE
CT1002167954|ligand_prepared|mol2|1|dock4
    29    30     1
SMALL
NO_CHARGES


@<TRIPOS>ATOM
      1 C1         -44.3700  12.1422  25.0805 C.3            1 RES1               0.0000
      2 C2         -44.5908  11.7966  23.5937 C.ar           1 RES1               0.0000
      3 C3         -43.9658  13.6129  25.1231 C.2            1 RES1               0.0000
      4 C4         -45.6851  11.8376  25.7892 C.2            1 RES1               0.0000
      5 C5         -43.2580  11.3074  25.7574 C.3            1 RES1               0.0000
      6 C6         -44.5762  10.4730  23.1641 C.ar           1 RES1               0.0000
      7 C7         -44.8127  12.7886  22.6422 C.ar           1 RES1               0.0000
      8 N8         -44.8901  14.5094  25.5725 N.am           1 RES1               0.0000
      9 O9         -42.8667  13.9852  24.7311 O.2            1 RES1               0.0000
     10 N10        -46.3804  12.8867  26.3312 N.am           1 RES1               0.0000
     11 O11        -46.1338  10.7007  25.8686 O.2            1 RES1               0.0000
     12 C12        -42.8866  11.7948  27.1491 C.3            1 RES1               0.0000
     13 C13        -44.7790  10.1524  21.8320 C.ar           1 RES1               0.0000
     14 C14        -45.0150  12.4658  21.3105 C.ar           1 RES1               0.0000
     15 C15        -46.0578  14.2124  26.2282 C.2            1 RES1               0.0000
     16 C16        -44.9989  11.1484  20.9045 C.ar           1 RES1               0.0000
     17 O17        -46.7623  15.1024  26.6959 O.2            1 RES1               0.0000
     18 H18        -43.5914  10.2646  25.8258 H              1 RES1               0.0000
     19 H19        -42.3626  11.3324  25.1241 H              1 RES1               0.0000
     20 H20        -44.4022   9.6759  23.8791 H              1 RES1               0.0000
     21 H21        -44.8285  13.8319  22.9386 H              1 RES1               0.0000
     22 H22        -44.6951  15.4914  25.4054 H              1 RES1               0.0000
     23 H23        -47.2157  12.6582  26.8607 H              1 RES1               0.0000
     24 H24        -42.1025  11.1747  27.5785 H              1 RES1               0.0000
     25 H25        -42.5267  12.8210  27.1152 H              1 RES1               0.0000
     26 H26        -43.7482  11.7595  27.8127 H              1 RES1               0.0000
     27 H27        -44.7640   9.1142  21.5173 H              1 RES1               0.0000
     28 H28        -45.1871  13.2530  20.5839 H              1 RES1               0.0000
     29 H29        -45.1582  10.8969  19.8611 H              1 RES1               0.0000
@<TRIPOS>BOND
    1    1    2 1     
    2    1    3 1     
    3    1    4 1     
    4    1    5 1     
    5    2    6 ar    
    6    2    7 ar    
    7    3    8 1     
    8    3    9 2     
    9    4   10 1     
   10    4   11 2     
   11    5   12 1     
   12    5   18 1     
   13    5   19 1     
   14    6   13 ar    
   15    6   20 1     
   16    7   14 ar    
   17    7   21 1     
   18    8   15 1     
   19    8   22 1     
   20   10   15 1     
   21   10   23 1     
   22   12   24 1     
   23   12   25 1     
   24   12   26 1     
   25   13   16 ar    
   26   13   27 1     
   27   14   16 ar    
   28   14   28 1     
   29   15   17 2     
   30   16   29 1     
@<TRIPOS>SUBSTRUCTURE
      1 RES1           1
@<TRIPOS>SET
DONOR_HYDROGENS      STATIC     ATOMS    <user>   **** ""
2 22 23
ATOM$RED        STATIC     ATOMS    COLORGROUP SYSTEM
2 22 23
@<TRIPOS>COMMENT
> <Gold.Version>
2022.3.0

> <Gold.Id.Protein>
unknown|7ta6_clean|pdb

> <Gold.Protein.ActiveResidues>
 PRO12   VAL13   ALA14   HIS15   VAL16   LEU29   ASN30   ARG32   ALA33   ASN34  
 ALA35   LEU36   LEU37   ALA38   ASN39   GLY40   VAL41   GLU42   LEU43   ARG44  
 LEU48   VAL49   ILE154 

> <Gold.Score>
     Fitness  S(hb_ext) S(vdw_ext)  S(hb_int)    S(int)      intcor
     30.07       2.43      20.88       0.00      -1.07      -0.76

> <Gold.Goldscore.Fitness>
30.0716

> <Gold.Goldscore.Internal.Vdw>
-1.3164

> <Gold.Goldscore.Internal.Torsion>
-0.5083

> <Gold.Goldscore.External.Vdw>
20.8819

> <Gold.Goldscore.Internal.HBond>
0.0000

> <Gold.Goldscore.External.HBond>
2.4255

> <Gold.Goldscore.Internal.Correction>
-0.7582

> <Gold.Goldscore.Hbonds>
donor molecule, donor type, donor heavy atom, donor atom, acceptor molecule, acceptor atom, score
      P1  H  3005  3084       L1     9  0.21
      L1  H     8    22       P1  3293  1.00

> <Gold.Goldscore.Internal.Vdw.Weighted>
-1.3164

> <Gold.Goldscore.Internal.Torsion.Weighted>
-0.5083

> <Gold.Goldscore.External.Vdw.Weighted>
28.7126

> <Gold.Goldscore.Internal.HBond.Weighted>
0.0000

> <Gold.Goldscore.External.HBond.Weighted>
2.4255

> <Gold.Goldscore.Internal.Correction.Weighted>
-0.7582

> <Gold.Rescore>
     Score     S(PLP)   S(hbond)     S(cho)   S(metal)  DE(clash)   DE(tors)     intcor
     26.23     -22.68       1.82       0.00       0.00       1.07       0.41       ----

> <Gold.PLP.Fitness>
26.2341

> <Gold.PLP.PLP>
-22.6796

> <Gold.PLP.part.hbond>
-2.0000

> <Gold.PLP.part.metal>
0.0000

> <Gold.PLP.part.buried>
-2.4896

> <Gold.PLP.part.nonpolar>
-24.3654

> <Gold.PLP.part.repulsive>
5.2272

> <Gold.PLP.ligand.clash>
1.0719

> <Gold.PLP.ligand.torsion>
0.4108

> <Gold.PLP.Chemscore.Hbond>
1.8160

> <Gold.PLP.Chemscore.CHOScore>
0.0000

> <Gold.PLP.Chemscore.Metal>
0.0000

> <Gold.Chemscore.Hbonds>
donor molecule, donor type, donor heavy atom, donor atom, acceptor molecule, acceptor atom, score
      L1  H     8    22       P1  3293  1.00
      P1  H  3005  3084       L1     9  0.51
      P1  H  3541  3590       L1    17  0.11

> <Gold.PLP.Chemscore.Internal.Correction>
   9.000000E+99

