#       Name:                CT1002167954
#       Creating user name   hitesit
#       Creation time:       Sun Apr 16 02:22:30 2023


#       File generated by GOLD software.
#

@<TRIPOS>MOLECULE
CT1002167954|ligand_prepared|mol2|1|dock7
    29    30     1
SMALL
NO_CHARGES


@<TRIPOS>ATOM
      1 C1         -43.9166   8.6582  23.1629 C.3            1 RES1               0.0000
      2 C2         -44.3002   9.8750  22.2963 C.ar           1 RES1               0.0000
      3 C3         -44.1721   7.4230  22.3042 C.2            1 RES1               0.0000
      4 C4         -42.4554   8.8545  23.5512 C.2            1 RES1               0.0000
      5 C5         -44.7437   8.5318  24.4636 C.3            1 RES1               0.0000
      6 C6         -43.6774  10.0974  21.0719 C.ar           1 RES1               0.0000
      7 C7         -45.2751  10.7807  22.7061 C.ar           1 RES1               0.0000
      8 N8         -43.0871   6.7693  21.7990 N.am           1 RES1               0.0000
      9 O9         -45.3093   7.0513  22.0417 O.2            1 RES1               0.0000
     10 N10        -41.5360   7.9630  23.0635 N.am           1 RES1               0.0000
     11 O11        -42.0895   9.7829  24.2614 O.2            1 RES1               0.0000
     12 C12        -44.3738   7.3243  25.3105 C.3            1 RES1               0.0000
     13 C13        -44.0188  11.1842  20.2841 C.ar           1 RES1               0.0000
     14 C14        -45.6148  11.8670  21.9168 C.ar           1 RES1               0.0000
     15 C15        -41.7815   6.9473  22.1801 C.2            1 RES1               0.0000
     16 C16        -44.9879  12.0694  20.7057 C.ar           1 RES1               0.0000
     17 O17        -40.8927   6.2210  21.7445 O.2            1 RES1               0.0000
     18 H18        -44.6012   9.4399  25.0622 H              1 RES1               0.0000
     19 H19        -45.8068   8.4666  24.2010 H              1 RES1               0.0000
     20 H20        -42.9106   9.4128  20.7247 H              1 RES1               0.0000
     21 H21        -45.7807  10.6421  23.6556 H              1 RES1               0.0000
     22 H22        -43.2627   6.0848  21.0703 H              1 RES1               0.0000
     23 H23        -40.5802   8.0659  23.3893 H              1 RES1               0.0000
     24 H24        -44.9836   7.2831  26.2106 H              1 RES1               0.0000
     25 H25        -44.5275   6.4016  24.7546 H              1 RES1               0.0000
     26 H26        -43.3290   7.3692  25.6107 H              1 RES1               0.0000
     27 H27        -43.5215  11.3397  19.3324 H              1 RES1               0.0000
     28 H28        -46.3777  12.5615  22.2529 H              1 RES1               0.0000
     29 H29        -45.2555  12.9205  20.0882 H              1 RES1               0.0000
@<TRIPOS>BOND
    1    1    2 1     
    2    1    3 1     
    3    1    4 1     
    4    1    5 1     
    5    2    6 ar    
    6    2    7 ar    
    7    3    8 1     
    8    3    9 2     
    9    4   10 1     
   10    4   11 2     
   11    5   12 1     
   12    5   18 1     
   13    5   19 1     
   14    6   13 ar    
   15    6   20 1     
   16    7   14 ar    
   17    7   21 1     
   18    8   15 1     
   19    8   22 1     
   20   10   15 1     
   21   10   23 1     
   22   12   24 1     
   23   12   25 1     
   24   12   26 1     
   25   13   16 ar    
   26   13   27 1     
   27   14   16 ar    
   28   14   28 1     
   29   15   17 2     
   30   16   29 1     
@<TRIPOS>SUBSTRUCTURE
      1 RES1           1
@<TRIPOS>SET
DONOR_HYDROGENS      STATIC     ATOMS    <user>   **** ""
2 22 23
ATOM$RED        STATIC     ATOMS    COLORGROUP SYSTEM
2 22 23
@<TRIPOS>COMMENT
> <Gold.Version>
2022.3.0

> <Gold.Id.Protein>
unknown|7ta6_clean|pdb

> <Gold.Protein.ActiveResidues>
 PRO12   VAL13   ALA14   HIS15   VAL16   LEU29   ASN30   ARG32   ALA33   ASN34  
 ALA35   LEU36   LEU37   ALA38   ASN39   GLY40   VAL41   GLU42   LEU43   ARG44  
 LEU48   VAL49   ILE154 

> <Gold.Score>
     Fitness  S(hb_ext) S(vdw_ext)  S(hb_int)    S(int)      intcor
     29.05       0.13      21.07       0.00      -0.05      -0.76

> <Gold.Goldscore.Fitness>
29.0521

> <Gold.Goldscore.Internal.Vdw>
-0.4388

> <Gold.Goldscore.Internal.Torsion>
-0.3678

> <Gold.Goldscore.External.Vdw>
21.0681

> <Gold.Goldscore.Internal.HBond>
0.0000

> <Gold.Goldscore.External.HBond>
0.1319

> <Gold.Goldscore.Internal.Correction>
-0.7582

> <Gold.Goldscore.Hbonds>
donor molecule, donor type, donor heavy atom, donor atom, acceptor molecule, acceptor atom, score
      P1  H  4028  4101       L1     9  0.07

> <Gold.Goldscore.Internal.Vdw.Weighted>
-0.4388

> <Gold.Goldscore.Internal.Torsion.Weighted>
-0.3678

> <Gold.Goldscore.External.Vdw.Weighted>
28.9687

> <Gold.Goldscore.Internal.HBond.Weighted>
0.0000

> <Gold.Goldscore.External.HBond.Weighted>
0.1319

> <Gold.Goldscore.Internal.Correction.Weighted>
-0.7582

> <Gold.Rescore>
     Score     S(PLP)   S(hbond)     S(cho)   S(metal)  DE(clash)   DE(tors)     intcor
     29.94     -24.41       2.00       0.00       0.00       0.00       0.24       ----

> <Gold.PLP.Fitness>
29.9365

> <Gold.PLP.PLP>
-24.4088

> <Gold.PLP.part.hbond>
-2.0000

> <Gold.PLP.part.metal>
0.0000

> <Gold.PLP.part.buried>
2.2573

> <Gold.PLP.part.nonpolar>
-26.2999

> <Gold.PLP.part.repulsive>
0.2647

> <Gold.PLP.ligand.clash>
0.0000

> <Gold.PLP.ligand.torsion>
0.2361

> <Gold.PLP.Chemscore.Hbond>
2.0000

> <Gold.PLP.Chemscore.CHOScore>
0.0000

> <Gold.PLP.Chemscore.Metal>
0.0000

> <Gold.Chemscore.Hbonds>
donor molecule, donor type, donor heavy atom, donor atom, acceptor molecule, acceptor atom, score
      P1  H  4028  4101       L1     9  0.91

> <Gold.PLP.Chemscore.Internal.Correction>
   9.000000E+99

