#       Name:                CT1002167954
#       Creating user name   hitesit
#       Creation time:       Sun Apr 16 02:22:31 2023


#       File generated by GOLD software.
#

@<TRIPOS>MOLECULE
CT1002167954|ligand_prepared|mol2|1|dock8
    29    30     1
SMALL
NO_CHARGES


@<TRIPOS>ATOM
      1 C1         -45.0373  11.3606  24.4751 C.3            1 RES1               0.0000
      2 C2         -44.8049  11.2938  22.9518 C.ar           1 RES1               0.0000
      3 C3         -44.3297  10.1467  25.0701 C.2            1 RES1               0.0000
      4 C4         -44.4696  12.6989  24.9349 C.2            1 RES1               0.0000
      5 C5         -46.5282  11.3087  24.8826 C.3            1 RES1               0.0000
      6 C6         -43.7758  10.5189  22.4253 C.ar           1 RES1               0.0000
      7 C7         -45.6117  11.9980  22.0620 C.ar           1 RES1               0.0000
      8 N8         -43.1651  10.3627  25.7462 N.am           1 RES1               0.0000
      9 O9         -44.7661   9.0128  24.9145 O.2            1 RES1               0.0000
     10 N10        -43.3815  12.6827  25.7678 N.am           1 RES1               0.0000
     11 O11        -44.9444  13.7674  24.5702 O.2            1 RES1               0.0000
     12 C12        -46.7497  11.1494  26.3785 C.3            1 RES1               0.0000
     13 C13        -43.5627  10.4483  21.0586 C.ar           1 RES1               0.0000
     14 C14        -45.3967  11.9261  20.6956 C.ar           1 RES1               0.0000
     15 C15        -42.6847  11.5758  26.1696 C.2            1 RES1               0.0000
     16 C16        -44.3731  11.1513  20.1929 C.ar           1 RES1               0.0000
     17 O17        -41.6828  11.6457  26.8755 O.2            1 RES1               0.0000
     18 H18        -47.0176  12.2322  24.5496 H              1 RES1               0.0000
     19 H19        -47.0071  10.4694  24.3634 H              1 RES1               0.0000
     20 H20        -43.1263   9.9606  23.0912 H              1 RES1               0.0000
     21 H21        -46.4223  12.6148  22.4350 H              1 RES1               0.0000
     22 H22        -42.5990   9.5468  25.9563 H              1 RES1               0.0000
     23 H23        -43.0615  13.5788  26.1211 H              1 RES1               0.0000
     24 H24        -47.8123  11.1186  26.6099 H              1 RES1               0.0000
     25 H25        -46.2975  10.2280  26.7395 H              1 RES1               0.0000
     26 H26        -46.3079  11.9804  26.9245 H              1 RES1               0.0000
     27 H27        -42.7549   9.8381  20.6681 H              1 RES1               0.0000
     28 H28        -46.0366  12.4817  20.0180 H              1 RES1               0.0000
     29 H29        -44.2062  11.0955  19.1223 H              1 RES1               0.0000
@<TRIPOS>BOND
    1    1    2 1     
    2    1    3 1     
    3    1    4 1     
    4    1    5 1     
    5    2    6 ar    
    6    2    7 ar    
    7    3    8 1     
    8    3    9 2     
    9    4   10 1     
   10    4   11 2     
   11    5   12 1     
   12    5   18 1     
   13    5   19 1     
   14    6   13 ar    
   15    6   20 1     
   16    7   14 ar    
   17    7   21 1     
   18    8   15 1     
   19    8   22 1     
   20   10   15 1     
   21   10   23 1     
   22   12   24 1     
   23   12   25 1     
   24   12   26 1     
   25   13   16 ar    
   26   13   27 1     
   27   14   16 ar    
   28   14   28 1     
   29   15   17 2     
   30   16   29 1     
@<TRIPOS>SUBSTRUCTURE
      1 RES1           1
@<TRIPOS>SET
DONOR_HYDROGENS      STATIC     ATOMS    <user>   **** ""
2 22 23
ATOM$RED        STATIC     ATOMS    COLORGROUP SYSTEM
2 22 23
@<TRIPOS>COMMENT
> <Gold.Version>
2022.3.0

> <Gold.Id.Protein>
unknown|7ta6_clean|pdb

> <Gold.Protein.ActiveResidues>
 PRO12   VAL13   ALA14   HIS15   VAL16   LEU29   ASN30   ARG32   ALA33   ASN34  
 ALA35   LEU36   LEU37   ALA38   ASN39   GLY40   VAL41   GLU42   LEU43   ARG44  
 LEU48   VAL49   ILE154 

> <Gold.Score>
     Fitness  S(hb_ext) S(vdw_ext)  S(hb_int)    S(int)      intcor
     27.60       0.27      20.80       0.00      -1.27      -0.76

> <Gold.Goldscore.Fitness>
27.6040

> <Gold.Goldscore.Internal.Vdw>
-1.5236

> <Gold.Goldscore.Internal.Torsion>
-0.5069

> <Gold.Goldscore.External.Vdw>
20.8014

> <Gold.Goldscore.Internal.HBond>
0.0000

> <Gold.Goldscore.External.HBond>
0.2743

> <Gold.Goldscore.Internal.Correction>
-0.7582

> <Gold.Goldscore.Hbonds>
donor molecule, donor type, donor heavy atom, donor atom, acceptor molecule, acceptor atom, score
      L1  H    10    23       P1  3203  0.14

> <Gold.Goldscore.Internal.Vdw.Weighted>
-1.5236

> <Gold.Goldscore.Internal.Torsion.Weighted>
-0.5069

> <Gold.Goldscore.External.Vdw.Weighted>
28.6020

> <Gold.Goldscore.Internal.HBond.Weighted>
0.0000

> <Gold.Goldscore.External.HBond.Weighted>
0.2743

> <Gold.Goldscore.Internal.Correction.Weighted>
-0.7582

> <Gold.Rescore>
     Score     S(PLP)   S(hbond)     S(cho)   S(metal)  DE(clash)   DE(tors)     intcor
     25.31     -24.39       1.00       0.00       0.00       2.06       0.01       ----

> <Gold.PLP.Fitness>
25.3125

> <Gold.PLP.PLP>
-24.3933

> <Gold.PLP.part.hbond>
-1.0000

> <Gold.PLP.part.metal>
0.0000

> <Gold.PLP.part.buried>
-4.0017

> <Gold.PLP.part.nonpolar>
-22.2050

> <Gold.PLP.part.repulsive>
1.3021

> <Gold.PLP.ligand.clash>
2.0648

> <Gold.PLP.ligand.torsion>
0.0080

> <Gold.PLP.Chemscore.Hbond>
1.0000

> <Gold.PLP.Chemscore.CHOScore>
0.0000

> <Gold.PLP.Chemscore.Metal>
0.0000

> <Gold.Chemscore.Hbonds>
donor molecule, donor type, donor heavy atom, donor atom, acceptor molecule, acceptor atom, score
      L1  H    10    23       P1  3203  1.00

> <Gold.PLP.Chemscore.Internal.Correction>
   9.000000E+99

