@<TRIPOS>MOLECULE
B:PO41011
     8     7     1     0     1
SMALL
NO_CHARGES
****
Generated from the CSD

@<TRIPOS>ATOM
     1 P       -0.8959   0.2060   6.0800   P.3       1 PO41011   0.0000
     2 O1      -1.0089   1.6590   6.4970   O.3       1 PO41011   0.0000
     3 O2      -0.7639   0.3120   4.5180   O.3       1 PO41011   0.0000
     4 O3      -2.1899  -0.4780   6.4390   O.2       1 PO41011   0.0000
     5 O4       0.2962  -0.5740   6.5940   O.3       1 PO41011   0.0000
     6 H1       0.0434   0.8431   4.2893   H         1 PO41011   0.0000
     7 H2       0.2816  -0.5847   7.5869   H         1 PO41011   0.0000
     8 H3      -1.8075   2.0651   6.0689   H         1 PO41011   0.0000
@<TRIPOS>BOND
     1     1     2    1
     2     1     3    1
     3     1     4    2
     4     1     5    1
     5     3     6    1
     6     5     7    1
     7     2     8    1
@<TRIPOS>SUBSTRUCTURE
     1 PO41011     1 GROUP             0 B     PO4     0  
@<TRIPOS>SET
CCDC_LIGAND STATIC ATOMS
8 1 2 3 4 5 6 7 8 
