@<TRIPOS>MOLECULE
A:PO41011
     8     7     1     0     1
SMALL
NO_CHARGES
****
Generated from the CSD

@<TRIPOS>ATOM
     1 P       -3.1117  13.9649  18.9361   P.3       1 PO41011   0.0000
     2 O1      -3.0277  15.4079  19.4911   O.3       1 PO41011   0.0000
     3 O2      -2.9887  14.0349  17.3771   O.3       1 PO41011   0.0000
     4 O3      -4.3627  13.2139  19.3561   O.2       1 PO41011   0.0000
     5 O4      -1.8766  13.2629  19.5281   O.3       1 PO41011   0.0000
     6 H1      -2.1185  14.4454  17.1318   H         1 PO41011   0.0000
     7 H2      -1.9268  13.2850  20.5196   H         1 PO41011   0.0000
     8 H3      -3.7682  15.9513  19.1137   H         1 PO41011   0.0000
@<TRIPOS>BOND
     1     1     2    1
     2     1     3    1
     3     1     4    2
     4     1     5    1
     5     3     6    1
     6     5     7    1
     7     2     8    1
@<TRIPOS>SUBSTRUCTURE
     1 PO41011     1 GROUP             0 A     PO4     0  
@<TRIPOS>SET
CCDC_LIGAND STATIC ATOMS
8 1 2 3 4 5 6 7 8 
