#       Name:                CT1002167954
#       Creating user name   hitesit
#       Creation time:       Sun Apr 16 20:16:01 2023


#       File generated by GOLD software.
#

@<TRIPOS>MOLECULE
CT1002167954|ligand_prepared|mol2|1|dock7
    29    30     1
SMALL
NO_CHARGES


@<TRIPOS>ATOM
      1 C1          25.1634  -9.6415   2.2498 C.3            1 RES1               0.0000
      2 C2          24.4893 -10.8566   1.5805 C.ar           1 RES1               0.0000
      3 C3          24.2633  -9.2398   3.4145 C.2            1 RES1               0.0000
      4 C4          26.5548 -10.1030   2.6692 C.2            1 RES1               0.0000
      5 C5          25.3268  -8.4226   1.3122 C.3            1 RES1               0.0000
      6 C6          24.0014 -10.7691   0.2801 C.ar           1 RES1               0.0000
      7 C7          24.3505 -12.0702   2.2488 C.ar           1 RES1               0.0000
      8 N8          24.6917  -9.5351   4.6752 N.am           1 RES1               0.0000
      9 O9          23.1760  -8.7077   3.2278 O.2            1 RES1               0.0000
     10 N10         26.8351 -10.1614   4.0092 N.am           1 RES1               0.0000
     11 O11         27.4054 -10.4324   1.8518 O.2            1 RES1               0.0000
     12 C12         26.0991  -7.2699   1.9340 C.3            1 RES1               0.0000
     13 C13         23.3994 -11.8563  -0.3313 C.ar           1 RES1               0.0000
     14 C14         23.7479 -13.1562   1.6355 C.ar           1 RES1               0.0000
     15 C15         25.9567  -9.9278   5.0320 C.2            1 RES1               0.0000
     16 C16         23.2726 -13.0506   0.3457 C.ar           1 RES1               0.0000
     17 O17         26.2683 -10.0538   6.2127 O.2            1 RES1               0.0000
     18 H18         25.8461  -8.7450   0.4013 H              1 RES1               0.0000
     19 H19         24.3313  -8.0647   1.0217 H              1 RES1               0.0000
     20 H20         24.0901  -9.8368  -0.2675 H              1 RES1               0.0000
     21 H21         24.7160 -12.1760   3.2645 H              1 RES1               0.0000
     22 H22         24.0083  -9.4567   5.4216 H              1 RES1               0.0000
     23 H23         27.7868 -10.4012   4.2683 H              1 RES1               0.0000
     24 H24         26.1848  -6.4410   1.2344 H              1 RES1               0.0000
     25 H25         25.5973  -6.9075   2.8288 H              1 RES1               0.0000
     26 H26         27.1031  -7.5838   2.2121 H              1 RES1               0.0000
     27 H27         23.0258 -11.7677  -1.3461 H              1 RES1               0.0000
     28 H28         23.6497 -14.0939   2.1724 H              1 RES1               0.0000
     29 H29         22.8013 -13.9022  -0.1336 H              1 RES1               0.0000
@<TRIPOS>BOND
    1    1    2 1     
    2    1    3 1     
    3    1    4 1     
    4    1    5 1     
    5    2    6 ar    
    6    2    7 ar    
    7    3    8 1     
    8    3    9 2     
    9    4   10 1     
   10    4   11 2     
   11    5   12 1     
   12    5   18 1     
   13    5   19 1     
   14    6   13 ar    
   15    6   20 1     
   16    7   14 ar    
   17    7   21 1     
   18    8   15 1     
   19    8   22 1     
   20   10   15 1     
   21   10   23 1     
   22   12   24 1     
   23   12   25 1     
   24   12   26 1     
   25   13   16 ar    
   26   13   27 1     
   27   14   16 ar    
   28   14   28 1     
   29   15   17 2     
   30   16   29 1     
@<TRIPOS>SUBSTRUCTURE
      1 RES1           1
@<TRIPOS>SET
DONOR_HYDROGENS      STATIC     ATOMS    <user>   **** ""
2 22 23
ATOM$RED        STATIC     ATOMS    COLORGROUP SYSTEM
2 22 23
@<TRIPOS>COMMENT
> <Gold.Version>
2022.3.0

> <Gold.Id.Protein>
unknown|3owp_clean|pdb

> <Gold.Protein.RotatedTorsions>
[ 3671 3662 3661 3659 ] final  173.74 input   60.00 | X-H torsion
[ 3591 3582 3581 3579 ] final  -37.99 input   60.01 | X-H torsion
[ 3859 3850 3849 3847 ] final -162.24 input   60.02 | X-H torsion
[ 3132 3125 3123 3120 ] final -163.66 input   60.00 | X-H torsion
[ 5167 5158 5157 5155 ] final   52.36 input   60.02 | X-H torsion
[ 2604 2593 2592 2591 ] final  -55.97 input   59.97 | X-H torsion
[  607  600  598  595 ] final   32.70 input   60.04 | X-H torsion
[ 1933 1928 1927 1924 ] final  -58.47 input   59.99 | X-H torsion
[ 3182 3173 3172 3170 ] final  -50.73 input   60.01 | X-H torsion
[  625  620  619  616 ] final   20.84 input   60.02 | X-H torsion

> <Gold.Protein.ActiveResidues>
 LEU49   GLY50   THR51   GLY52   SER53   PHE54   GLY55   VAL79   LEU82   LYS83  
 GLN84   HIS87   THR88   GLY126  GLU127  MET128  PHE129  SER130  HIS131  LEU132 
 ARG133  ARG134  ILE135  GLY136  ARG137  ARG165  ASP166  LEU167  LYS168  PRO169 
 GLU170  ASN171  LEU172  LEU173  ASP184  GLY186  PHE187  TPO197  LEU198  CYS199 
 GLY200  THR201  PRO202  GLU203  TYR204  LEU205  ILE209  ILE210  VAL226  LEU227 
 TYR229  GLU230  ALA233  GLY234  TYR235  PRO236  PRO237  PHE238  PHE239  ALA240 
 ASP241  GLN242  PRO243  ILE244  GLN245  ILE246  TYR247  LYS249  ARG256  PHE257 
 PRO258  SER259  ASN326  PHE327  ASP328  ASP329  TYR330 

> <Gold.Protein.RotatedAtoms>
   19.8480  -12.9448    5.6684 H   0  0  0  0  0  0  0  0  0  0  0  0  # atno 607  bound_to 600 
   17.4905  -12.5295   -1.8633 H   0  0  0  0  0  0  0  0  0  0  0  0  # atno 625  bound_to 620 
   25.3732   -5.0711   12.4860 H   0  0  0  0  0  0  0  0  0  0  0  0  # atno 1933 bound_to 1928
   18.9172   -4.0146    1.6868 H   0  0  0  0  0  0  0  0  0  0  0  0  # atno 2604 bound_to 2593
   18.9492   -3.6602    0.0684 H   0  0  0  0  0  0  0  0  0  0  0  0  # atno 2605 bound_to 2593
   19.5939   -5.0846    0.6180 H   0  0  0  0  0  0  0  0  0  0  0  0  # atno 2606 bound_to 2593
   18.4815   -2.4412    0.1813 H   0  0  0  0  0  0  0  0  0  0  0  0  # atno 3132 bound_to 3125
   20.6432    4.8579    4.3055 H   0  0  0  0  0  0  0  0  0  0  0  0  # atno 3182 bound_to 3173
   15.6727   13.1677    7.8067 H   0  0  0  0  0  0  0  0  0  0  0  0  # atno 3591 bound_to 3582
   16.5325   13.7393   12.9911 H   0  0  0  0  0  0  0  0  0  0  0  0  # atno 3671 bound_to 3662
    8.8123   -1.1227   -3.1519 H   0  0  0  0  0  0  0  0  0  0  0  0  # atno 3859 bound_to 3850
   23.7463  -10.3914    8.8005 H   0  0  0  0  0  0  0  0  0  0  0  0  # atno 5167 bound_to 5158
   15.3798   13.8975   11.8530 LP  0  0  0  0  0  0  0  0  0  0  0  0  # atno 5485 bound_to 3662
   16.9538   14.0720   11.4546 LP  0  0  0  0  0  0  0  0  0  0  0  0  # atno 5486 bound_to 3662
   15.8554   14.6230    7.1017 LP  0  0  0  0  0  0  0  0  0  0  0  0  # atno 5493 bound_to 3582
   16.6691   14.2686    8.4725 LP  0  0  0  0  0  0  0  0  0  0  0  0  # atno 5494 bound_to 3582
    9.6169   -0.7047   -1.8006 LP  0  0  0  0  0  0  0  0  0  0  0  0  # atno 5549 bound_to 3850
   10.2970   -0.4663   -3.2659 LP  0  0  0  0  0  0  0  0  0  0  0  0  # atno 5550 bound_to 3850
   18.5346   -2.0314   -1.3925 LP  0  0  0  0  0  0  0  0  0  0  0  0  # atno 5553 bound_to 3125
   17.3475   -3.0069   -0.8393 LP  0  0  0  0  0  0  0  0  0  0  0  0  # atno 5554 bound_to 3125
   23.0313  -10.0013   10.2090 LP  0  0  0  0  0  0  0  0  0  0  0  0  # atno 5563 bound_to 5158
   22.1227  -10.3537    8.8988 LP  0  0  0  0  0  0  0  0  0  0  0  0  # atno 5564 bound_to 5158
   20.3914  -13.5751    7.0667 LP  0  0  0  0  0  0  0  0  0  0  0  0  # atno 5571 bound_to 600 
   19.0218  -14.1485    6.3871 LP  0  0  0  0  0  0  0  0  0  0  0  0  # atno 5572 bound_to 600 
   26.8478   -5.7015   12.2123 LP  0  0  0  0  0  0  0  0  0  0  0  0  # atno 5573 bound_to 1928
   26.1582   -4.7190   11.1052 LP  0  0  0  0  0  0  0  0  0  0  0  0  # atno 5574 bound_to 1928
   22.0106    5.1544    3.4741 LP  0  0  0  0  0  0  0  0  0  0  0  0  # atno 5603 bound_to 3173
   21.6956    3.6490    4.0229 LP  0  0  0  0  0  0  0  0  0  0  0  0  # atno 5604 bound_to 3173
   16.5335  -11.2802   -1.4497 LP  0  0  0  0  0  0  0  0  0  0  0  0  # atno 5611 bound_to 620 
   16.2538  -12.1042   -2.8315 LP  0  0  0  0  0  0  0  0  0  0  0  0  # atno 5612 bound_to 620 

> <Gold.Score>
     Fitness  S(hb_ext) S(vdw_ext)  S(hb_int)    S(int)      intcor
     31.14       0.09      23.19       0.00      -0.84      -0.77

> <Gold.Goldscore.Fitness>
31.1393

> <Gold.Goldscore.Internal.Vdw>
-1.1959

> <Gold.Goldscore.Internal.Torsion>
-0.4058

> <Gold.Goldscore.External.Vdw>
23.1881

> <Gold.Goldscore.Internal.HBond>
0.0000

> <Gold.Goldscore.External.HBond>
0.0921

> <Gold.Goldscore.Internal.Correction>
-0.7653

> <Gold.Goldscore.Hbonds>
donor molecule, donor type, donor heavy atom, donor atom, acceptor molecule, acceptor atom, score
      P1  H  5158  5167       L1    17  0.05

> <Gold.Goldscore.Internal.Vdw.Weighted>
-1.1959

> <Gold.Goldscore.Internal.Torsion.Weighted>
-0.4058

> <Gold.Goldscore.External.Vdw.Weighted>
31.8836

> <Gold.Goldscore.Internal.HBond.Weighted>
0.0000

> <Gold.Goldscore.External.HBond.Weighted>
0.0921

> <Gold.Goldscore.Internal.Correction.Weighted>
-0.7653

> <Gold.Rescore>
     Score     S(PLP)   S(hbond)     S(cho)   S(metal)  DE(clash)   DE(tors)     intcor
     31.64     -31.95       0.00       0.00       0.00       0.00       0.16       ----

> <Gold.PLP.Fitness>
31.6386

> <Gold.PLP.PLP>
-31.9517

> <Gold.PLP.part.hbond>
0.0000

> <Gold.PLP.part.metal>
0.0000

> <Gold.PLP.part.buried>
-0.1288

> <Gold.PLP.part.nonpolar>
-31.2234

> <Gold.PLP.part.repulsive>
0.3145

> <Gold.PLP.ligand.clash>
0.0000

> <Gold.PLP.ligand.torsion>
0.1566

> <Gold.PLP.Chemscore.Hbond>
0.0000

> <Gold.PLP.Chemscore.CHOScore>
0.0000

> <Gold.PLP.Chemscore.Metal>
0.0000

> <Gold.PLP.Chemscore.Internal.Correction>
   9.000000E+99

