#       Name:                CT1002167954
#       Creating user name   hitesit
#       Creation time:       Sun Apr 16 20:23:35 2023


#       File generated by GOLD software.
#

@<TRIPOS>MOLECULE
CT1002167954|ligand_prepared|mol2|1|dock7
    29    30     1
SMALL
NO_CHARGES


@<TRIPOS>ATOM
      1 C1         188.9916  -5.1825  50.5385 C.3            1 RES1               0.0000
      2 C2         190.0946  -5.4621  49.4974 C.ar           1 RES1               0.0000
      3 C3         187.7495  -4.7797  49.7490 C.2            1 RES1               0.0000
      4 C4         188.8282  -6.4676  51.3425 C.2            1 RES1               0.0000
      5 C5         189.3377  -4.0427  51.5247 C.3            1 RES1               0.0000
      6 C6         189.7901  -5.5206  48.1407 C.ar           1 RES1               0.0000
      7 C7         191.4193  -5.6605  49.8775 C.ar           1 RES1               0.0000
      8 N8         186.7351  -5.6870  49.6611 N.am           1 RES1               0.0000
      9 O9         187.6775  -3.6979  49.1791 O.2            1 RES1               0.0000
     10 N10        187.6401  -7.1426  51.2397 N.am           1 RES1               0.0000
     11 O11        189.7236  -6.9106  52.0511 O.2            1 RES1               0.0000
     12 C12        188.1830  -3.6434  52.4299 C.3            1 RES1               0.0000
     13 C13        190.7746  -5.7657  47.1978 C.ar           1 RES1               0.0000
     14 C14        192.4023  -5.9057  48.9329 C.ar           1 RES1               0.0000
     15 C15        186.5975  -6.8269  50.4117 C.2            1 RES1               0.0000
     16 C16        192.0813  -5.9579  47.5932 C.ar           1 RES1               0.0000
     17 O17        185.5829  -7.5139  50.3350 O.2            1 RES1               0.0000
     18 H18        190.1822  -4.3600  52.1487 H              1 RES1               0.0000
     19 H19        189.6565  -3.1638  50.9508 H              1 RES1               0.0000
     20 H20        188.7670  -5.3742  47.8109 H              1 RES1               0.0000
     21 H21        191.6948  -5.6250  50.9260 H              1 RES1               0.0000
     22 H22        186.0119  -5.5007  48.9736 H              1 RES1               0.0000
     23 H23        187.5218  -7.9556  51.8358 H              1 RES1               0.0000
     24 H24        188.4793  -2.8405  53.1016 H              1 RES1               0.0000
     25 H25        187.3342  -3.2985  51.8431 H              1 RES1               0.0000
     26 H26        187.8568  -4.4876  53.0340 H              1 RES1               0.0000
     27 H27        190.5166  -5.8071  46.1448 H              1 RES1               0.0000
     28 H28        193.4292  -6.0571  49.2487 H              1 RES1               0.0000
     29 H29        192.8524  -6.1495  46.8543 H              1 RES1               0.0000
@<TRIPOS>BOND
    1    1    2 1     
    2    1    3 1     
    3    1    4 1     
    4    1    5 1     
    5    2    6 ar    
    6    2    7 ar    
    7    3    8 1     
    8    3    9 2     
    9    4   10 1     
   10    4   11 2     
   11    5   12 1     
   12    5   18 1     
   13    5   19 1     
   14    6   13 ar    
   15    6   20 1     
   16    7   14 ar    
   17    7   21 1     
   18    8   15 1     
   19    8   22 1     
   20   10   15 1     
   21   10   23 1     
   22   12   24 1     
   23   12   25 1     
   24   12   26 1     
   25   13   16 ar    
   26   13   27 1     
   27   14   16 ar    
   28   14   28 1     
   29   15   17 2     
   30   16   29 1     
@<TRIPOS>SUBSTRUCTURE
      1 RES1           1
@<TRIPOS>SET
DONOR_HYDROGENS      STATIC     ATOMS    <user>   **** ""
2 22 23
ATOM$RED        STATIC     ATOMS    COLORGROUP SYSTEM
2 22 23
@<TRIPOS>COMMENT
> <Gold.Version>
2022.3.0

> <Gold.Id.Protein>
unknown|4d1n_clean|pdb

> <Gold.Protein.RotatedTorsions>
[ 6603 6557 6558 6559 ] final  114.52 input  116.17 | X-H torsion
[ 6691 6637 6638 6639 ] final  132.08 input  120.05 | X-H torsion
[ 8044 8009 8010 8011 ] final   23.51 input   40.01 | X-H torsion
[ 8121 8086 8087 8088 ] final -145.96 input   93.99 | X-H torsion
[ 8189 8152 8153 8154 ] final   29.86 input   75.44 | X-H torsion
[ 8262 8220 8221 8222 ] final -143.32 input   81.29 | X-H torsion
[ 9571 9520 9519 9517 ] final -114.01 input   60.00 | X-H torsion
[ 8325 8297 8298 8299 ] final   36.06 input   91.63 | X-H torsion
[ 10215 10169 10170 10171 ] final  -34.07 input   34.07 | X-H torsion
[ 7962 7922 7923 7924 ] final  149.31 input   79.92 | X-H torsion
[ 7898 7875 7876 7877 ] final    2.37 input   91.72 | X-H torsion
[ 7902 7880 7879 7876 ] final  -80.75 input   60.02 | X-H torsion
[ 6839 6786 6787 6788 ] final  165.76 input  113.73 | X-H torsion
[ 27193 6320 6319 6318 ] final -177.19 input    0.00 | X-H torsion
[ 27196 6560 6559 6558 ] final  -92.31 input    0.00 | X-H torsion
[ 27199 7878 7877 7876 ] final   17.86 input    0.00 | X-H torsion
[ 27202 8012 8011 8010 ] final  -81.00 input    0.00 | X-H torsion
[ 27205 8089 8088 8087 ] final   15.91 input   -0.00 | X-H torsion
[ 27208 8155 8154 8153 ] final   31.79 input   -0.00 | X-H torsion
[ 27214 10086 10085 10084 ] final -173.62 input    0.00 | X-H torsion
[ 27217 10172 10171 10170 ] final   32.52 input    0.00 | X-H torsion
[ 27220 6367 6366 6365 ] final -125.78 input    0.00 | X-H torsion
[ 27222 7925 7924 7923 ] final  -78.05 input   -0.00 | X-H torsion
[ 27224 7790 7789 7788 ] final  149.05 input   -0.00 | X-H torsion

> <Gold.Protein.ActiveResidues>
 ASP403  THR404  LEU406  ILE407  TYR408  ALA410  LYS411  TRP414  TRP426  SER427 
 LYS428  LEU429  GLN430  VAL431  PHE432  ASP433  TYR453  SER462  ALA463  ILE464 

> <Gold.Protein.RotatedAtoms>
  195.9961   -3.7209   37.4855 H   0  0  0  0  0  0  0  0  0  0  0  0  # atno 6603 bound_to 6557
  198.0693   -3.5410   39.1305 H   0  0  0  0  0  0  0  0  0  0  0  0  # atno 6691 bound_to 6637
  196.1706    0.2885   42.2805 H   0  0  0  0  0  0  0  0  0  0  0  0  # atno 6839 bound_to 6786
  196.2840   -0.5843   50.3991 H   0  0  0  0  0  0  0  0  0  0  0  0  # atno 7898 bound_to 7875
  198.3862   -2.8548   51.3259 H   0  0  0  0  0  0  0  0  0  0  0  0  # atno 7902 bound_to 7880
  195.5050   -2.4246   50.7476 H   0  0  0  0  0  0  0  0  0  0  0  0  # atno 7962 bound_to 7922
  192.8952   -3.2240   47.6895 H   0  0  0  0  0  0  0  0  0  0  0  0  # atno 8044 bound_to 8009
  190.4631   -2.7922   46.6356 H   0  0  0  0  0  0  0  0  0  0  0  0  # atno 8121 bound_to 8086
  189.3170   -3.8505   42.6284 H   0  0  0  0  0  0  0  0  0  0  0  0  # atno 8189 bound_to 8152
  188.0440   -2.5658   40.6812 H   0  0  0  0  0  0  0  0  0  0  0  0  # atno 8262 bound_to 8220
  186.8190   -3.2781   36.7297 H   0  0  0  0  0  0  0  0  0  0  0  0  # atno 8325 bound_to 8297
  186.2929   -5.6226   47.0017 H   0  0  0  0  0  0  0  0  0  0  0  0  # atno 9571 bound_to 9520
  187.0210    0.9768   43.3222 H   0  0  0  0  0  0  0  0  0  0  0  0  # atno 10215 bound_to 10169
  196.2282   -5.1885   37.0448 LP  0  0  0  0  0  0  0  0  0  0  0  0  # atno 27193 bound_to 6320
  194.8287   -4.6657   36.1684 LP  0  0  0  0  0  0  0  0  0  0  0  0  # atno 27194 bound_to 6320
  195.9435   -1.9783   37.5926 LP  0  0  0  0  0  0  0  0  0  0  0  0  # atno 27195 bound_to 6557
  196.6707   -0.5871   40.9579 LP  0  0  0  0  0  0  0  0  0  0  0  0  # atno 27196 bound_to 6560
  196.5536   -1.9043   42.0765 LP  0  0  0  0  0  0  0  0  0  0  0  0  # atno 27197 bound_to 6560
  197.1661   -2.3246   40.0081 LP  0  0  0  0  0  0  0  0  0  0  0  0  # atno 27198 bound_to 6637
  196.3455   -4.2442   47.9646 LP  0  0  0  0  0  0  0  0  0  0  0  0  # atno 27199 bound_to 7878
  194.6410   -4.1255   48.2482 LP  0  0  0  0  0  0  0  0  0  0  0  0  # atno 27200 bound_to 7878
  192.7520   -2.0145   48.9427 LP  0  0  0  0  0  0  0  0  0  0  0  0  # atno 27201 bound_to 8009
  192.4321   -2.7099   44.5827 LP  0  0  0  0  0  0  0  0  0  0  0  0  # atno 27202 bound_to 8012
  192.0577   -4.0511   45.6129 LP  0  0  0  0  0  0  0  0  0  0  0  0  # atno 27203 bound_to 8012
  189.8430   -1.3086   45.9458 LP  0  0  0  0  0  0  0  0  0  0  0  0  # atno 27204 bound_to 8086
  188.4723   -0.6559   44.4308 LP  0  0  0  0  0  0  0  0  0  0  0  0  # atno 27205 bound_to 8089
  188.4100   -0.7662   42.7034 LP  0  0  0  0  0  0  0  0  0  0  0  0  # atno 27206 bound_to 8089
  189.9303   -2.4224   43.4338 LP  0  0  0  0  0  0  0  0  0  0  0  0  # atno 27207 bound_to 8152
  189.0577   -4.6846   40.6319 LP  0  0  0  0  0  0  0  0  0  0  0  0  # atno 27208 bound_to 8155
  188.4198   -4.2463   39.0824 LP  0  0  0  0  0  0  0  0  0  0  0  0  # atno 27209 bound_to 8155
  188.2792   -1.0456   39.8568 LP  0  0  0  0  0  0  0  0  0  0  0  0  # atno 27210 bound_to 8220
  185.5718   -5.7191   48.4575 LP  0  0  0  0  0  0  0  0  0  0  0  0  # atno 27211 bound_to 9520
  186.3801   -4.3656   48.0316 LP  0  0  0  0  0  0  0  0  0  0  0  0  # atno 27212 bound_to 9520
  188.0956   -2.3997   37.5422 LP  0  0  0  0  0  0  0  0  0  0  0  0  # atno 27213 bound_to 8297
  187.6660   -1.0669   46.8332 LP  0  0  0  0  0  0  0  0  0  0  0  0  # atno 27214 bound_to 10086
  187.6837   -1.2664   48.5536 LP  0  0  0  0  0  0  0  0  0  0  0  0  # atno 27215 bound_to 10086
  188.5238    1.4802   44.0638 LP  0  0  0  0  0  0  0  0  0  0  0  0  # atno 27216 bound_to 10169
  187.6618   -0.0370   41.5421 LP  0  0  0  0  0  0  0  0  0  0  0  0  # atno 27217 bound_to 10172
  187.7444    0.2360   39.8337 LP  0  0  0  0  0  0  0  0  0  0  0  0  # atno 27218 bound_to 10172
  195.0853   -1.8506   49.1486 LP  0  0  0  0  0  0  0  0  0  0  0  0  # atno 27219 bound_to 7922
  197.9337   -4.1390   38.0270 LP  0  0  0  0  0  0  0  0  0  0  0  0  # atno 27220 bound_to 6367
  198.7620   -5.5126   38.6806 LP  0  0  0  0  0  0  0  0  0  0  0  0  # atno 27221 bound_to 6367
  191.0599   -1.4287   50.3716 LP  0  0  0  0  0  0  0  0  0  0  0  0  # atno 27222 bound_to 7925
  192.1638   -0.2443   49.7561 LP  0  0  0  0  0  0  0  0  0  0  0  0  # atno 27223 bound_to 7925
  196.5187   -0.3638   47.4503 LP  0  0  0  0  0  0  0  0  0  0  0  0  # atno 27224 bound_to 7790
  195.5104    0.9796   47.8731 LP  0  0  0  0  0  0  0  0  0  0  0  0  # atno 27225 bound_to 7790
  197.8936   -0.2520   49.8211 LP  0  0  0  0  0  0  0  0  0  0  0  0  # atno 27226 bound_to 7875
  198.6437   -4.3536   50.7459 LP  0  0  0  0  0  0  0  0  0  0  0  0  # atno 27227 bound_to 7880
  197.1300   -3.7428   50.7944 LP  0  0  0  0  0  0  0  0  0  0  0  0  # atno 27228 bound_to 7880

> <Gold.Score>
     Fitness  S(hb_ext) S(vdw_ext)  S(hb_int)    S(int)      intcor
     24.76       0.39      19.33       0.00      -2.21      -0.77

> <Gold.Goldscore.Fitness>
24.7623

> <Gold.Goldscore.Internal.Vdw>
-2.5153

> <Gold.Goldscore.Internal.Torsion>
-0.4632

> <Gold.Goldscore.External.Vdw>
19.3314

> <Gold.Goldscore.Internal.HBond>
0.0000

> <Gold.Goldscore.External.HBond>
0.3948

> <Gold.Goldscore.Internal.Correction>
-0.7653

> <Gold.Goldscore.Hbonds>
donor molecule, donor type, donor heavy atom, donor atom, acceptor molecule, acceptor atom, score
      L1  H     8    22       P1  9520  0.20

> <Gold.Goldscore.Internal.Vdw.Weighted>
-2.5153

> <Gold.Goldscore.Internal.Torsion.Weighted>
-0.4632

> <Gold.Goldscore.External.Vdw.Weighted>
26.5807

> <Gold.Goldscore.Internal.HBond.Weighted>
0.0000

> <Gold.Goldscore.External.HBond.Weighted>
0.3948

> <Gold.Goldscore.Internal.Correction.Weighted>
-0.7653

> <Gold.Rescore>
     Score     S(PLP)   S(hbond)     S(cho)   S(metal)  DE(clash)   DE(tors)     intcor
     31.35     -31.02       0.85       0.00       0.00       2.00       0.11       ----

> <Gold.PLP.Fitness>
31.3493

> <Gold.PLP.PLP>
-31.0202

> <Gold.PLP.part.hbond>
-1.7729

> <Gold.PLP.part.metal>
0.0000

> <Gold.PLP.part.buried>
-4.5550

> <Gold.PLP.part.nonpolar>
-25.5572

> <Gold.PLP.part.repulsive>
0.1645

> <Gold.PLP.ligand.clash>
2.0021

> <Gold.PLP.ligand.torsion>
0.1064

> <Gold.PLP.Chemscore.Hbond>
0.8480

> <Gold.PLP.Chemscore.CHOScore>
0.0000

> <Gold.PLP.Chemscore.Metal>
0.0000

> <Gold.Chemscore.Hbonds>
donor molecule, donor type, donor heavy atom, donor atom, acceptor molecule, acceptor atom, score
      L1  H     8    22       P1  9520  0.32

> <Gold.PLP.Chemscore.Internal.Correction>
   9.000000E+99

