#       Name:                CT1002167954
#       Creating user name   hitesit
#       Creation time:       Sun Apr 16 20:23:37 2023


#       File generated by GOLD software.
#

@<TRIPOS>MOLECULE
CT1002167954|ligand_prepared|mol2|1|dock10
    29    30     1
SMALL
NO_CHARGES


@<TRIPOS>ATOM
      1 C1         188.9932  -4.7698  50.4811 C.3            1 RES1               0.0000
      2 C2         189.7736  -5.2856  49.2549 C.ar           1 RES1               0.0000
      3 C3         187.5170  -5.0164  50.1842 C.2            1 RES1               0.0000
      4 C4         189.5243  -5.5451  51.6818 C.2            1 RES1               0.0000
      5 C5         189.1930  -3.2618  50.7599 C.3            1 RES1               0.0000
      6 C6         191.1119  -4.9496  49.0740 C.ar           1 RES1               0.0000
      7 C7         189.1706  -6.0989  48.2991 C.ar           1 RES1               0.0000
      8 N8         186.8999  -6.0339  50.8505 N.am           1 RES1               0.0000
      9 O9         186.9137  -4.3537  49.3493 O.2            1 RES1               0.0000
     10 N10        188.6676  -6.4004  52.3238 N.am           1 RES1               0.0000
     11 O11        190.6817  -5.4355  52.0674 O.2            1 RES1               0.0000
     12 C12        188.4657  -2.7659  51.9997 C.3            1 RES1               0.0000
     13 C13        191.8226  -5.4123  47.9789 C.ar           1 RES1               0.0000
     14 C14        189.8831  -6.5603  47.2046 C.ar           1 RES1               0.0000
     15 C15        187.3884  -6.7030  51.9438 C.2            1 RES1               0.0000
     16 C16        191.2089  -6.2182  47.0438 C.ar           1 RES1               0.0000
     17 O17        186.6982  -7.5241  52.5409 O.2            1 RES1               0.0000
     18 H18        190.2655  -3.0634  50.8766 H              1 RES1               0.0000
     19 H19        188.8391  -2.6924  49.8916 H              1 RES1               0.0000
     20 H20        191.6110  -4.3143  49.7982 H              1 RES1               0.0000
     21 H21        188.1283  -6.3799  48.4044 H              1 RES1               0.0000
     22 H22        185.9912  -6.3242  50.5036 H              1 RES1               0.0000
     23 H23        189.0156  -6.8534  53.1629 H              1 RES1               0.0000
     24 H24        188.6391  -1.7023  52.1491 H              1 RES1               0.0000
     25 H25        187.3932  -2.9246  51.9072 H              1 RES1               0.0000
     26 H26        188.8111  -3.2934  52.8864 H              1 RES1               0.0000
     27 H27        192.8655  -5.1390  47.8563 H              1 RES1               0.0000
     28 H28        189.3959  -7.1939  46.4708 H              1 RES1               0.0000
     29 H29        191.7660  -6.5808  46.1863 H              1 RES1               0.0000
@<TRIPOS>BOND
    1    1    2 1     
    2    1    3 1     
    3    1    4 1     
    4    1    5 1     
    5    2    6 ar    
    6    2    7 ar    
    7    3    8 1     
    8    3    9 2     
    9    4   10 1     
   10    4   11 2     
   11    5   12 1     
   12    5   18 1     
   13    5   19 1     
   14    6   13 ar    
   15    6   20 1     
   16    7   14 ar    
   17    7   21 1     
   18    8   15 1     
   19    8   22 1     
   20   10   15 1     
   21   10   23 1     
   22   12   24 1     
   23   12   25 1     
   24   12   26 1     
   25   13   16 ar    
   26   13   27 1     
   27   14   16 ar    
   28   14   28 1     
   29   15   17 2     
   30   16   29 1     
@<TRIPOS>SUBSTRUCTURE
      1 RES1           1
@<TRIPOS>SET
DONOR_HYDROGENS      STATIC     ATOMS    <user>   **** ""
2 22 23
ATOM$RED        STATIC     ATOMS    COLORGROUP SYSTEM
2 22 23
@<TRIPOS>COMMENT
> <Gold.Version>
2022.3.0

> <Gold.Id.Protein>
unknown|4d1n_clean|pdb

> <Gold.Protein.RotatedTorsions>
[ 6603 6557 6558 6559 ] final   24.16 input  116.17 | X-H torsion
[ 6691 6637 6638 6639 ] final  -53.88 input  120.05 | X-H torsion
[ 8044 8009 8010 8011 ] final -143.21 input   40.01 | X-H torsion
[ 8121 8086 8087 8088 ] final -111.74 input   93.99 | X-H torsion
[ 8189 8152 8153 8154 ] final  178.30 input   75.44 | X-H torsion
[ 8262 8220 8221 8222 ] final  109.47 input   81.29 | X-H torsion
[ 9571 9520 9519 9517 ] final  177.62 input   60.00 | X-H torsion
[ 8325 8297 8298 8299 ] final  -31.95 input   91.63 | X-H torsion
[ 10215 10169 10170 10171 ] final   31.05 input   34.07 | X-H torsion
[ 7962 7922 7923 7924 ] final  -35.66 input   79.92 | X-H torsion
[ 7898 7875 7876 7877 ] final  -31.91 input   91.72 | X-H torsion
[ 7902 7880 7879 7876 ] final -146.95 input   60.02 | X-H torsion
[ 6839 6786 6787 6788 ] final   86.71 input  113.73 | X-H torsion
[ 27193 6320 6319 6318 ] final  -63.69 input    0.00 | X-H torsion
[ 27196 6560 6559 6558 ] final   67.05 input    0.00 | X-H torsion
[ 27199 7878 7877 7876 ] final -173.56 input    0.00 | X-H torsion
[ 27202 8012 8011 8010 ] final -132.93 input    0.00 | X-H torsion
[ 27205 8089 8088 8087 ] final  167.89 input   -0.00 | X-H torsion
[ 27208 8155 8154 8153 ] final -172.48 input   -0.00 | X-H torsion
[ 27214 10086 10085 10084 ] final  -36.38 input    0.00 | X-H torsion
[ 27217 10172 10171 10170 ] final   83.05 input    0.00 | X-H torsion
[ 27220 6367 6366 6365 ] final  -60.51 input    0.00 | X-H torsion
[ 27222 7925 7924 7923 ] final  117.92 input   -0.00 | X-H torsion
[ 27224 7790 7789 7788 ] final   63.38 input   -0.00 | X-H torsion

> <Gold.Protein.ActiveResidues>
 ASP403  THR404  LEU406  ILE407  TYR408  ALA410  LYS411  TRP414  TRP426  SER427 
 LYS428  LEU429  GLN430  VAL431  PHE432  ASP433  TYR453  SER462  ALA463  ILE464 

> <Gold.Protein.RotatedAtoms>
  196.8377   -2.8185   37.6959 H   0  0  0  0  0  0  0  0  0  0  0  0  # atno 6603 bound_to 6557
  197.1590   -2.3600   40.0997 H   0  0  0  0  0  0  0  0  0  0  0  0  # atno 6691 bound_to 6637
  197.2499    0.3697   41.9860 H   0  0  0  0  0  0  0  0  0  0  0  0  # atno 6839 bound_to 6786
  196.2362   -0.3054   49.9693 H   0  0  0  0  0  0  0  0  0  0  0  0  # atno 7898 bound_to 7875
  198.9826   -3.6485   51.0792 H   0  0  0  0  0  0  0  0  0  0  0  0  # atno 7902 bound_to 7880
  195.0911   -1.9153   49.0979 H   0  0  0  0  0  0  0  0  0  0  0  0  # atno 7962 bound_to 7922
  192.5753   -2.0977   48.9986 H   0  0  0  0  0  0  0  0  0  0  0  0  # atno 8044 bound_to 8009
  190.8020   -2.6402   46.2679 H   0  0  0  0  0  0  0  0  0  0  0  0  # atno 8121 bound_to 8086
  190.3305   -2.6618   43.3313 H   0  0  0  0  0  0  0  0  0  0  0  0  # atno 8189 bound_to 8152
  187.5854   -1.2280   40.6038 H   0  0  0  0  0  0  0  0  0  0  0  0  # atno 8262 bound_to 8220
  186.7722   -2.3111   36.9548 H   0  0  0  0  0  0  0  0  0  0  0  0  # atno 8325 bound_to 8297
  185.7285   -6.1001   47.7503 H   0  0  0  0  0  0  0  0  0  0  0  0  # atno 9571 bound_to 9520
  187.8550    0.5458   43.1393 H   0  0  0  0  0  0  0  0  0  0  0  0  # atno 10215 bound_to 10169
  195.7016   -4.3301   36.0036 LP  0  0  0  0  0  0  0  0  0  0  0  0  # atno 27193 bound_to 6320
  195.3553   -5.5241   37.2096 LP  0  0  0  0  0  0  0  0  0  0  0  0  # atno 27194 bound_to 6320
  195.1191   -2.8623   37.3866 LP  0  0  0  0  0  0  0  0  0  0  0  0  # atno 27195 bound_to 6557
  196.2554   -1.8717   41.9976 LP  0  0  0  0  0  0  0  0  0  0  0  0  # atno 27196 bound_to 6560
  196.9690   -0.6197   41.0368 LP  0  0  0  0  0  0  0  0  0  0  0  0  # atno 27197 bound_to 6560
  198.0456   -3.4656   39.0717 LP  0  0  0  0  0  0  0  0  0  0  0  0  # atno 27198 bound_to 6637
  194.6732   -4.2308   48.3808 LP  0  0  0  0  0  0  0  0  0  0  0  0  # atno 27199 bound_to 7878
  196.3134   -4.1389   47.8320 LP  0  0  0  0  0  0  0  0  0  0  0  0  # atno 27200 bound_to 7878
  193.0644   -3.1145   47.6642 LP  0  0  0  0  0  0  0  0  0  0  0  0  # atno 27201 bound_to 8009
  191.8299   -3.1248   44.3820 LP  0  0  0  0  0  0  0  0  0  0  0  0  # atno 27202 bound_to 8012
  192.6600   -3.6362   45.8136 LP  0  0  0  0  0  0  0  0  0  0  0  0  # atno 27203 bound_to 8012
  189.5143   -1.4560   46.3025 LP  0  0  0  0  0  0  0  0  0  0  0  0  # atno 27204 bound_to 8086
  188.7856   -0.5965   42.7809 LP  0  0  0  0  0  0  0  0  0  0  0  0  # atno 27205 bound_to 8089
  188.0966   -0.8257   44.3534 LP  0  0  0  0  0  0  0  0  0  0  0  0  # atno 27206 bound_to 8089
  188.9507   -3.5714   42.7544 LP  0  0  0  0  0  0  0  0  0  0  0  0  # atno 27207 bound_to 8152
  188.1171   -4.2990   39.2777 LP  0  0  0  0  0  0  0  0  0  0  0  0  # atno 27208 bound_to 8155
  189.3605   -4.6319   40.4366 LP  0  0  0  0  0  0  0  0  0  0  0  0  # atno 27209 bound_to 8155
  188.7303   -2.3617   39.9329 LP  0  0  0  0  0  0  0  0  0  0  0  0  # atno 27210 bound_to 8220
  185.9396   -4.7382   48.6158 LP  0  0  0  0  0  0  0  0  0  0  0  0  # atno 27211 bound_to 9520
  186.5808   -4.8656   47.1194 LP  0  0  0  0  0  0  0  0  0  0  0  0  # atno 27212 bound_to 9520
  188.1409   -3.3367   37.3241 LP  0  0  0  0  0  0  0  0  0  0  0  0  # atno 27213 bound_to 8297
  188.2693   -1.2359   48.3193 LP  0  0  0  0  0  0  0  0  0  0  0  0  # atno 27214 bound_to 10086
  187.0804   -1.0974   47.0674 LP  0  0  0  0  0  0  0  0  0  0  0  0  # atno 27215 bound_to 10086
  187.7156    1.8980   44.2411 LP  0  0  0  0  0  0  0  0  0  0  0  0  # atno 27216 bound_to 10169
  187.0127   -0.0499   41.1889 LP  0  0  0  0  0  0  0  0  0  0  0  0  # atno 27217 bound_to 10172
  188.3936    0.2488   40.1870 LP  0  0  0  0  0  0  0  0  0  0  0  0  # atno 27218 bound_to 10172
  195.4865   -2.3442   50.7477 LP  0  0  0  0  0  0  0  0  0  0  0  0  # atno 27219 bound_to 7922
  197.4838   -4.8759   38.3833 LP  0  0  0  0  0  0  0  0  0  0  0  0  # atno 27220 bound_to 6367
  199.2119   -4.7756   38.3243 LP  0  0  0  0  0  0  0  0  0  0  0  0  # atno 27221 bound_to 6367
  192.0111   -0.2475   49.5702 LP  0  0  0  0  0  0  0  0  0  0  0  0  # atno 27222 bound_to 7925
  191.2126   -1.4255   50.5575 LP  0  0  0  0  0  0  0  0  0  0  0  0  # atno 27223 bound_to 7925
  196.6774    0.8021   47.4043 LP  0  0  0  0  0  0  0  0  0  0  0  0  # atno 27224 bound_to 7790
  195.3516   -0.1863   47.9192 LP  0  0  0  0  0  0  0  0  0  0  0  0  # atno 27225 bound_to 7790
  197.9412   -0.5297   50.2490 LP  0  0  0  0  0  0  0  0  0  0  0  0  # atno 27226 bound_to 7875
  197.6274   -4.4047   50.5886 LP  0  0  0  0  0  0  0  0  0  0  0  0  # atno 27227 bound_to 7880
  197.5461   -2.8927   51.2001 LP  0  0  0  0  0  0  0  0  0  0  0  0  # atno 27228 bound_to 7880

> <Gold.Score>
     Fitness  S(hb_ext) S(vdw_ext)  S(hb_int)    S(int)      intcor
     24.45       0.00      19.21       0.00      -1.97      -0.77

> <Gold.Goldscore.Fitness>
24.4476

> <Gold.Goldscore.Internal.Vdw>
-2.3620

> <Gold.Goldscore.Internal.Torsion>
-0.3749

> <Gold.Goldscore.External.Vdw>
19.2139

> <Gold.Goldscore.Internal.HBond>
0.0000

> <Gold.Goldscore.External.HBond>
0.0000

> <Gold.Goldscore.Internal.Correction>
-0.7653

> <Gold.Goldscore.Internal.Vdw.Weighted>
-2.3620

> <Gold.Goldscore.Internal.Torsion.Weighted>
-0.3749

> <Gold.Goldscore.External.Vdw.Weighted>
26.4192

> <Gold.Goldscore.Internal.HBond.Weighted>
0.0000

> <Gold.Goldscore.External.HBond.Weighted>
0.0000

> <Gold.Goldscore.Internal.Correction.Weighted>
-0.7653

> <Gold.Rescore>
     Score     S(PLP)   S(hbond)     S(cho)   S(metal)  DE(clash)   DE(tors)     intcor
     29.60     -31.03       0.00       0.00       0.00       1.38       0.02       ----

> <Gold.PLP.Fitness>
29.5999

> <Gold.PLP.PLP>
-31.0285

> <Gold.PLP.part.hbond>
-1.9986

> <Gold.PLP.part.metal>
0.0000

> <Gold.PLP.part.buried>
-2.4837

> <Gold.PLP.part.nonpolar>
-26.9577

> <Gold.PLP.part.repulsive>
0.1711

> <Gold.PLP.ligand.clash>
1.3809

> <Gold.PLP.ligand.torsion>
0.0239

> <Gold.PLP.Chemscore.Hbond>
0.0000

> <Gold.PLP.Chemscore.CHOScore>
0.0000

> <Gold.PLP.Chemscore.Metal>
0.0000

> <Gold.PLP.Chemscore.Internal.Correction>
   9.000000E+99

