#       Name:                CT1002167954
#       Creating user name   hitesit
#       Creation time:       Sun Apr 16 20:29:15 2023


#       File generated by GOLD software.
#

@<TRIPOS>MOLECULE
CT1002167954|ligand_prepared|mol2|1|dock10
    29    30     1
SMALL
NO_CHARGES


@<TRIPOS>ATOM
      1 C1         207.7541  43.9463  14.5329 C.3            1 RES1               0.0000
      2 C2         208.5495  43.3171  13.3708 C.ar           1 RES1               0.0000
      3 C3         208.5258  43.6175  15.8076 C.2            1 RES1               0.0000
      4 C4         207.6618  45.4374  14.2286 C.2            1 RES1               0.0000
      5 C5         206.3152  43.3975  14.6745 C.3            1 RES1               0.0000
      6 C6         209.7126  43.9193  12.9004 C.ar           1 RES1               0.0000
      7 C7         208.1347  42.1356  12.7620 C.ar           1 RES1               0.0000
      8 N8         209.2220  44.6278  16.4030 N.am           1 RES1               0.0000
      9 O9         208.5551  42.4803  16.2615 O.2            1 RES1               0.0000
     10 N10        208.3045  46.3058  15.0716 N.am           1 RES1               0.0000
     11 O11        207.0522  45.8671  13.2570 O.2            1 RES1               0.0000
     12 C12        205.4632  44.1620  15.6754 C.3            1 RES1               0.0000
     13 C13        210.4366  43.3590  11.8610 C.ar           1 RES1               0.0000
     14 C14        208.8601  41.5772  11.7226 C.ar           1 RES1               0.0000
     15 C15        209.1059  45.9666  16.1275 C.2            1 RES1               0.0000
     16 C16        210.0112  42.1876  11.2718 C.ar           1 RES1               0.0000
     17 O17        209.6944  46.8034  16.8062 O.2            1 RES1               0.0000
     18 H18        205.8255  43.4337  13.6935 H              1 RES1               0.0000
     19 H19        206.3670  42.3466  14.9848 H              1 RES1               0.0000
     20 H20        210.0615  44.8429  13.3501 H              1 RES1               0.0000
     21 H21        207.2316  41.6385  13.0995 H              1 RES1               0.0000
     22 H22        209.8909  44.3635  17.1192 H              1 RES1               0.0000
     23 H23        208.1732  47.2968  14.8959 H              1 RES1               0.0000
     24 H24        204.4639  43.7360  15.7360 H              1 RES1               0.0000
     25 H25        205.9079  44.1255  16.6678 H              1 RES1               0.0000
     26 H26        205.3695  45.2061  15.3841 H              1 RES1               0.0000
     27 H27        211.3410  43.8441  11.5090 H              1 RES1               0.0000
     28 H28        208.5213  40.6554  11.2614 H              1 RES1               0.0000
     29 H29        210.5787  41.7487  10.4578 H              1 RES1               0.0000
@<TRIPOS>BOND
    1    1    2 1     
    2    1    3 1     
    3    1    4 1     
    4    1    5 1     
    5    2    6 ar    
    6    2    7 ar    
    7    3    8 1     
    8    3    9 2     
    9    4   10 1     
   10    4   11 2     
   11    5   12 1     
   12    5   18 1     
   13    5   19 1     
   14    6   13 ar    
   15    6   20 1     
   16    7   14 ar    
   17    7   21 1     
   18    8   15 1     
   19    8   22 1     
   20   10   15 1     
   21   10   23 1     
   22   12   24 1     
   23   12   25 1     
   24   12   26 1     
   25   13   16 ar    
   26   13   27 1     
   27   14   16 ar    
   28   14   28 1     
   29   15   17 2     
   30   16   29 1     
@<TRIPOS>SUBSTRUCTURE
      1 RES1           1
@<TRIPOS>SET
DONOR_HYDROGENS      STATIC     ATOMS    <user>   **** ""
2 22 23
ATOM$RED        STATIC     ATOMS    COLORGROUP SYSTEM
2 22 23
@<TRIPOS>COMMENT
> <Gold.Version>
2022.3.0

> <Gold.Id.Protein>
unknown|4v3u_clean|pdb

> <Gold.Protein.RotatedTorsions>
[ 8327 8303 8304 8305 ] final  -82.34 input  100.38 | X-H torsion
[ 8365 8345 8346 8347 ] final  -96.56 input   76.03 | X-H torsion
[ 8445 8397 8398 8399 ] final  -39.95 input  108.00 | X-H torsion
[ 8511 8487 8488 8489 ] final  -54.20 input   86.22 | X-H torsion
[ 9080 9050 9049 9047 ] final   76.38 input   59.99 | X-H torsion
[ 8251 8229 8230 8231 ] final   69.25 input   84.12 | X-H torsion
[ 8553 8531 8532 8533 ] final  -98.98 input  114.02 | X-H torsion
[ 10323 10307 10308 10309 ] final  -48.56 input   62.28 | X-H torsion
[ 27205 8306 8305 8304 ] final  139.23 input   -0.00 | X-H torsion
[ 27220 8348 8347 8346 ] final  -47.42 input    0.00 | X-H torsion
[ 27222 8400 8399 8398 ] final  -85.78 input    0.00 | X-H torsion
[ 27224 8160 8159 8158 ] final   24.08 input    0.00 | X-H torsion
[ 27226 8232 8231 8230 ] final   -6.77 input    0.00 | X-H torsion
[ 27230 10310 10309 10308 ] final  -23.34 input   -0.00 | X-H torsion

> <Gold.Protein.ActiveResidues>
 ASP403  LEU406  ILE407  GLN430  VAL431  PHE432  ASP433  ALA434  ARG435  ASP436 
 CYS437  TYR446  ASN449  THR465  ILE466 

> <Gold.Protein.RotatedAtoms>
  219.5492   38.3756   10.9898 H   0  0  0  0  0  0  0  0  0  0  0  0  # atno 8251 bound_to 8229
  216.6801   39.3696   10.5508 H   0  0  0  0  0  0  0  0  0  0  0  0  # atno 8327 bound_to 8303
  213.6135   39.2721   10.3073 H   0  0  0  0  0  0  0  0  0  0  0  0  # atno 8365 bound_to 8345
  210.8518   38.0226    9.8737 H   0  0  0  0  0  0  0  0  0  0  0  0  # atno 8445 bound_to 8397
  208.3566   38.1047    9.9830 H   0  0  0  0  0  0  0  0  0  0  0  0  # atno 8511 bound_to 8487
  207.4928   38.1900    7.2384 H   0  0  0  0  0  0  0  0  0  0  0  0  # atno 8553 bound_to 8531
  211.8876   40.4191    5.5644 H   0  0  0  0  0  0  0  0  0  0  0  0  # atno 9080 bound_to 9050
  216.0309   34.8995   10.6758 H   0  0  0  0  0  0  0  0  0  0  0  0  # atno 10323 bound_to 10307
  216.4218   41.0882   10.3293 LP  0  0  0  0  0  0  0  0  0  0  0  0  # atno 27204 bound_to 8303
  213.1462   40.0612    8.4637 LP  0  0  0  0  0  0  0  0  0  0  0  0  # atno 27205 bound_to 8306
  212.9967   41.2610    9.7038 LP  0  0  0  0  0  0  0  0  0  0  0  0  # atno 27206 bound_to 8306
  213.9620   37.6581   10.8713 LP  0  0  0  0  0  0  0  0  0  0  0  0  # atno 27211 bound_to 8345
  211.4867   38.6165   11.3872 LP  0  0  0  0  0  0  0  0  0  0  0  0  # atno 27212 bound_to 8397
  209.0769   39.6602    9.6432 LP  0  0  0  0  0  0  0  0  0  0  0  0  # atno 27213 bound_to 8487
  212.1033   39.9641    7.1114 LP  0  0  0  0  0  0  0  0  0  0  0  0  # atno 27218 bound_to 9050
  210.7907   39.4563    6.2831 LP  0  0  0  0  0  0  0  0  0  0  0  0  # atno 27219 bound_to 9050
  210.3270   36.4565    8.4242 LP  0  0  0  0  0  0  0  0  0  0  0  0  # atno 27220 bound_to 8348
  209.9968   35.9030   10.0319 LP  0  0  0  0  0  0  0  0  0  0  0  0  # atno 27221 bound_to 8348
  206.7046   37.0878   10.8858 LP  0  0  0  0  0  0  0  0  0  0  0  0  # atno 27222 bound_to 8400
  206.5042   38.6373   11.6334 LP  0  0  0  0  0  0  0  0  0  0  0  0  # atno 27223 bound_to 8400
  220.0167   42.2473   11.5615 LP  0  0  0  0  0  0  0  0  0  0  0  0  # atno 27224 bound_to 8160
  218.5182   41.6968   10.8896 LP  0  0  0  0  0  0  0  0  0  0  0  0  # atno 27225 bound_to 8160
  217.2836   37.2738   10.5087 LP  0  0  0  0  0  0  0  0  0  0  0  0  # atno 27226 bound_to 8232
  215.8357   37.8164   11.2890 LP  0  0  0  0  0  0  0  0  0  0  0  0  # atno 27227 bound_to 8232
  219.8058   40.1008   11.0843 LP  0  0  0  0  0  0  0  0  0  0  0  0  # atno 27228 bound_to 8229
  208.1304   37.1381    8.4878 LP  0  0  0  0  0  0  0  0  0  0  0  0  # atno 27229 bound_to 8531
  213.5662   36.8655   12.2923 LP  0  0  0  0  0  0  0  0  0  0  0  0  # atno 27230 bound_to 10310
  212.4391   36.0832   11.2351 LP  0  0  0  0  0  0  0  0  0  0  0  0  # atno 27231 bound_to 10310

> <Gold.Score>
     Fitness  S(hb_ext) S(vdw_ext)  S(hb_int)    S(int)      intcor
     25.52       0.00      18.58       0.00      -0.03      -0.77

> <Gold.Goldscore.Fitness>
25.5178

> <Gold.Goldscore.Internal.Vdw>
-0.3074

> <Gold.Goldscore.Internal.Torsion>
-0.4894

> <Gold.Goldscore.External.Vdw>
18.5784

> <Gold.Goldscore.Internal.HBond>
0.0000

> <Gold.Goldscore.External.HBond>
0.0000

> <Gold.Goldscore.Internal.Correction>
-0.7693

> <Gold.Goldscore.Internal.Vdw.Weighted>
-0.3074

> <Gold.Goldscore.Internal.Torsion.Weighted>
-0.4894

> <Gold.Goldscore.External.Vdw.Weighted>
25.5452

> <Gold.Goldscore.Internal.HBond.Weighted>
0.0000

> <Gold.Goldscore.External.HBond.Weighted>
0.0000

> <Gold.Goldscore.Internal.Correction.Weighted>
-0.7693

> <Gold.Rescore>
     Score     S(PLP)   S(hbond)     S(cho)   S(metal)  DE(clash)   DE(tors)     intcor
     24.35     -24.68       0.00       0.00       0.00       0.00       0.17       ----

> <Gold.PLP.Fitness>
24.3531

> <Gold.PLP.PLP>
-24.6845

> <Gold.PLP.part.hbond>
-2.7929

> <Gold.PLP.part.metal>
0.0000

> <Gold.PLP.part.buried>
-3.8328

> <Gold.PLP.part.nonpolar>
-18.9752

> <Gold.PLP.part.repulsive>
0.7003

> <Gold.PLP.ligand.clash>
0.0000

> <Gold.PLP.ligand.torsion>
0.1657

> <Gold.PLP.Chemscore.Hbond>
0.0000

> <Gold.PLP.Chemscore.CHOScore>
0.0000

> <Gold.PLP.Chemscore.Metal>
0.0000

> <Gold.PLP.Chemscore.Internal.Correction>
   9.000000E+99

