#       Name:                CT1002167954
#       Creating user name   hitesit
#       Creation time:       Sun Apr 16 20:29:12 2023


#       File generated by GOLD software.
#

@<TRIPOS>MOLECULE
CT1002167954|ligand_prepared|mol2|1|dock4
    29    30     1
SMALL
NO_CHARGES


@<TRIPOS>ATOM
      1 C1         207.6607  42.6297  12.5089 C.3            1 RES1               0.0000
      2 C2         208.9894  42.5750  11.7276 C.ar           1 RES1               0.0000
      3 C3         207.9989  42.2767  13.9544 C.2            1 RES1               0.0000
      4 C4         207.1153  44.0415  12.3246 C.2            1 RES1               0.0000
      5 C5         206.5934  41.6345  11.9971 C.3            1 RES1               0.0000
      6 C6         209.7252  43.7338  11.4988 C.ar           1 RES1               0.0000
      7 C7         209.4925  41.3748  11.2325 C.ar           1 RES1               0.0000
      8 N8         207.9961  43.2883  14.8690 N.am           1 RES1               0.0000
      9 O9         208.3021  41.1353  14.2793 O.2            1 RES1               0.0000
     10 N10        207.0345  44.8480  13.4295 N.am           1 RES1               0.0000
     11 O11        206.7703  44.4684  11.2296 O.2            1 RES1               0.0000
     12 C12        205.2524  41.7566  12.7035 C.3            1 RES1               0.0000
     13 C13        210.9221  43.6940  10.8030 C.ar           1 RES1               0.0000
     14 C14        210.6895  41.3372  10.5367 C.ar           1 RES1               0.0000
     15 C15        207.4789  44.5458  14.6878 C.2            1 RES1               0.0000
     16 C16        211.4052  42.4958  10.3219 C.ar           1 RES1               0.0000
     17 O17        207.4215  45.3443  15.6185 O.2            1 RES1               0.0000
     18 H18        206.4431  41.7995  10.9231 H              1 RES1               0.0000
     19 H19        206.9706  40.6130  12.1299 H              1 RES1               0.0000
     20 H20        209.3596  44.6863  11.8678 H              1 RES1               0.0000
     21 H21        208.9458  40.4510  11.3886 H              1 RES1               0.0000
     22 H22        208.4177  43.0917  15.7712 H              1 RES1               0.0000
     23 H23        206.6029  45.7579  13.3021 H              1 RES1               0.0000
     24 H24        204.5403  41.0362  12.3065 H              1 RES1               0.0000
     25 H25        205.3605  41.5736  13.7706 H              1 RES1               0.0000
     26 H26        204.8360  42.7531  12.5709 H              1 RES1               0.0000
     27 H27        211.4809  44.6088  10.6354 H              1 RES1               0.0000
     28 H28        211.0657  40.3921  10.1593 H              1 RES1               0.0000
     29 H29        212.3431  42.4648   9.7772 H              1 RES1               0.0000
@<TRIPOS>BOND
    1    1    2 1     
    2    1    3 1     
    3    1    4 1     
    4    1    5 1     
    5    2    6 ar    
    6    2    7 ar    
    7    3    8 1     
    8    3    9 2     
    9    4   10 1     
   10    4   11 2     
   11    5   12 1     
   12    5   18 1     
   13    5   19 1     
   14    6   13 ar    
   15    6   20 1     
   16    7   14 ar    
   17    7   21 1     
   18    8   15 1     
   19    8   22 1     
   20   10   15 1     
   21   10   23 1     
   22   12   24 1     
   23   12   25 1     
   24   12   26 1     
   25   13   16 ar    
   26   13   27 1     
   27   14   16 ar    
   28   14   28 1     
   29   15   17 2     
   30   16   29 1     
@<TRIPOS>SUBSTRUCTURE
      1 RES1           1
@<TRIPOS>SET
DONOR_HYDROGENS      STATIC     ATOMS    <user>   **** ""
2 22 23
ATOM$RED        STATIC     ATOMS    COLORGROUP SYSTEM
2 22 23
@<TRIPOS>COMMENT
> <Gold.Version>
2022.3.0

> <Gold.Id.Protein>
unknown|4v3u_clean|pdb

> <Gold.Protein.RotatedTorsions>
[ 8327 8303 8304 8305 ] final  -27.27 input  100.38 | X-H torsion
[ 8365 8345 8346 8347 ] final  -75.33 input   76.03 | X-H torsion
[ 8445 8397 8398 8399 ] final  114.94 input  108.00 | X-H torsion
[ 8511 8487 8488 8489 ] final   27.41 input   86.22 | X-H torsion
[ 9080 9050 9049 9047 ] final  -13.03 input   59.99 | X-H torsion
[ 8251 8229 8230 8231 ] final   21.91 input   84.12 | X-H torsion
[ 8553 8531 8532 8533 ] final  -11.27 input  114.02 | X-H torsion
[ 10323 10307 10308 10309 ] final    7.41 input   62.28 | X-H torsion
[ 27205 8306 8305 8304 ] final -152.17 input   -0.00 | X-H torsion
[ 27220 8348 8347 8346 ] final  -16.12 input    0.00 | X-H torsion
[ 27222 8400 8399 8398 ] final   65.73 input    0.00 | X-H torsion
[ 27224 8160 8159 8158 ] final  -19.22 input    0.00 | X-H torsion
[ 27226 8232 8231 8230 ] final   98.97 input    0.00 | X-H torsion
[ 27230 10310 10309 10308 ] final  168.05 input   -0.00 | X-H torsion

> <Gold.Protein.ActiveResidues>
 ASP403  LEU406  ILE407  GLN430  VAL431  PHE432  ASP433  ALA434  ARG435  ASP436 
 CYS437  TYR446  ASN449  THR465  ILE466 

> <Gold.Protein.RotatedAtoms>
  219.1649   38.6933   11.4935 H   0  0  0  0  0  0  0  0  0  0  0  0  # atno 8251 bound_to 8229
  216.3209   39.6141    9.8489 H   0  0  0  0  0  0  0  0  0  0  0  0  # atno 8327 bound_to 8303
  213.3906   39.2409   10.5402 H   0  0  0  0  0  0  0  0  0  0  0  0  # atno 8365 bound_to 8345
  211.3569   38.9397   11.2358 H   0  0  0  0  0  0  0  0  0  0  0  0  # atno 8445 bound_to 8397
  209.0820   38.4345    9.1457 H   0  0  0  0  0  0  0  0  0  0  0  0  # atno 8511 bound_to 8487
  206.9719   37.4775    8.1102 H   0  0  0  0  0  0  0  0  0  0  0  0  # atno 8553 bound_to 8531
  212.3505   40.2423    6.7840 H   0  0  0  0  0  0  0  0  0  0  0  0  # atno 9080 bound_to 9050
  215.7625   35.6802   10.7427 H   0  0  0  0  0  0  0  0  0  0  0  0  # atno 10323 bound_to 10307
  216.7674   40.8529   11.0045 LP  0  0  0  0  0  0  0  0  0  0  0  0  # atno 27204 bound_to 8303
  212.3648   40.1624    9.0398 LP  0  0  0  0  0  0  0  0  0  0  0  0  # atno 27205 bound_to 8306
  213.7782   41.1598    9.1277 LP  0  0  0  0  0  0  0  0  0  0  0  0  # atno 27206 bound_to 8306
  214.1815   37.6889   10.6419 LP  0  0  0  0  0  0  0  0  0  0  0  0  # atno 27211 bound_to 8345
  210.9900   37.7147   10.0477 LP  0  0  0  0  0  0  0  0  0  0  0  0  # atno 27212 bound_to 8397
  208.3689   39.3382   10.4604 LP  0  0  0  0  0  0  0  0  0  0  0  0  # atno 27213 bound_to 8487
  210.9656   39.3895    6.7439 LP  0  0  0  0  0  0  0  0  0  0  0  0  # atno 27218 bound_to 9050
  211.4620   40.2091    5.4216 LP  0  0  0  0  0  0  0  0  0  0  0  0  # atno 27219 bound_to 9050
  210.6638   36.1480    8.5230 LP  0  0  0  0  0  0  0  0  0  0  0  0  # atno 27220 bound_to 8348
  209.6600   36.2115    9.9331 LP  0  0  0  0  0  0  0  0  0  0  0  0  # atno 27221 bound_to 8348
  206.6907   38.3992   11.9338 LP  0  0  0  0  0  0  0  0  0  0  0  0  # atno 27222 bound_to 8400
  206.5181   37.3258   10.5854 LP  0  0  0  0  0  0  0  0  0  0  0  0  # atno 27223 bound_to 8400
  219.5719   42.1654   12.0130 LP  0  0  0  0  0  0  0  0  0  0  0  0  # atno 27224 bound_to 8160
  218.9631   41.7787   10.4382 LP  0  0  0  0  0  0  0  0  0  0  0  0  # atno 27225 bound_to 8160
  216.7878   37.7326   11.7130 LP  0  0  0  0  0  0  0  0  0  0  0  0  # atno 27226 bound_to 8232
  216.3316   37.3577   10.0847 LP  0  0  0  0  0  0  0  0  0  0  0  0  # atno 27227 bound_to 8232
  220.1820   39.7897   10.5910 LP  0  0  0  0  0  0  0  0  0  0  0  0  # atno 27228 bound_to 8229
  208.6293   37.8206    7.6527 LP  0  0  0  0  0  0  0  0  0  0  0  0  # atno 27229 bound_to 8531
  212.3414   36.0713   11.3761 LP  0  0  0  0  0  0  0  0  0  0  0  0  # atno 27230 bound_to 10310
  213.6639   36.8775   12.1513 LP  0  0  0  0  0  0  0  0  0  0  0  0  # atno 27231 bound_to 10310

> <Gold.Score>
     Fitness  S(hb_ext) S(vdw_ext)  S(hb_int)    S(int)      intcor
     26.10       0.00      19.91       0.00      -1.28      -0.77

> <Gold.Goldscore.Fitness>
26.0967

> <Gold.Goldscore.Internal.Vdw>
-1.6600

> <Gold.Goldscore.Internal.Torsion>
-0.3931

> <Gold.Goldscore.External.Vdw>
19.9131

> <Gold.Goldscore.Internal.HBond>
0.0000

> <Gold.Goldscore.External.HBond>
0.0000

> <Gold.Goldscore.Internal.Correction>
-0.7693

> <Gold.Goldscore.Internal.Vdw.Weighted>
-1.6600

> <Gold.Goldscore.Internal.Torsion.Weighted>
-0.3931

> <Gold.Goldscore.External.Vdw.Weighted>
27.3805

> <Gold.Goldscore.Internal.HBond.Weighted>
0.0000

> <Gold.Goldscore.External.HBond.Weighted>
0.0000

> <Gold.Goldscore.Internal.Correction.Weighted>
-0.7693

> <Gold.Rescore>
     Score     S(PLP)   S(hbond)     S(cho)   S(metal)  DE(clash)   DE(tors)     intcor
     19.36     -21.52       0.00       0.00       0.00       2.13       0.01       ----

> <Gold.PLP.Fitness>
19.3627

> <Gold.PLP.PLP>
-21.5228

> <Gold.PLP.part.hbond>
-1.0000

> <Gold.PLP.part.metal>
0.0000

> <Gold.PLP.part.buried>
1.4313

> <Gold.PLP.part.nonpolar>
-21.9653

> <Gold.PLP.part.repulsive>
0.2778

> <Gold.PLP.ligand.clash>
2.1309

> <Gold.PLP.ligand.torsion>
0.0146

> <Gold.PLP.Chemscore.Hbond>
0.0000

> <Gold.PLP.Chemscore.CHOScore>
0.0000

> <Gold.PLP.Chemscore.Metal>
0.0000

> <Gold.PLP.Chemscore.Internal.Correction>
   9.000000E+99

