#       Name:                CT1002167954
#       Creating user name   hitesit
#       Creation time:       Sun Apr 16 20:29:14 2023


#       File generated by GOLD software.
#

@<TRIPOS>MOLECULE
CT1002167954|ligand_prepared|mol2|1|dock8
    29    30     1
SMALL
NO_CHARGES


@<TRIPOS>ATOM
      1 C1         211.5939  44.3762   8.8991 C.3            1 RES1               0.0000
      2 C2         210.8971  43.6262  10.0527 C.ar           1 RES1               0.0000
      3 C3         212.8240  43.5510   8.5328 C.2            1 RES1               0.0000
      4 C4         210.5644  44.4888   7.7801 C.2            1 RES1               0.0000
      5 C5         212.0539  45.8052   9.2707 C.3            1 RES1               0.0000
      6 C6         210.7754  42.2401  10.0254 C.ar           1 RES1               0.0000
      7 C7         210.3743  44.3051  11.1501 C.ar           1 RES1               0.0000
      8 N8         212.7825  42.8361   7.3721 N.am           1 RES1               0.0000
      9 O9         213.8002  43.4971   9.2706 O.2            1 RES1               0.0000
     10 N10        210.8101  43.8165   6.6116 N.am           1 RES1               0.0000
     11 O11        209.5348  45.1402   7.9058 O.2            1 RES1               0.0000
     12 C12        212.9583  46.4479   8.2310 C.3            1 RES1               0.0000
     13 C13        210.1562  41.5572  11.0591 C.ar           1 RES1               0.0000
     14 C14        209.7553  43.6203  12.1827 C.ar           1 RES1               0.0000
     15 C15        211.8575  42.9704   6.3681 C.2            1 RES1               0.0000
     16 C16        209.6462  42.2466  12.1385 C.ar           1 RES1               0.0000
     17 O17        211.9812  42.3589   5.3108 O.2            1 RES1               0.0000
     18 H18        211.1676  46.4371   9.4069 H              1 RES1               0.0000
     19 H19        212.5883  45.7664  10.2279 H              1 RES1               0.0000
     20 H20        211.1685  41.6808   9.1830 H              1 RES1               0.0000
     21 H21        210.4478  45.3859  11.2057 H              1 RES1               0.0000
     22 H22        213.5060  42.1369   7.2384 H              1 RES1               0.0000
     23 H23        210.1511  43.9601   5.8530 H              1 RES1               0.0000
     24 H24        213.2518  47.4487   8.5409 H              1 RES1               0.0000
     25 H25        213.8618  45.8587   8.0885 H              1 RES1               0.0000
     26 H26        212.4495  46.5255   7.2723 H              1 RES1               0.0000
     27 H27        210.0717  40.4762  11.0189 H              1 RES1               0.0000
     28 H28        209.3548  44.1670  13.0300 H              1 RES1               0.0000
     29 H29        209.1615  41.7114  12.9483 H              1 RES1               0.0000
@<TRIPOS>BOND
    1    1    2 1     
    2    1    3 1     
    3    1    4 1     
    4    1    5 1     
    5    2    6 ar    
    6    2    7 ar    
    7    3    8 1     
    8    3    9 2     
    9    4   10 1     
   10    4   11 2     
   11    5   12 1     
   12    5   18 1     
   13    5   19 1     
   14    6   13 ar    
   15    6   20 1     
   16    7   14 ar    
   17    7   21 1     
   18    8   15 1     
   19    8   22 1     
   20   10   15 1     
   21   10   23 1     
   22   12   24 1     
   23   12   25 1     
   24   12   26 1     
   25   13   16 ar    
   26   13   27 1     
   27   14   16 ar    
   28   14   28 1     
   29   15   17 2     
   30   16   29 1     
@<TRIPOS>SUBSTRUCTURE
      1 RES1           1
@<TRIPOS>SET
DONOR_HYDROGENS      STATIC     ATOMS    <user>   **** ""
2 22 23
ATOM$RED        STATIC     ATOMS    COLORGROUP SYSTEM
2 22 23
@<TRIPOS>COMMENT
> <Gold.Version>
2022.3.0

> <Gold.Id.Protein>
unknown|4v3u_clean|pdb

> <Gold.Protein.RotatedTorsions>
[ 8327 8303 8304 8305 ] final -169.37 input  100.38 | X-H torsion
[ 8365 8345 8346 8347 ] final  106.43 input   76.03 | X-H torsion
[ 8445 8397 8398 8399 ] final  143.54 input  108.00 | X-H torsion
[ 8511 8487 8488 8489 ] final -109.46 input   86.22 | X-H torsion
[ 9080 9050 9049 9047 ] final   83.48 input   59.99 | X-H torsion
[ 8251 8229 8230 8231 ] final -151.53 input   84.12 | X-H torsion
[ 8553 8531 8532 8533 ] final   59.75 input  114.02 | X-H torsion
[ 10323 10307 10308 10309 ] final -118.31 input   62.28 | X-H torsion
[ 27205 8306 8305 8304 ] final  -49.66 input   -0.00 | X-H torsion
[ 27220 8348 8347 8346 ] final   -7.56 input    0.00 | X-H torsion
[ 27222 8400 8399 8398 ] final  148.01 input    0.00 | X-H torsion
[ 27224 8160 8159 8158 ] final  -79.04 input    0.00 | X-H torsion
[ 27226 8232 8231 8230 ] final  166.34 input    0.00 | X-H torsion
[ 27230 10310 10309 10308 ] final -168.01 input   -0.00 | X-H torsion

> <Gold.Protein.ActiveResidues>
 ASP403  LEU406  ILE407  GLN430  VAL431  PHE432  ASP433  ALA434  ARG435  ASP436 
 CYS437  TYR446  ASN449  THR465  ILE466 

> <Gold.Protein.RotatedAtoms>
  220.1539   39.8750   10.6386 H   0  0  0  0  0  0  0  0  0  0  0  0  # atno 8251 bound_to 8229
  216.9043   40.3562   11.2493 H   0  0  0  0  0  0  0  0  0  0  0  0  # atno 8327 bound_to 8303
  214.2075   37.6864   10.6263 H   0  0  0  0  0  0  0  0  0  0  0  0  # atno 8365 bound_to 8345
  211.5107   38.5721   11.4096 H   0  0  0  0  0  0  0  0  0  0  0  0  # atno 8445 bound_to 8397
  208.1660   38.7289   10.4799 H   0  0  0  0  0  0  0  0  0  0  0  0  # atno 8511 bound_to 8487
  207.8180   37.0583    8.5462 H   0  0  0  0  0  0  0  0  0  0  0  0  # atno 8553 bound_to 8531
  211.7925   40.3795    5.5116 H   0  0  0  0  0  0  0  0  0  0  0  0  # atno 9080 bound_to 9050
  216.7945   34.6224   11.2745 H   0  0  0  0  0  0  0  0  0  0  0  0  # atno 10323 bound_to 10307
  216.2062   40.1390    9.6572 LP  0  0  0  0  0  0  0  0  0  0  0  0  # atno 27204 bound_to 8303
  212.8758   41.2074    9.7266 LP  0  0  0  0  0  0  0  0  0  0  0  0  # atno 27205 bound_to 8306
  213.2672   40.1148    8.4409 LP  0  0  0  0  0  0  0  0  0  0  0  0  # atno 27206 bound_to 8306
  213.3772   39.2195   10.5572 LP  0  0  0  0  0  0  0  0  0  0  0  0  # atno 27211 bound_to 8345
  210.8387   38.0762    9.8769 LP  0  0  0  0  0  0  0  0  0  0  0  0  # atno 27212 bound_to 8397
  209.2630   39.0509    9.1582 LP  0  0  0  0  0  0  0  0  0  0  0  0  # atno 27213 bound_to 8487
  212.1777   40.0330    7.0537 LP  0  0  0  0  0  0  0  0  0  0  0  0  # atno 27218 bound_to 9050
  210.8122   39.4273    6.3941 LP  0  0  0  0  0  0  0  0  0  0  0  0  # atno 27219 bound_to 9050
  210.7337   36.0613    8.5885 LP  0  0  0  0  0  0  0  0  0  0  0  0  # atno 27220 bound_to 8348
  209.5901   36.2981    9.8676 LP  0  0  0  0  0  0  0  0  0  0  0  0  # atno 27221 bound_to 8348
  206.2503   38.5641   10.8958 LP  0  0  0  0  0  0  0  0  0  0  0  0  # atno 27222 bound_to 8400
  206.9585   37.1609   11.6234 LP  0  0  0  0  0  0  0  0  0  0  0  0  # atno 27223 bound_to 8400
  218.7554   41.8997   11.9202 LP  0  0  0  0  0  0  0  0  0  0  0  0  # atno 27224 bound_to 8160
  219.7796   42.0444   10.5310 LP  0  0  0  0  0  0  0  0  0  0  0  0  # atno 27225 bound_to 8160
  215.8938   37.8287   11.3745 LP  0  0  0  0  0  0  0  0  0  0  0  0  # atno 27226 bound_to 8232
  217.2255   37.2615   10.4232 LP  0  0  0  0  0  0  0  0  0  0  0  0  # atno 27227 bound_to 8232
  219.2136   38.6325   11.4282 LP  0  0  0  0  0  0  0  0  0  0  0  0  # atno 27228 bound_to 8229
  207.8189   38.2222    7.2350 LP  0  0  0  0  0  0  0  0  0  0  0  0  # atno 27229 bound_to 8531
  212.2243   36.0978   11.7146 LP  0  0  0  0  0  0  0  0  0  0  0  0  # atno 27230 bound_to 10310
  213.7810   36.8510   11.8128 LP  0  0  0  0  0  0  0  0  0  0  0  0  # atno 27231 bound_to 10310

> <Gold.Score>
     Fitness  S(hb_ext) S(vdw_ext)  S(hb_int)    S(int)      intcor
     23.22       0.10      16.93       0.00      -0.16      -0.77

> <Gold.Goldscore.Fitness>
23.2186

> <Gold.Goldscore.Internal.Vdw>
-0.3827

> <Gold.Goldscore.Internal.Torsion>
-0.5477

> <Gold.Goldscore.External.Vdw>
16.9287

> <Gold.Goldscore.Internal.HBond>
0.0000

> <Gold.Goldscore.External.HBond>
0.1027

> <Gold.Goldscore.Internal.Correction>
-0.7693

> <Gold.Goldscore.Hbonds>
donor molecule, donor type, donor heavy atom, donor atom, acceptor molecule, acceptor atom, score
      P1  H  9050  9080       L1    17  0.05

> <Gold.Goldscore.Internal.Vdw.Weighted>
-0.3827

> <Gold.Goldscore.Internal.Torsion.Weighted>
-0.5477

> <Gold.Goldscore.External.Vdw.Weighted>
23.2770

> <Gold.Goldscore.Internal.HBond.Weighted>
0.0000

> <Gold.Goldscore.External.HBond.Weighted>
0.1027

> <Gold.Goldscore.Internal.Correction.Weighted>
-0.7693

> <Gold.Rescore>
     Score     S(PLP)   S(hbond)     S(cho)   S(metal)  DE(clash)   DE(tors)     intcor
     23.31     -23.15       0.34       0.00       0.00       0.00       0.43       ----

> <Gold.PLP.Fitness>
23.3096

> <Gold.PLP.PLP>
-23.1498

> <Gold.PLP.part.hbond>
-3.0000

> <Gold.PLP.part.metal>
0.0000

> <Gold.PLP.part.buried>
-2.4192

> <Gold.PLP.part.nonpolar>
-18.1866

> <Gold.PLP.part.repulsive>
0.4165

> <Gold.PLP.ligand.clash>
0.0000

> <Gold.PLP.ligand.torsion>
0.4349

> <Gold.PLP.Chemscore.Hbond>
0.3432

> <Gold.PLP.Chemscore.CHOScore>
0.0000

> <Gold.PLP.Chemscore.Metal>
0.0000

> <Gold.Chemscore.Hbonds>
donor molecule, donor type, donor heavy atom, donor atom, acceptor molecule, acceptor atom, score
      P1  H  9050  9080       L1    17  0.82

> <Gold.PLP.Chemscore.Internal.Correction>
   9.000000E+99

