#       Name:                CT1002167954
#       Creating user name   hitesit
#       Creation time:       Sun Apr 16 20:29:13 2023


#       File generated by GOLD software.
#

@<TRIPOS>MOLECULE
CT1002167954|ligand_prepared|mol2|1|dock7
    29    30     1
SMALL
NO_CHARGES


@<TRIPOS>ATOM
      1 C1         207.9515  43.0058  12.7066 C.3            1 RES1               0.0000
      2 C2         209.1765  42.8552  11.7818 C.ar           1 RES1               0.0000
      3 C3         206.9627  41.9217  12.2879 C.2            1 RES1               0.0000
      4 C4         208.4720  42.8563  14.1319 C.2            1 RES1               0.0000
      5 C5         207.2502  44.3796  12.5959 C.3            1 RES1               0.0000
      6 C6         210.0824  43.9007  11.6297 C.ar           1 RES1               0.0000
      7 C7         209.4152  41.6780  11.0776 C.ar           1 RES1               0.0000
      8 N8         206.8204  40.8441  13.1116 N.am           1 RES1               0.0000
      9 O9         206.3465  41.9923  11.2317 O.2            1 RES1               0.0000
     10 N10        208.0569  41.7697  14.8563 N.am           1 RES1               0.0000
     11 O11        209.2509  43.6607  14.6284 O.2            1 RES1               0.0000
     12 C12        205.8825  44.4251  13.2588 C.3            1 RES1               0.0000
     13 C13        211.1883  43.7730  10.8057 C.ar           1 RES1               0.0000
     14 C14        210.5217  41.5525  10.2539 C.ar           1 RES1               0.0000
     15 C15        207.2790  40.7406  14.4003 C.2            1 RES1               0.0000
     16 C16        211.4090  42.5989  10.1177 C.ar           1 RES1               0.0000
     17 O17        206.9928  39.7700  15.0954 O.2            1 RES1               0.0000
     18 H18        207.8912  45.1415  13.0563 H              1 RES1               0.0000
     19 H19        207.1367  44.6336  11.5347 H              1 RES1               0.0000
     20 H20        209.9239  44.8331  12.1612 H              1 RES1               0.0000
     21 H21        208.7299  40.8421  11.1686 H              1 RES1               0.0000
     22 H22        206.3275  40.0409  12.7345 H              1 RES1               0.0000
     23 H23        208.3554  41.7238  15.8254 H              1 RES1               0.0000
     24 H24        205.4346  45.4108  13.1519 H              1 RES1               0.0000
     25 H25        205.2110  43.6971  12.8083 H              1 RES1               0.0000
     26 H26        205.9611  44.2019  14.3209 H              1 RES1               0.0000
     27 H27        211.8829  44.5999  10.7009 H              1 RES1               0.0000
     28 H28        210.6910  40.6269   9.7139 H              1 RES1               0.0000
     29 H29        212.2756  42.4990   9.4726 H              1 RES1               0.0000
@<TRIPOS>BOND
    1    1    2 1     
    2    1    3 1     
    3    1    4 1     
    4    1    5 1     
    5    2    6 ar    
    6    2    7 ar    
    7    3    8 1     
    8    3    9 2     
    9    4   10 1     
   10    4   11 2     
   11    5   12 1     
   12    5   18 1     
   13    5   19 1     
   14    6   13 ar    
   15    6   20 1     
   16    7   14 ar    
   17    7   21 1     
   18    8   15 1     
   19    8   22 1     
   20   10   15 1     
   21   10   23 1     
   22   12   24 1     
   23   12   25 1     
   24   12   26 1     
   25   13   16 ar    
   26   13   27 1     
   27   14   16 ar    
   28   14   28 1     
   29   15   17 2     
   30   16   29 1     
@<TRIPOS>SUBSTRUCTURE
      1 RES1           1
@<TRIPOS>SET
DONOR_HYDROGENS      STATIC     ATOMS    <user>   **** ""
2 22 23
ATOM$RED        STATIC     ATOMS    COLORGROUP SYSTEM
2 22 23
@<TRIPOS>COMMENT
> <Gold.Version>
2022.3.0

> <Gold.Id.Protein>
unknown|4v3u_clean|pdb

> <Gold.Protein.RotatedTorsions>
[ 8327 8303 8304 8305 ] final -114.94 input  100.38 | X-H torsion
[ 8365 8345 8346 8347 ] final  151.61 input   76.03 | X-H torsion
[ 8445 8397 8398 8399 ] final    9.19 input  108.00 | X-H torsion
[ 8511 8487 8488 8489 ] final  -21.86 input   86.22 | X-H torsion
[ 9080 9050 9049 9047 ] final   -6.07 input   59.99 | X-H torsion
[ 8251 8229 8230 8231 ] final  158.60 input   84.12 | X-H torsion
[ 8553 8531 8532 8533 ] final  155.33 input  114.02 | X-H torsion
[ 10323 10307 10308 10309 ] final   65.41 input   62.28 | X-H torsion
[ 27205 8306 8305 8304 ] final  151.87 input   -0.00 | X-H torsion
[ 27220 8348 8347 8346 ] final  -79.35 input    0.00 | X-H torsion
[ 27222 8400 8399 8398 ] final  148.81 input    0.00 | X-H torsion
[ 27224 8160 8159 8158 ] final -143.22 input    0.00 | X-H torsion
[ 27226 8232 8231 8230 ] final -171.55 input    0.00 | X-H torsion
[ 27230 10310 10309 10308 ] final   90.30 input   -0.00 | X-H torsion

> <Gold.Protein.ActiveResidues>
 ASP403  LEU406  ILE407  GLN430  VAL431  PHE432  ASP433  ALA434  ARG435  ASP436 
 CYS437  TYR446  ASN449  THR465  ILE466 

> <Gold.Protein.RotatedAtoms>
  220.2555   39.1878   10.3722 H   0  0  0  0  0  0  0  0  0  0  0  0  # atno 8251 bound_to 8229
  216.8525   39.5922   10.9653 H   0  0  0  0  0  0  0  0  0  0  0  0  # atno 8327 bound_to 8303
  214.4591   38.0966   10.1523 H   0  0  0  0  0  0  0  0  0  0  0  0  # atno 8365 bound_to 8345
  210.7698   38.7425    9.9764 H   0  0  0  0  0  0  0  0  0  0  0  0  # atno 8445 bound_to 8397
  208.6380   38.0413    9.5837 H   0  0  0  0  0  0  0  0  0  0  0  0  # atno 8511 bound_to 8487
  208.7078   37.6660    7.7729 H   0  0  0  0  0  0  0  0  0  0  0  0  # atno 8553 bound_to 8531
  212.3794   40.2970    6.6888 H   0  0  0  0  0  0  0  0  0  0  0  0  # atno 9080 bound_to 9050
  216.1023   36.2448   11.2884 H   0  0  0  0  0  0  0  0  0  0  0  0  # atno 10323 bound_to 10307
  216.2560   40.8740    9.9305 LP  0  0  0  0  0  0  0  0  0  0  0  0  # atno 27204 bound_to 8303
  212.9718   40.0099    8.5216 LP  0  0  0  0  0  0  0  0  0  0  0  0  # atno 27205 bound_to 8306
  213.1712   41.3123    9.6459 LP  0  0  0  0  0  0  0  0  0  0  0  0  # atno 27206 bound_to 8306
  213.1295   38.8156   11.0239 LP  0  0  0  0  0  0  0  0  0  0  0  0  # atno 27211 bound_to 8345
  211.5672   37.9086   11.2862 LP  0  0  0  0  0  0  0  0  0  0  0  0  # atno 27212 bound_to 8397
  208.8023   39.7220   10.0329 LP  0  0  0  0  0  0  0  0  0  0  0  0  # atno 27213 bound_to 8487
  211.0327   39.3962    6.8364 LP  0  0  0  0  0  0  0  0  0  0  0  0  # atno 27218 bound_to 9050
  211.3658   40.1472    5.4251 LP  0  0  0  0  0  0  0  0  0  0  0  0  # atno 27219 bound_to 9050
  209.9347   36.6877    8.5644 LP  0  0  0  0  0  0  0  0  0  0  0  0  # atno 27220 bound_to 8348
  210.3891   35.6718    9.8917 LP  0  0  0  0  0  0  0  0  0  0  0  0  # atno 27221 bound_to 8348
  206.2485   38.5578   10.8856 LP  0  0  0  0  0  0  0  0  0  0  0  0  # atno 27222 bound_to 8400
  206.9604   37.1672   11.6336 LP  0  0  0  0  0  0  0  0  0  0  0  0  # atno 27223 bound_to 8400
  218.4594   41.7013   11.0718 LP  0  0  0  0  0  0  0  0  0  0  0  0  # atno 27224 bound_to 8160
  220.0756   42.2428   11.3794 LP  0  0  0  0  0  0  0  0  0  0  0  0  # atno 27225 bound_to 8160
  215.7453   37.7759   11.0822 LP  0  0  0  0  0  0  0  0  0  0  0  0  # atno 27226 bound_to 8232
  217.3740   37.3143   10.7155 LP  0  0  0  0  0  0  0  0  0  0  0  0  # atno 27227 bound_to 8232
  219.1140   39.3055   11.6891 LP  0  0  0  0  0  0  0  0  0  0  0  0  # atno 27228 bound_to 8229
  206.9665   37.6401    7.9758 LP  0  0  0  0  0  0  0  0  0  0  0  0  # atno 27229 bound_to 8531
  213.2813   36.4086   10.9464 LP  0  0  0  0  0  0  0  0  0  0  0  0  # atno 27230 bound_to 10310
  212.7240   36.5402   12.5810 LP  0  0  0  0  0  0  0  0  0  0  0  0  # atno 27231 bound_to 10310

> <Gold.Score>
     Fitness  S(hb_ext) S(vdw_ext)  S(hb_int)    S(int)      intcor
     29.59       0.00      22.36       0.00      -1.16      -0.77

> <Gold.Goldscore.Fitness>
29.5892

> <Gold.Goldscore.Internal.Vdw>
-1.2939

> <Gold.Goldscore.Internal.Torsion>
-0.6332

> <Gold.Goldscore.External.Vdw>
22.3615

> <Gold.Goldscore.Internal.HBond>
0.0000

> <Gold.Goldscore.External.HBond>
0.0000

> <Gold.Goldscore.Internal.Correction>
-0.7693

> <Gold.Goldscore.Internal.Vdw.Weighted>
-1.2939

> <Gold.Goldscore.Internal.Torsion.Weighted>
-0.6332

> <Gold.Goldscore.External.Vdw.Weighted>
30.7470

> <Gold.Goldscore.Internal.HBond.Weighted>
0.0000

> <Gold.Goldscore.External.HBond.Weighted>
0.0000

> <Gold.Goldscore.Internal.Correction.Weighted>
-0.7693

> <Gold.Rescore>
     Score     S(PLP)   S(hbond)     S(cho)   S(metal)  DE(clash)   DE(tors)     intcor
     18.45     -20.07       0.00       0.00       0.00       0.00       0.81       ----

> <Gold.PLP.Fitness>
18.4528

> <Gold.PLP.PLP>
-20.0739

> <Gold.PLP.part.hbond>
-1.0080

> <Gold.PLP.part.metal>
0.0000

> <Gold.PLP.part.buried>
-3.9381

> <Gold.PLP.part.nonpolar>
-18.0262

> <Gold.PLP.part.repulsive>
3.2426

> <Gold.PLP.ligand.clash>
0.0000

> <Gold.PLP.ligand.torsion>
0.8106

> <Gold.PLP.Chemscore.Hbond>
0.0000

> <Gold.PLP.Chemscore.CHOScore>
0.0000

> <Gold.PLP.Chemscore.Metal>
0.0000

> <Gold.PLP.Chemscore.Internal.Correction>
   9.000000E+99

