#       Name:                CT1002167954
#       Creating user name   hitesit
#       Creation time:       Sun Apr 16 20:29:13 2023


#       File generated by GOLD software.
#

@<TRIPOS>MOLECULE
CT1002167954|ligand_prepared|mol2|1|dock5
    29    30     1
SMALL
NO_CHARGES


@<TRIPOS>ATOM
      1 C1         207.0982  42.0307  13.5746 C.3            1 RES1               0.0000
      2 C2         208.3518  42.2251  12.6973 C.ar           1 RES1               0.0000
      3 C3         205.9676  41.6425  12.6262 C.2            1 RES1               0.0000
      4 C4         207.4533  40.9532  14.5933 C.2            1 RES1               0.0000
      5 C5         206.6750  43.3002  14.3497 C.3            1 RES1               0.0000
      6 C6         209.1975  43.3114  12.9007 C.ar           1 RES1               0.0000
      7 C7         208.6764  41.3266  11.6844 C.ar           1 RES1               0.0000
      8 N8         205.5563  40.3422  12.6323 N.am           1 RES1               0.0000
      9 O9         205.4715  42.4559  11.8566 O.2            1 RES1               0.0000
     10 N10        206.7821  39.7604  14.5267 N.am           1 RES1               0.0000
     11 O11        208.3199  41.1205  15.4426 O.2            1 RES1               0.0000
     12 C12        205.3155  43.1841  15.0208 C.3            1 RES1               0.0000
     13 C13        210.3284  43.4915  12.1218 C.ar           1 RES1               0.0000
     14 C14        209.8078  41.5088  10.9064 C.ar           1 RES1               0.0000
     15 C15        205.8714  39.3950  13.5731 C.2            1 RES1               0.0000
     16 C16        210.6346  42.5903  11.1245 C.ar           1 RES1               0.0000
     17 O17        205.3504  38.2836  13.5481 O.2            1 RES1               0.0000
     18 H18        207.4301  43.5140  15.1162 H              1 RES1               0.0000
     19 H19        206.6541  44.1481  13.6540 H              1 RES1               0.0000
     20 H20        208.9714  44.0324  13.6793 H              1 RES1               0.0000
     21 H21        208.0400  40.4692  11.4942 H              1 RES1               0.0000
     22 H22        204.9592  40.0468  11.8664 H              1 RES1               0.0000
     23 H23        206.9796  39.0821  15.2555 H              1 RES1               0.0000
     24 H24        205.0672  44.1015  15.5504 H              1 RES1               0.0000
     25 H25        204.5367  42.9965  14.2846 H              1 RES1               0.0000
     26 H26        205.3080  42.3661  15.7381 H              1 RES1               0.0000
     27 H27        210.9751  44.3450  12.2965 H              1 RES1               0.0000
     28 H28        210.0446  40.7973  10.1222 H              1 RES1               0.0000
     29 H29        211.5208  42.7314  10.5146 H              1 RES1               0.0000
@<TRIPOS>BOND
    1    1    2 1     
    2    1    3 1     
    3    1    4 1     
    4    1    5 1     
    5    2    6 ar    
    6    2    7 ar    
    7    3    8 1     
    8    3    9 2     
    9    4   10 1     
   10    4   11 2     
   11    5   12 1     
   12    5   18 1     
   13    5   19 1     
   14    6   13 ar    
   15    6   20 1     
   16    7   14 ar    
   17    7   21 1     
   18    8   15 1     
   19    8   22 1     
   20   10   15 1     
   21   10   23 1     
   22   12   24 1     
   23   12   25 1     
   24   12   26 1     
   25   13   16 ar    
   26   13   27 1     
   27   14   16 ar    
   28   14   28 1     
   29   15   17 2     
   30   16   29 1     
@<TRIPOS>SUBSTRUCTURE
      1 RES1           1
@<TRIPOS>SET
DONOR_HYDROGENS      STATIC     ATOMS    <user>   **** ""
2 22 23
ATOM$RED        STATIC     ATOMS    COLORGROUP SYSTEM
2 22 23
@<TRIPOS>COMMENT
> <Gold.Version>
2022.3.0

> <Gold.Id.Protein>
unknown|4v3u_clean|pdb

> <Gold.Protein.RotatedTorsions>
[ 8327 8303 8304 8305 ] final  103.27 input  100.38 | X-H torsion
[ 8365 8345 8346 8347 ] final  -74.64 input   76.03 | X-H torsion
[ 8445 8397 8398 8399 ] final   99.85 input  108.00 | X-H torsion
[ 8511 8487 8488 8489 ] final  -42.12 input   86.22 | X-H torsion
[ 9080 9050 9049 9047 ] final  -12.64 input   59.99 | X-H torsion
[ 8251 8229 8230 8231 ] final -150.07 input   84.12 | X-H torsion
[ 8553 8531 8532 8533 ] final  -42.00 input  114.02 | X-H torsion
[ 10323 10307 10308 10309 ] final   38.58 input   62.28 | X-H torsion
[ 27205 8306 8305 8304 ] final -178.47 input   -0.00 | X-H torsion
[ 27220 8348 8347 8346 ] final  118.81 input    0.00 | X-H torsion
[ 27222 8400 8399 8398 ] final  -68.73 input    0.00 | X-H torsion
[ 27224 8160 8159 8158 ] final   60.93 input    0.00 | X-H torsion
[ 27226 8232 8231 8230 ] final  177.75 input    0.00 | X-H torsion
[ 27230 10310 10309 10308 ] final   99.34 input   -0.00 | X-H torsion

> <Gold.Protein.ActiveResidues>
 ASP403  LEU406  ILE407  GLN430  VAL431  PHE432  ASP433  ALA434  ARG435  ASP436 
 CYS437  TYR446  ASN449  THR465  ILE466 

> <Gold.Protein.RotatedAtoms>
  220.1447   39.8903   10.6524 H   0  0  0  0  0  0  0  0  0  0  0  0  # atno 8251 bound_to 8229
  216.4257   41.1297   10.4166 H   0  0  0  0  0  0  0  0  0  0  0  0  # atno 8327 bound_to 8303
  213.3842   39.2381   10.5480 H   0  0  0  0  0  0  0  0  0  0  0  0  # atno 8365 bound_to 8345
  211.2547   39.0774   11.0808 H   0  0  0  0  0  0  0  0  0  0  0  0  # atno 8445 bound_to 8397
  208.4527   38.0495    9.8335 H   0  0  0  0  0  0  0  0  0  0  0  0  # atno 8511 bound_to 8487
  206.9419   37.7854    7.7505 H   0  0  0  0  0  0  0  0  0  0  0  0  # atno 8553 bound_to 8531
  212.3524   40.2454    6.7789 H   0  0  0  0  0  0  0  0  0  0  0  0  # atno 9080 bound_to 9050
  215.8747   36.0610   11.0018 H   0  0  0  0  0  0  0  0  0  0  0  0  # atno 10323 bound_to 10307
  216.6666   39.3949   10.4583 LP  0  0  0  0  0  0  0  0  0  0  0  0  # atno 27204 bound_to 8303
  212.5962   40.0151    8.7569 LP  0  0  0  0  0  0  0  0  0  0  0  0  # atno 27205 bound_to 8306
  213.5467   41.3071    9.4106 LP  0  0  0  0  0  0  0  0  0  0  0  0  # atno 27206 bound_to 8306
  214.1878   37.6917   10.6343 LP  0  0  0  0  0  0  0  0  0  0  0  0  # atno 27211 bound_to 8345
  211.0904   37.5793   10.2002 LP  0  0  0  0  0  0  0  0  0  0  0  0  # atno 27212 bound_to 8397
  208.9831   39.7140    9.7891 LP  0  0  0  0  0  0  0  0  0  0  0  0  # atno 27213 bound_to 8487
  210.9691   39.3897    6.7492 LP  0  0  0  0  0  0  0  0  0  0  0  0  # atno 27218 bound_to 9050
  211.4566   40.2058    5.4215 LP  0  0  0  0  0  0  0  0  0  0  0  0  # atno 27219 bound_to 9050
  210.1668   35.7880   10.0004 LP  0  0  0  0  0  0  0  0  0  0  0  0  # atno 27220 bound_to 8348
  210.1569   36.5714    8.4557 LP  0  0  0  0  0  0  0  0  0  0  0  0  # atno 27221 bound_to 8348
  206.8074   37.0332   11.1146 LP  0  0  0  0  0  0  0  0  0  0  0  0  # atno 27222 bound_to 8400
  206.4015   38.6919   11.4045 LP  0  0  0  0  0  0  0  0  0  0  0  0  # atno 27223 bound_to 8400
  220.0777   42.1983   11.0197 LP  0  0  0  0  0  0  0  0  0  0  0  0  # atno 27224 bound_to 8160
  218.4573   41.7457   11.4315 LP  0  0  0  0  0  0  0  0  0  0  0  0  # atno 27225 bound_to 8160
  215.8032   37.8063   11.2298 LP  0  0  0  0  0  0  0  0  0  0  0  0  # atno 27226 bound_to 8232
  217.3161   37.2840   10.5679 LP  0  0  0  0  0  0  0  0  0  0  0  0  # atno 27227 bound_to 8232
  219.2226   38.6175   11.4147 LP  0  0  0  0  0  0  0  0  0  0  0  0  # atno 27228 bound_to 8229
  208.6581   37.5257    7.9973 LP  0  0  0  0  0  0  0  0  0  0  0  0  # atno 27229 bound_to 8531
  213.1619   36.3468   10.9220 LP  0  0  0  0  0  0  0  0  0  0  0  0  # atno 27230 bound_to 10310
  212.8434   36.6020   12.6053 LP  0  0  0  0  0  0  0  0  0  0  0  0  # atno 27231 bound_to 10310

> <Gold.Score>
     Fitness  S(hb_ext) S(vdw_ext)  S(hb_int)    S(int)      intcor
     30.49       0.00      22.63       0.00      -0.63      -0.77

> <Gold.Goldscore.Fitness>
30.4862

> <Gold.Goldscore.Internal.Vdw>
-0.8706

> <Gold.Goldscore.Internal.Torsion>
-0.5296

> <Gold.Goldscore.External.Vdw>
22.6306

> <Gold.Goldscore.Internal.HBond>
0.0000

> <Gold.Goldscore.External.HBond>
0.0000

> <Gold.Goldscore.Internal.Correction>
-0.7693

> <Gold.Goldscore.Internal.Vdw.Weighted>
-0.8706

> <Gold.Goldscore.Internal.Torsion.Weighted>
-0.5296

> <Gold.Goldscore.External.Vdw.Weighted>
31.1171

> <Gold.Goldscore.Internal.HBond.Weighted>
0.0000

> <Gold.Goldscore.External.HBond.Weighted>
0.0000

> <Gold.Goldscore.Internal.Correction.Weighted>
-0.7693

> <Gold.Rescore>
     Score     S(PLP)   S(hbond)     S(cho)   S(metal)  DE(clash)   DE(tors)     intcor
     27.53     -26.51       0.36       0.00       0.00       0.00       0.03       ----

> <Gold.PLP.Fitness>
27.5280

> <Gold.PLP.PLP>
-26.5050

> <Gold.PLP.part.hbond>
-1.8300

> <Gold.PLP.part.metal>
0.0000

> <Gold.PLP.part.buried>
-5.7906

> <Gold.PLP.part.nonpolar>
-19.8373

> <Gold.PLP.part.repulsive>
0.6462

> <Gold.PLP.ligand.clash>
0.0000

> <Gold.PLP.ligand.torsion>
0.0255

> <Gold.PLP.Chemscore.Hbond>
0.3580

> <Gold.PLP.Chemscore.CHOScore>
0.0000

> <Gold.PLP.Chemscore.Metal>
0.0000

> <Gold.PLP.Chemscore.Internal.Correction>
   9.000000E+99

