#       Name:                CT1002167954
#       Creating user name   hitesit
#       Creation time:       Sun Apr 16 20:29:11 2023


#       File generated by GOLD software.
#

@<TRIPOS>MOLECULE
CT1002167954|ligand_prepared|mol2|1|dock1
    29    30     1
SMALL
NO_CHARGES


@<TRIPOS>ATOM
      1 C1         212.6486  43.7341   8.7415 C.3            1 RES1               0.0000
      2 C2         211.6833  43.2073   9.8230 C.ar           1 RES1               0.0000
      3 C3         214.0441  43.6959   9.3574 C.2            1 RES1               0.0000
      4 C4         212.4762  42.8196   7.5338 C.2            1 RES1               0.0000
      5 C5         212.3504  45.1829   8.2901 C.3            1 RES1               0.0000
      6 C6         211.0746  41.9635   9.6844 C.ar           1 RES1               0.0000
      7 C7         211.3944  43.9511  10.9640 C.ar           1 RES1               0.0000
      8 N8         214.8973  42.7220   8.9290 N.am           1 RES1               0.0000
      9 O9         214.3775  44.4836  10.2341 O.2            1 RES1               0.0000
     10 N10        213.5391  42.0381   7.1633 N.am           1 RES1               0.0000
     11 O11        211.4242  42.7565   6.9097 O.2            1 RES1               0.0000
     12 C12        213.2220  45.6578   7.1381 C.3            1 RES1               0.0000
     13 C13        210.2107  41.4795  10.6527 C.ar           1 RES1               0.0000
     14 C14        210.5300  43.4653  11.9310 C.ar           1 RES1               0.0000
     15 C15        214.7316  41.9252   7.8248 C.2            1 RES1               0.0000
     16 C16        209.9381  42.2297  11.7767 C.ar           1 RES1               0.0000
     17 O17        215.6194  41.1594   7.4607 O.2            1 RES1               0.0000
     18 H18        211.2981  45.2489   7.9873 H              1 RES1               0.0000
     19 H19        212.4964  45.8559   9.1440 H              1 RES1               0.0000
     20 H20        211.2751  41.3600   8.8054 H              1 RES1               0.0000
     21 H21        211.8477  44.9263  11.1060 H              1 RES1               0.0000
     22 H22        215.7360  42.5723   9.4807 H              1 RES1               0.0000
     23 H23        213.4315  41.4898   6.3159 H              1 RES1               0.0000
     24 H24        212.9718  46.6797   6.8611 H              1 RES1               0.0000
     25 H25        214.2742  45.6292   7.4133 H              1 RES1               0.0000
     26 H26        213.0831  45.0258   6.2634 H              1 RES1               0.0000
     27 H27        209.7464  40.5071  10.5259 H              1 RES1               0.0000
     28 H28        210.3178  44.0595  12.8138 H              1 RES1               0.0000
     29 H29        209.2616  41.8502  12.5353 H              1 RES1               0.0000
@<TRIPOS>BOND
    1    1    2 1     
    2    1    3 1     
    3    1    4 1     
    4    1    5 1     
    5    2    6 ar    
    6    2    7 ar    
    7    3    8 1     
    8    3    9 2     
    9    4   10 1     
   10    4   11 2     
   11    5   12 1     
   12    5   18 1     
   13    5   19 1     
   14    6   13 ar    
   15    6   20 1     
   16    7   14 ar    
   17    7   21 1     
   18    8   15 1     
   19    8   22 1     
   20   10   15 1     
   21   10   23 1     
   22   12   24 1     
   23   12   25 1     
   24   12   26 1     
   25   13   16 ar    
   26   13   27 1     
   27   14   16 ar    
   28   14   28 1     
   29   15   17 2     
   30   16   29 1     
@<TRIPOS>SUBSTRUCTURE
      1 RES1           1
@<TRIPOS>SET
DONOR_HYDROGENS      STATIC     ATOMS    <user>   **** ""
2 22 23
ATOM$RED        STATIC     ATOMS    COLORGROUP SYSTEM
2 22 23
@<TRIPOS>COMMENT
> <Gold.Version>
2022.3.0

> <Gold.Id.Protein>
unknown|4v3u_clean|pdb

> <Gold.Protein.RotatedTorsions>
[ 8327 8303 8304 8305 ] final   41.80 input  100.38 | X-H torsion
[ 8365 8345 8346 8347 ] final  -72.45 input   76.03 | X-H torsion
[ 8445 8397 8398 8399 ] final  137.55 input  108.00 | X-H torsion
[ 8511 8487 8488 8489 ] final  -97.41 input   86.22 | X-H torsion
[ 9080 9050 9049 9047 ] final -113.66 input   59.99 | X-H torsion
[ 8251 8229 8230 8231 ] final  -18.73 input   84.12 | X-H torsion
[ 8553 8531 8532 8533 ] final -141.16 input  114.02 | X-H torsion
[ 10323 10307 10308 10309 ] final -132.75 input   62.28 | X-H torsion
[ 27205 8306 8305 8304 ] final -127.19 input   -0.00 | X-H torsion
[ 27220 8348 8347 8346 ] final  158.13 input    0.00 | X-H torsion
[ 27222 8400 8399 8398 ] final  -51.17 input    0.00 | X-H torsion
[ 27224 8160 8159 8158 ] final   36.13 input    0.00 | X-H torsion
[ 27226 8232 8231 8230 ] final  111.65 input    0.00 | X-H torsion
[ 27230 10310 10309 10308 ] final  -13.16 input   -0.00 | X-H torsion

> <Gold.Protein.ActiveResidues>
 ASP403  LEU406  ILE407  GLN430  VAL431  PHE432  ASP433  ALA434  ARG435  ASP436 
 CYS437  TYR446  ASN449  THR465  ILE466 

> <Gold.Protein.RotatedAtoms>
  219.0949   39.2664   11.6990 H   0  0  0  0  0  0  0  0  0  0  0  0  # atno 8251 bound_to 8229
  216.1534   40.6043    9.7220 H   0  0  0  0  0  0  0  0  0  0  0  0  # atno 8327 bound_to 8303
  213.3640   39.2282   10.5731 H   0  0  0  0  0  0  0  0  0  0  0  0  # atno 8365 bound_to 8345
  211.4843   38.6575   11.3880 H   0  0  0  0  0  0  0  0  0  0  0  0  # atno 8445 bound_to 8397
  208.1663   38.5559   10.4122 H   0  0  0  0  0  0  0  0  0  0  0  0  # atno 8511 bound_to 8487
  208.1365   38.1703    7.2186 H   0  0  0  0  0  0  0  0  0  0  0  0  # atno 8553 bound_to 8531
  211.1765   39.4303    6.9758 H   0  0  0  0  0  0  0  0  0  0  0  0  # atno 9080 bound_to 9050
  216.9225   34.7138   11.4309 H   0  0  0  0  0  0  0  0  0  0  0  0  # atno 10323 bound_to 10307
  216.9286   39.9003   11.1266 LP  0  0  0  0  0  0  0  0  0  0  0  0  # atno 27204 bound_to 8303
  212.2801   40.3987    9.3179 LP  0  0  0  0  0  0  0  0  0  0  0  0  # atno 27205 bound_to 8306
  213.8629   40.9235    8.8496 LP  0  0  0  0  0  0  0  0  0  0  0  0  # atno 27206 bound_to 8306
  214.2077   37.7014   10.6096 LP  0  0  0  0  0  0  0  0  0  0  0  0  # atno 27211 bound_to 8345
  210.8647   37.9922    9.8980 LP  0  0  0  0  0  0  0  0  0  0  0  0  # atno 27212 bound_to 8397
  209.2627   39.2197    9.2243 LP  0  0  0  0  0  0  0  0  0  0  0  0  # atno 27213 bound_to 8487
  211.2035   40.0303    5.4638 LP  0  0  0  0  0  0  0  0  0  0  0  0  # atno 27218 bound_to 9050
  212.4070   40.3865    6.5085 LP  0  0  0  0  0  0  0  0  0  0  0  0  # atno 27219 bound_to 9050
  209.7134   36.1526    9.9684 LP  0  0  0  0  0  0  0  0  0  0  0  0  # atno 27220 bound_to 8348
  210.6103   36.2068    8.4877 LP  0  0  0  0  0  0  0  0  0  0  0  0  # atno 27221 bound_to 8348
  206.8945   37.0532   11.3635 LP  0  0  0  0  0  0  0  0  0  0  0  0  # atno 27222 bound_to 8400
  206.3144   38.6719   11.1557 LP  0  0  0  0  0  0  0  0  0  0  0  0  # atno 27223 bound_to 8400
  220.0736   42.2433   11.3889 LP  0  0  0  0  0  0  0  0  0  0  0  0  # atno 27224 bound_to 8160
  218.4614   41.7008   11.0623 LP  0  0  0  0  0  0  0  0  0  0  0  0  # atno 27225 bound_to 8160
  216.6030   37.7783   11.7318 LP  0  0  0  0  0  0  0  0  0  0  0  0  # atno 27226 bound_to 8232
  216.5163   37.3119   10.0659 LP  0  0  0  0  0  0  0  0  0  0  0  0  # atno 27227 bound_to 8232
  220.2506   39.2285   10.3898 LP  0  0  0  0  0  0  0  0  0  0  0  0  # atno 27228 bound_to 8229
  207.5138   37.1570    8.5068 LP  0  0  0  0  0  0  0  0  0  0  0  0  # atno 27229 bound_to 8531
  213.6547   36.8770   12.1671 LP  0  0  0  0  0  0  0  0  0  0  0  0  # atno 27230 bound_to 10310
  212.3506   36.0718   11.3603 LP  0  0  0  0  0  0  0  0  0  0  0  0  # atno 27231 bound_to 10310

> <Gold.Score>
     Fitness  S(hb_ext) S(vdw_ext)  S(hb_int)    S(int)      intcor
     27.27       0.35      21.21       0.00      -2.24      -0.79

> <Gold.Goldscore.Fitness>
27.2738

> <Gold.Goldscore.Internal.Vdw>
-2.6214

> <Gold.Goldscore.Internal.Torsion>
-0.4085

> <Gold.Goldscore.External.Vdw>
21.2100

> <Gold.Goldscore.Internal.HBond>
0.0000

> <Gold.Goldscore.External.HBond>
0.3507

> <Gold.Goldscore.Internal.Correction>
-0.7893

> <Gold.Goldscore.Hbonds>
donor molecule, donor type, donor heavy atom, donor atom, acceptor molecule, acceptor atom, score
      P1  H  8303  8327       L1    17  0.18

> <Gold.Goldscore.Internal.Vdw.Weighted>
-2.6214

> <Gold.Goldscore.Internal.Torsion.Weighted>
-0.4085

> <Gold.Goldscore.External.Vdw.Weighted>
29.1637

> <Gold.Goldscore.Internal.HBond.Weighted>
0.0000

> <Gold.Goldscore.External.HBond.Weighted>
0.3507

> <Gold.Goldscore.Internal.Correction.Weighted>
-0.7893

> <Gold.Rescore>
     Score     S(PLP)   S(hbond)     S(cho)   S(metal)  DE(clash)   DE(tors)     intcor
     24.54     -23.84       1.00       0.00       0.00       1.97       0.17       ----

> <Gold.PLP.Fitness>
24.5359

> <Gold.PLP.PLP>
-23.8385

> <Gold.PLP.part.hbond>
-3.0000

> <Gold.PLP.part.metal>
0.0000

> <Gold.PLP.part.buried>
-0.2657

> <Gold.PLP.part.nonpolar>
-21.2865

> <Gold.PLP.part.repulsive>
0.4058

> <Gold.PLP.ligand.clash>
1.9652

> <Gold.PLP.ligand.torsion>
0.1687

> <Gold.PLP.Chemscore.Hbond>
1.0000

> <Gold.PLP.Chemscore.CHOScore>
0.0000

> <Gold.PLP.Chemscore.Metal>
0.0000

> <Gold.Chemscore.Hbonds>
donor molecule, donor type, donor heavy atom, donor atom, acceptor molecule, acceptor atom, score
      L1  H    10    23       P1  9050  0.04
      P1  H  8303  8327       L1    17  0.15

> <Gold.PLP.Chemscore.Internal.Correction>
   9.000000E+99

