#       Name:                CT1002167954
#       Creating user name   hitesit
#       Creation time:       Sun Apr 16 20:29:14 2023


#       File generated by GOLD software.
#

@<TRIPOS>MOLECULE
CT1002167954|ligand_prepared|mol2|1|dock9
    29    30     1
SMALL
NO_CHARGES


@<TRIPOS>ATOM
      1 C1         210.4850  43.3848  10.2441 C.3            1 RES1               0.0000
      2 C2         209.8887  43.2150  11.6563 C.ar           1 RES1               0.0000
      3 C3         209.4148  44.0805   9.4080 C.2            1 RES1               0.0000
      4 C4         211.7647  44.1955  10.4161 C.2            1 RES1               0.0000
      5 C5         210.8541  42.0494   9.5570 C.3            1 RES1               0.0000
      6 C6         210.0274  44.2194  12.6096 C.ar           1 RES1               0.0000
      7 C7         209.1962  42.0628  12.0191 C.ar           1 RES1               0.0000
      8 N8         209.6089  45.3948   9.1001 N.am           1 RES1               0.0000
      9 O9         208.3972  43.4957   9.0577 O.2            1 RES1               0.0000
     10 N10        211.8086  45.4502   9.8669 N.am           1 RES1               0.0000
     11 O11        212.7294  43.7656  11.0364 O.2            1 RES1               0.0000
     12 C12        211.7115  42.2168   8.3124 C.3            1 RES1               0.0000
     13 C13        209.4907  44.0784  13.8786 C.ar           1 RES1               0.0000
     14 C14        208.6606  41.9238  13.2889 C.ar           1 RES1               0.0000
     15 C15        210.7777  46.0985   9.2432 C.2            1 RES1               0.0000
     16 C16        208.8067  42.9309  14.2190 C.ar           1 RES1               0.0000
     17 O17        210.8771  47.2479   8.8235 O.2            1 RES1               0.0000
     18 H18        211.3935  41.4199  10.2754 H              1 RES1               0.0000
     19 H19        209.9297  41.5269   9.2812 H              1 RES1               0.0000
     20 H20        210.5646  45.1285  12.3607 H              1 RES1               0.0000
     21 H21        209.0699  41.2570  11.3040 H              1 RES1               0.0000
     22 H22        208.8112  45.9013   8.7293 H              1 RES1               0.0000
     23 H23        212.6917  45.9469   9.9287 H              1 RES1               0.0000
     24 H24        211.9416  41.2499   7.8697 H              1 RES1               0.0000
     25 H25        211.1953  42.8170   7.5661 H              1 RES1               0.0000
     26 H26        212.6503  42.7107   8.5545 H              1 RES1               0.0000
     27 H27        209.6097  44.8734  14.6074 H              1 RES1               0.0000
     28 H28        208.1235  41.0186  13.5526 H              1 RES1               0.0000
     29 H29        208.3861  42.8209  15.2131 H              1 RES1               0.0000
@<TRIPOS>BOND
    1    1    2 1     
    2    1    3 1     
    3    1    4 1     
    4    1    5 1     
    5    2    6 ar    
    6    2    7 ar    
    7    3    8 1     
    8    3    9 2     
    9    4   10 1     
   10    4   11 2     
   11    5   12 1     
   12    5   18 1     
   13    5   19 1     
   14    6   13 ar    
   15    6   20 1     
   16    7   14 ar    
   17    7   21 1     
   18    8   15 1     
   19    8   22 1     
   20   10   15 1     
   21   10   23 1     
   22   12   24 1     
   23   12   25 1     
   24   12   26 1     
   25   13   16 ar    
   26   13   27 1     
   27   14   16 ar    
   28   14   28 1     
   29   15   17 2     
   30   16   29 1     
@<TRIPOS>SUBSTRUCTURE
      1 RES1           1
@<TRIPOS>SET
DONOR_HYDROGENS      STATIC     ATOMS    <user>   **** ""
2 22 23
ATOM$RED        STATIC     ATOMS    COLORGROUP SYSTEM
2 22 23
@<TRIPOS>COMMENT
> <Gold.Version>
2022.3.0

> <Gold.Id.Protein>
unknown|4v3u_clean|pdb

> <Gold.Protein.RotatedTorsions>
[ 8327 8303 8304 8305 ] final -129.91 input  100.38 | X-H torsion
[ 8365 8345 8346 8347 ] final  -82.15 input   76.03 | X-H torsion
[ 8445 8397 8398 8399 ] final  130.16 input  108.00 | X-H torsion
[ 8511 8487 8488 8489 ] final   45.21 input   86.22 | X-H torsion
[ 9080 9050 9049 9047 ] final -150.46 input   59.99 | X-H torsion
[ 8251 8229 8230 8231 ] final  173.02 input   84.12 | X-H torsion
[ 8553 8531 8532 8533 ] final -159.92 input  114.02 | X-H torsion
[ 10323 10307 10308 10309 ] final  146.39 input   62.28 | X-H torsion
[ 27205 8306 8305 8304 ] final -150.73 input   -0.00 | X-H torsion
[ 27220 8348 8347 8346 ] final  -85.57 input    0.00 | X-H torsion
[ 27222 8400 8399 8398 ] final   86.62 input    0.00 | X-H torsion
[ 27224 8160 8159 8158 ] final -106.71 input    0.00 | X-H torsion
[ 27226 8232 8231 8230 ] final -122.90 input    0.00 | X-H torsion
[ 27230 10310 10309 10308 ] final -106.50 input   -0.00 | X-H torsion

> <Gold.Protein.ActiveResidues>
 ASP403  LEU406  ILE407  GLN430  VAL431  PHE432  ASP433  ALA434  ARG435  ASP436 
 CYS437  TYR446  ASN449  THR465  ILE466 

> <Gold.Protein.RotatedAtoms>
  220.2711   39.4066   10.4030 H   0  0  0  0  0  0  0  0  0  0  0  0  # atno 8251 bound_to 8229
  216.9004   39.7704   11.1071 H   0  0  0  0  0  0  0  0  0  0  0  0  # atno 8327 bound_to 8303
  213.4577   39.2630   10.4630 H   0  0  0  0  0  0  0  0  0  0  0  0  # atno 8365 bound_to 8345
  211.4470   38.7578   11.3502 H   0  0  0  0  0  0  0  0  0  0  0  0  # atno 8445 bound_to 8397
  209.1927   38.6792    9.0937 H   0  0  0  0  0  0  0  0  0  0  0  0  # atno 8511 bound_to 8487
  208.3883   38.0667    7.3235 H   0  0  0  0  0  0  0  0  0  0  0  0  # atno 8553 bound_to 8531
  210.8469   39.4110    6.4860 H   0  0  0  0  0  0  0  0  0  0  0  0  # atno 9080 bound_to 9050
  216.9535   35.7635   11.8858 H   0  0  0  0  0  0  0  0  0  0  0  0  # atno 10323 bound_to 10307
  216.2100   40.7025    9.7941 LP  0  0  0  0  0  0  0  0  0  0  0  0  # atno 27204 bound_to 8303
  212.3561   40.1738    9.0561 LP  0  0  0  0  0  0  0  0  0  0  0  0  # atno 27205 bound_to 8306
  213.7869   41.1484    9.1114 LP  0  0  0  0  0  0  0  0  0  0  0  0  # atno 27206 bound_to 8306
  214.1155   37.6671   10.7180 LP  0  0  0  0  0  0  0  0  0  0  0  0  # atno 27211 bound_to 8345
  210.9013   37.8935    9.9353 LP  0  0  0  0  0  0  0  0  0  0  0  0  # atno 27212 bound_to 8397
  208.2609   39.0994   10.5112 LP  0  0  0  0  0  0  0  0  0  0  0  0  # atno 27213 bound_to 8487
  211.7085   40.3454    5.4705 LP  0  0  0  0  0  0  0  0  0  0  0  0  # atno 27218 bound_to 9050
  212.2342   40.0909    6.9954 LP  0  0  0  0  0  0  0  0  0  0  0  0  # atno 27219 bound_to 9050
  209.8628   36.7163    8.6176 LP  0  0  0  0  0  0  0  0  0  0  0  0  # atno 27220 bound_to 8348
  210.4610   35.6432    9.8385 LP  0  0  0  0  0  0  0  0  0  0  0  0  # atno 27221 bound_to 8348
  206.5535   38.5905   11.7260 LP  0  0  0  0  0  0  0  0  0  0  0  0  # atno 27222 bound_to 8400
  206.6554   37.1346   10.7932 LP  0  0  0  0  0  0  0  0  0  0  0  0  # atno 27223 bound_to 8400
  218.5121   41.7846   11.6055 LP  0  0  0  0  0  0  0  0  0  0  0  0  # atno 27224 bound_to 8160
  220.0229   42.1595   10.8457 LP  0  0  0  0  0  0  0  0  0  0  0  0  # atno 27225 bound_to 8160
  215.8449   37.5584   10.4100 LP  0  0  0  0  0  0  0  0  0  0  0  0  # atno 27226 bound_to 8232
  217.2744   37.5318   11.3877 LP  0  0  0  0  0  0  0  0  0  0  0  0  # atno 27227 bound_to 8232
  219.0988   39.0912   11.6589 LP  0  0  0  0  0  0  0  0  0  0  0  0  # atno 27228 bound_to 8229
  207.2726   37.2563    8.4063 LP  0  0  0  0  0  0  0  0  0  0  0  0  # atno 27229 bound_to 8531
  212.5228   36.4223   12.4827 LP  0  0  0  0  0  0  0  0  0  0  0  0  # atno 27230 bound_to 10310
  213.4825   36.5265   11.0446 LP  0  0  0  0  0  0  0  0  0  0  0  0  # atno 27231 bound_to 10310

> <Gold.Score>
     Fitness  S(hb_ext) S(vdw_ext)  S(hb_int)    S(int)      intcor
     27.40       0.00      20.18       0.00      -0.36      -0.77

> <Gold.Goldscore.Fitness>
27.3954

> <Gold.Goldscore.Internal.Vdw>
-0.5125

> <Gold.Goldscore.Internal.Torsion>
-0.6140

> <Gold.Goldscore.External.Vdw>
20.1837

> <Gold.Goldscore.Internal.HBond>
0.0000

> <Gold.Goldscore.External.HBond>
0.0000

> <Gold.Goldscore.Internal.Correction>
-0.7693

> <Gold.Goldscore.Internal.Vdw.Weighted>
-0.5125

> <Gold.Goldscore.Internal.Torsion.Weighted>
-0.6140

> <Gold.Goldscore.External.Vdw.Weighted>
27.7525

> <Gold.Goldscore.Internal.HBond.Weighted>
0.0000

> <Gold.Goldscore.External.HBond.Weighted>
0.0000

> <Gold.Goldscore.Internal.Correction.Weighted>
-0.7693

> <Gold.Rescore>
     Score     S(PLP)   S(hbond)     S(cho)   S(metal)  DE(clash)   DE(tors)     intcor
     20.74     -21.83       0.00       0.00       0.00       0.00       0.55       ----

> <Gold.PLP.Fitness>
20.7354

> <Gold.PLP.PLP>
-21.8262

> <Gold.PLP.part.hbond>
0.0000

> <Gold.PLP.part.metal>
0.0000

> <Gold.PLP.part.buried>
-4.1741

> <Gold.PLP.part.nonpolar>
-17.6668

> <Gold.PLP.part.repulsive>
0.3478

> <Gold.PLP.ligand.clash>
0.0000

> <Gold.PLP.ligand.torsion>
0.5454

> <Gold.PLP.Chemscore.Hbond>
0.0000

> <Gold.PLP.Chemscore.CHOScore>
0.0000

> <Gold.PLP.Chemscore.Metal>
0.0000

> <Gold.PLP.Chemscore.Internal.Correction>
   9.000000E+99

