#       Name:                CT1002167954
#       Creating user name   hitesit
#       Creation time:       Sun Apr 16 20:16:25 2023


#       File generated by GOLD software.
#

@<TRIPOS>MOLECULE
CT1002167954|ligand_prepared|mol2|1|dock9
    29    30     1
SMALL
NO_CHARGES


@<TRIPOS>ATOM
      1 C1          30.2125  28.1687  -4.2860 C.3            1 RES1               0.0000
      2 C2          30.8647  26.8501  -3.8229 C.ar           1 RES1               0.0000
      3 C3          29.7681  27.9435  -5.7282 C.2            1 RES1               0.0000
      4 C4          29.0670  28.4413  -3.3174 C.2            1 RES1               0.0000
      5 C5          31.1676  29.3844  -4.2504 C.3            1 RES1               0.0000
      6 C6          30.1196  25.8917  -3.1424 C.ar           1 RES1               0.0000
      7 C7          32.2074  26.5771  -4.0707 C.ar           1 RES1               0.0000
      8 N8          28.4333  27.7883  -5.9612 N.am           1 RES1               0.0000
      9 O9          30.5798  27.8639  -6.6420 O.2            1 RES1               0.0000
     10 N10         27.7883  28.4058  -3.8088 N.am           1 RES1               0.0000
     11 O11         29.2592  28.6700  -2.1295 O.2            1 RES1               0.0000
     12 C12         30.4637  30.7222  -4.4149 C.3            1 RES1               0.0000
     13 C13         30.6950  24.7022  -2.7274 C.ar           1 RES1               0.0000
     14 C14         32.7809  25.3870  -3.6545 C.ar           1 RES1               0.0000
     15 C15         27.4179  28.0614  -5.0802 C.2            1 RES1               0.0000
     16 C16         32.0257  24.4488  -2.9834 C.ar           1 RES1               0.0000
     17 O17         26.2436  27.9992  -5.4326 O.2            1 RES1               0.0000
     18 H18         31.7050  29.3834  -3.2941 H              1 RES1               0.0000
     19 H19         31.9088  29.2747  -5.0517 H              1 RES1               0.0000
     20 H20         29.0716  26.0745  -2.9298 H              1 RES1               0.0000
     21 H21         32.8210  27.3010  -4.5960 H              1 RES1               0.0000
     22 H22         28.1654  27.4365  -6.8748 H              1 RES1               0.0000
     23 H23         27.0436  28.6598  -3.1675 H              1 RES1               0.0000
     24 H24         31.1793  31.5411  -4.3826 H              1 RES1               0.0000
     25 H25         29.9394  30.7677  -5.3672 H              1 RES1               0.0000
     26 H26         29.7368  30.8758  -3.6200 H              1 RES1               0.0000
     27 H27         30.0967  23.9677  -2.1984 H              1 RES1               0.0000
     28 H28         33.8287  25.1921  -3.8577 H              1 RES1               0.0000
     29 H29         32.4762  23.5168  -2.6585 H              1 RES1               0.0000
@<TRIPOS>BOND
    1    1    2 1     
    2    1    3 1     
    3    1    4 1     
    4    1    5 1     
    5    2    6 ar    
    6    2    7 ar    
    7    3    8 1     
    8    3    9 2     
    9    4   10 1     
   10    4   11 2     
   11    5   12 1     
   12    5   18 1     
   13    5   19 1     
   14    6   13 ar    
   15    6   20 1     
   16    7   14 ar    
   17    7   21 1     
   18    8   15 1     
   19    8   22 1     
   20   10   15 1     
   21   10   23 1     
   22   12   24 1     
   23   12   25 1     
   24   12   26 1     
   25   13   16 ar    
   26   13   27 1     
   27   14   16 ar    
   28   14   28 1     
   29   15   17 2     
   30   16   29 1     
@<TRIPOS>SUBSTRUCTURE
      1 RES1           1
@<TRIPOS>SET
DONOR_HYDROGENS      STATIC     ATOMS    <user>   **** ""
2 22 23
ATOM$RED        STATIC     ATOMS    COLORGROUP SYSTEM
2 22 23
@<TRIPOS>COMMENT
> <Gold.Version>
2022.3.0

> <Gold.Id.Protein>
unknown|3nx8_clean|pdb

> <Gold.Protein.RotatedTorsions>
[ 1667 1658 1657 1655 ] final  174.59 input   59.99 | X-H torsion
[  510  504  502  499 ] final   26.93 input   60.04 | X-H torsion

> <Gold.Protein.ActiveResidues>
 HIS39   LEU40   ASP41   GLN42   PHE43   GLU44   ARG45   ILE46   LYS47   THR48  
 MET58   LEU59   VAL60   LYS61   HIS62   LYS63   MET71   ILE73   PHE110  ASP112 
 ASN115  TYR117  VAL119  GLU333  GLU334  ILE335  ARG336  VAL337 

> <Gold.Protein.RotatedAtoms>
   26.1715   19.7288   -8.1855 H   0  0  0  0  0  0  0  0  0  0  0  0  # atno 510  bound_to 504 
   27.5275   25.7676    1.7966 H   0  0  0  0  0  0  0  0  0  0  0  0  # atno 1667 bound_to 1658
   28.0610   26.5625    3.1121 LP  0  0  0  0  0  0  0  0  0  0  0  0  # atno 5360 bound_to 1658
   26.6689   25.7113    3.1775 LP  0  0  0  0  0  0  0  0  0  0  0  0  # atno 5361 bound_to 1658

> <Gold.Score>
     Fitness  S(hb_ext) S(vdw_ext)  S(hb_int)    S(int)      intcor
     31.01       0.64      22.61       0.00      -0.72      -0.77

> <Gold.Goldscore.Fitness>
31.0091

> <Gold.Goldscore.Internal.Vdw>
-0.8827

> <Gold.Goldscore.Internal.Torsion>
-0.6036

> <Gold.Goldscore.External.Vdw>
22.6143

> <Gold.Goldscore.Internal.HBond>
0.0000

> <Gold.Goldscore.External.HBond>
0.6354

> <Gold.Goldscore.Internal.Correction>
-0.7653

> <Gold.Goldscore.Hbonds>
donor molecule, donor type, donor heavy atom, donor atom, acceptor molecule, acceptor atom, score
      P1  H  5107  5115       L1    17  0.23
      L1  H    10    23       P1  5110  0.08

> <Gold.Goldscore.Internal.Vdw.Weighted>
-0.8827

> <Gold.Goldscore.Internal.Torsion.Weighted>
-0.6036

> <Gold.Goldscore.External.Vdw.Weighted>
31.0947

> <Gold.Goldscore.Internal.HBond.Weighted>
0.0000

> <Gold.Goldscore.External.HBond.Weighted>
0.6354

> <Gold.Goldscore.Internal.Correction.Weighted>
-0.7653

> <Gold.Rescore>
     Score     S(PLP)   S(hbond)     S(cho)   S(metal)  DE(clash)   DE(tors)     intcor
     39.74     -37.57       1.00       0.00       0.00       0.00       0.42       ----

> <Gold.PLP.Fitness>
39.7398

> <Gold.PLP.PLP>
-37.5720

> <Gold.PLP.part.hbond>
-1.8597

> <Gold.PLP.part.metal>
0.0000

> <Gold.PLP.part.buried>
-3.4075

> <Gold.PLP.part.nonpolar>
-33.3967

> <Gold.PLP.part.repulsive>
0.3167

> <Gold.PLP.ligand.clash>
0.0000

> <Gold.PLP.ligand.torsion>
0.4161

> <Gold.PLP.Chemscore.Hbond>
1.0000

> <Gold.PLP.Chemscore.CHOScore>
0.0000

> <Gold.PLP.Chemscore.Metal>
0.0000

> <Gold.Chemscore.Hbonds>
donor molecule, donor type, donor heavy atom, donor atom, acceptor molecule, acceptor atom, score
      P1  H  5107  5115       L1    17  1.00

> <Gold.PLP.Chemscore.Internal.Correction>
   9.000000E+99

