#       Name:                CT1002167954
#       Creating user name   hitesit
#       Creation time:       Sun Apr 16 20:16:24 2023


#       File generated by GOLD software.
#

@<TRIPOS>MOLECULE
CT1002167954|ligand_prepared|mol2|1|dock8
    29    30     1
SMALL
NO_CHARGES


@<TRIPOS>ATOM
      1 C1          30.0138  28.1124  -4.2468 C.3            1 RES1               0.0000
      2 C2          30.6545  26.8059  -3.7357 C.ar           1 RES1               0.0000
      3 C3          29.5909  27.8468  -5.6886 C.2            1 RES1               0.0000
      4 C4          28.8544  28.4161  -3.3043 C.2            1 RES1               0.0000
      5 C5          30.9723  29.3259  -4.2316 C.3            1 RES1               0.0000
      6 C6          30.0043  25.5864  -3.8998 C.ar           1 RES1               0.0000
      7 C7          31.8941  26.8038  -3.1017 C.ar           1 RES1               0.0000
      8 N8          28.2594  27.6887  -5.9377 N.am           1 RES1               0.0000
      9 O9          30.4164  27.7384  -6.5870 O.2            1 RES1               0.0000
     10 N10         27.5834  28.3701  -3.8143 N.am           1 RES1               0.0000
     11 O11         29.0291  28.6786  -2.1207 O.2            1 RES1               0.0000
     12 C12         30.3913  30.5743  -4.8767 C.3            1 RES1               0.0000
     13 C13         30.5741  24.4071  -3.4492 C.ar           1 RES1               0.0000
     14 C14         32.4620  25.6233  -2.6516 C.ar           1 RES1               0.0000
     15 C15         27.2315  27.9901  -5.0808 C.2            1 RES1               0.0000
     16 C16         31.8033  24.4247  -2.8252 C.ar           1 RES1               0.0000
     17 O17         26.0625  27.9211  -5.4494 O.2            1 RES1               0.0000
     18 H18         31.2349  29.5555  -3.1916 H              1 RES1               0.0000
     19 H19         31.8953  29.0534  -4.7582 H              1 RES1               0.0000
     20 H20         29.0352  25.5532  -4.3863 H              1 RES1               0.0000
     21 H21         32.4300  27.7351  -2.9533 H              1 RES1               0.0000
     22 H22         28.0044  27.3114  -6.8448 H              1 RES1               0.0000
     23 H23         26.8297  28.6447  -3.1923 H              1 RES1               0.0000
     24 H24         31.1042  31.3953  -4.8393 H              1 RES1               0.0000
     25 H25         30.1419  30.3893  -5.9195 H              1 RES1               0.0000
     26 H26         29.4854  30.8883  -4.3622 H              1 RES1               0.0000
     27 H27         30.0510  23.4666  -3.5870 H              1 RES1               0.0000
     28 H28         33.4293  25.6420  -2.1605 H              1 RES1               0.0000
     29 H29         32.2495  23.5007  -2.4726 H              1 RES1               0.0000
@<TRIPOS>BOND
    1    1    2 1     
    2    1    3 1     
    3    1    4 1     
    4    1    5 1     
    5    2    6 ar    
    6    2    7 ar    
    7    3    8 1     
    8    3    9 2     
    9    4   10 1     
   10    4   11 2     
   11    5   12 1     
   12    5   18 1     
   13    5   19 1     
   14    6   13 ar    
   15    6   20 1     
   16    7   14 ar    
   17    7   21 1     
   18    8   15 1     
   19    8   22 1     
   20   10   15 1     
   21   10   23 1     
   22   12   24 1     
   23   12   25 1     
   24   12   26 1     
   25   13   16 ar    
   26   13   27 1     
   27   14   16 ar    
   28   14   28 1     
   29   15   17 2     
   30   16   29 1     
@<TRIPOS>SUBSTRUCTURE
      1 RES1           1
@<TRIPOS>SET
DONOR_HYDROGENS      STATIC     ATOMS    <user>   **** ""
2 22 23
ATOM$RED        STATIC     ATOMS    COLORGROUP SYSTEM
2 22 23
@<TRIPOS>COMMENT
> <Gold.Version>
2022.3.0

> <Gold.Id.Protein>
unknown|3nx8_clean|pdb

> <Gold.Protein.RotatedTorsions>
[ 1667 1658 1657 1655 ] final   12.40 input   59.99 | X-H torsion
[  510  504  502  499 ] final  -49.15 input   60.04 | X-H torsion

> <Gold.Protein.ActiveResidues>
 HIS39   LEU40   ASP41   GLN42   PHE43   GLU44   ARG45   ILE46   LYS47   THR48  
 MET58   LEU59   VAL60   LYS61   HIS62   LYS63   MET71   ILE73   PHE110  ASP112 
 ASN115  TYR117  VAL119  GLU333  GLU334  ILE335  ARG336  VAL337 

> <Gold.Protein.RotatedAtoms>
   25.8662   19.2460   -7.1828 H   0  0  0  0  0  0  0  0  0  0  0  0  # atno 510  bound_to 504 
   27.5622   26.3935    3.5363 H   0  0  0  0  0  0  0  0  0  0  0  0  # atno 1667 bound_to 1658
   26.6562   25.4815    2.5390 LP  0  0  0  0  0  0  0  0  0  0  0  0  # atno 5360 bound_to 1658
   28.0388   26.1616    1.9980 LP  0  0  0  0  0  0  0  0  0  0  0  0  # atno 5361 bound_to 1658

> <Gold.Score>
     Fitness  S(hb_ext) S(vdw_ext)  S(hb_int)    S(int)      intcor
     32.46       0.94      22.96       0.00      -0.05      -0.77

> <Gold.Goldscore.Fitness>
32.4550

> <Gold.Goldscore.Internal.Vdw>
-0.3856

> <Gold.Goldscore.Internal.Torsion>
-0.4347

> <Gold.Goldscore.External.Vdw>
22.9602

> <Gold.Goldscore.Internal.HBond>
0.0000

> <Gold.Goldscore.External.HBond>
0.9398

> <Gold.Goldscore.Internal.Correction>
-0.7653

> <Gold.Goldscore.Hbonds>
donor molecule, donor type, donor heavy atom, donor atom, acceptor molecule, acceptor atom, score
      P1  H  5107  5115       L1    17  0.26
      L1  H    10    23       P1  5110  0.21

> <Gold.Goldscore.Internal.Vdw.Weighted>
-0.3856

> <Gold.Goldscore.Internal.Torsion.Weighted>
-0.4347

> <Gold.Goldscore.External.Vdw.Weighted>
31.5702

> <Gold.Goldscore.Internal.HBond.Weighted>
0.0000

> <Gold.Goldscore.External.HBond.Weighted>
0.9398

> <Gold.Goldscore.Internal.Correction.Weighted>
-0.7653

> <Gold.Rescore>
     Score     S(PLP)   S(hbond)     S(cho)   S(metal)  DE(clash)   DE(tors)     intcor
     38.96     -35.98       1.00       0.00       0.00       0.00       0.01       ----

> <Gold.PLP.Fitness>
38.9563

> <Gold.PLP.PLP>
-35.9834

> <Gold.PLP.part.hbond>
-1.3549

> <Gold.PLP.part.metal>
0.0000

> <Gold.PLP.part.buried>
-3.4148

> <Gold.PLP.part.nonpolar>
-32.0886

> <Gold.PLP.part.repulsive>
0.3523

> <Gold.PLP.ligand.clash>
0.0000

> <Gold.PLP.ligand.torsion>
0.0136

> <Gold.PLP.Chemscore.Hbond>
1.0000

> <Gold.PLP.Chemscore.CHOScore>
0.0000

> <Gold.PLP.Chemscore.Metal>
0.0000

> <Gold.Chemscore.Hbonds>
donor molecule, donor type, donor heavy atom, donor atom, acceptor molecule, acceptor atom, score
      P1  H  5107  5115       L1    17  1.00

> <Gold.PLP.Chemscore.Internal.Correction>
   9.000000E+99

