#       Name:                CT1002167954
#       Creating user name   hitesit
#       Creation time:       Sun Apr 16 20:16:26 2023


#       File generated by GOLD software.
#

@<TRIPOS>MOLECULE
CT1002167954|ligand_prepared|mol2|1|dock10
    29    30     1
SMALL
NO_CHARGES


@<TRIPOS>ATOM
      1 C1          29.5011  27.8396  -3.7257 C.3            1 RES1               0.0000
      2 C2          30.6326  26.8428  -3.4020 C.ar           1 RES1               0.0000
      3 C3          28.6616  27.9615  -2.4574 C.2            1 RES1               0.0000
      4 C4          30.1828  29.1365  -4.1475 C.2            1 RES1               0.0000
      5 C5          28.5804  27.3857  -4.8824 C.3            1 RES1               0.0000
      6 C6          30.4184  25.4713  -3.5005 C.ar           1 RES1               0.0000
      7 C7          31.8944  27.2790  -3.0069 C.ar           1 RES1               0.0000
      8 N8          28.7799  29.1084  -1.7292 N.am           1 RES1               0.0000
      9 O9          27.9366  27.0488  -2.0808 O.2            1 RES1               0.0000
     10 N10         30.0245  30.2357  -3.3447 N.am           1 RES1               0.0000
     11 O11         30.8692  29.2122  -5.1592 O.2            1 RES1               0.0000
     12 C12         27.6390  28.4716  -5.3790 C.3            1 RES1               0.0000
     13 C13         31.4298  24.5684  -3.2172 C.ar           1 RES1               0.0000
     14 C14         32.9044  26.3744  -2.7238 C.ar           1 RES1               0.0000
     15 C15         29.3793  30.2724  -2.1386 C.2            1 RES1               0.0000
     16 C16         32.6735  25.0193  -2.8291 C.ar           1 RES1               0.0000
     17 O17         29.3260  31.2860  -1.4481 O.2            1 RES1               0.0000
     18 H18         29.2047  27.0497  -5.7195 H              1 RES1               0.0000
     19 H19         27.9843  26.5293  -4.5439 H              1 RES1               0.0000
     20 H20         29.4455  25.0977  -3.8021 H              1 RES1               0.0000
     21 H21         32.0986  28.3404  -2.9162 H              1 RES1               0.0000
     22 H22         28.3863  29.1000  -0.7936 H              1 RES1               0.0000
     23 H23         30.4247  31.1074  -3.6770 H              1 RES1               0.0000
     24 H24         27.0159  28.1006  -6.1900 H              1 RES1               0.0000
     25 H25         26.9857  28.8116  -4.5781 H              1 RES1               0.0000
     26 H26         28.1989  29.3290  -5.7467 H              1 RES1               0.0000
     27 H27         31.2425  23.5030  -3.3003 H              1 RES1               0.0000
     28 H28         33.8815  26.7337  -2.4181 H              1 RES1               0.0000
     29 H29         33.4657  24.3119  -2.6076 H              1 RES1               0.0000
@<TRIPOS>BOND
    1    1    2 1     
    2    1    3 1     
    3    1    4 1     
    4    1    5 1     
    5    2    6 ar    
    6    2    7 ar    
    7    3    8 1     
    8    3    9 2     
    9    4   10 1     
   10    4   11 2     
   11    5   12 1     
   12    5   18 1     
   13    5   19 1     
   14    6   13 ar    
   15    6   20 1     
   16    7   14 ar    
   17    7   21 1     
   18    8   15 1     
   19    8   22 1     
   20   10   15 1     
   21   10   23 1     
   22   12   24 1     
   23   12   25 1     
   24   12   26 1     
   25   13   16 ar    
   26   13   27 1     
   27   14   16 ar    
   28   14   28 1     
   29   15   17 2     
   30   16   29 1     
@<TRIPOS>SUBSTRUCTURE
      1 RES1           1
@<TRIPOS>SET
DONOR_HYDROGENS      STATIC     ATOMS    <user>   **** ""
2 22 23
ATOM$RED        STATIC     ATOMS    COLORGROUP SYSTEM
2 22 23
@<TRIPOS>COMMENT
> <Gold.Version>
2022.3.0

> <Gold.Id.Protein>
unknown|3nx8_clean|pdb

> <Gold.Protein.RotatedTorsions>
[ 1667 1658 1657 1655 ] final -165.60 input   59.99 | X-H torsion
[  510  504  502  499 ] final -165.49 input   60.04 | X-H torsion

> <Gold.Protein.ActiveResidues>
 HIS39   LEU40   ASP41   GLN42   PHE43   GLU44   ARG45   ILE46   LYS47   THR48  
 MET58   LEU59   VAL60   LYS61   HIS62   LYS63   MET71   ILE73   PHE110  ASP112 
 ASN115  TYR117  VAL119  GLU333  GLU334  ILE335  ARG336  VAL337 

> <Gold.Protein.RotatedAtoms>
   24.4011   19.2994   -7.8012 H   0  0  0  0  0  0  0  0  0  0  0  0  # atno 510  bound_to 504 
   27.2508   25.6167    1.8624 H   0  0  0  0  0  0  0  0  0  0  0  0  # atno 1667 bound_to 1658
   28.1909   26.5411    2.8157 LP  0  0  0  0  0  0  0  0  0  0  0  0  # atno 5360 bound_to 1658
   26.8178   25.8847    3.4076 LP  0  0  0  0  0  0  0  0  0  0  0  0  # atno 5361 bound_to 1658

> <Gold.Score>
     Fitness  S(hb_ext) S(vdw_ext)  S(hb_int)    S(int)      intcor
     29.17       0.00      21.79       0.00      -0.79      -0.77

> <Gold.Goldscore.Fitness>
29.1657

> <Gold.Goldscore.Internal.Vdw>
-1.0047

> <Gold.Goldscore.Internal.Torsion>
-0.5550

> <Gold.Goldscore.External.Vdw>
21.7891

> <Gold.Goldscore.Internal.HBond>
0.0000

> <Gold.Goldscore.External.HBond>
0.0000

> <Gold.Goldscore.Internal.Correction>
-0.7653

> <Gold.Goldscore.Internal.Vdw.Weighted>
-1.0047

> <Gold.Goldscore.Internal.Torsion.Weighted>
-0.5550

> <Gold.Goldscore.External.Vdw.Weighted>
29.9600

> <Gold.Goldscore.Internal.HBond.Weighted>
0.0000

> <Gold.Goldscore.External.HBond.Weighted>
0.0000

> <Gold.Goldscore.Internal.Correction.Weighted>
-0.7653

> <Gold.Rescore>
     Score     S(PLP)   S(hbond)     S(cho)   S(metal)  DE(clash)   DE(tors)     intcor
     36.83     -39.20       0.00       0.00       0.00       0.00       1.19       ----

> <Gold.PLP.Fitness>
36.8305

> <Gold.PLP.PLP>
-39.2011

> <Gold.PLP.part.hbond>
0.0000

> <Gold.PLP.part.metal>
0.0000

> <Gold.PLP.part.buried>
-2.1217

> <Gold.PLP.part.nonpolar>
-37.5803

> <Gold.PLP.part.repulsive>
0.0359

> <Gold.PLP.ligand.clash>
0.0000

> <Gold.PLP.ligand.torsion>
1.1853

> <Gold.PLP.Chemscore.Hbond>
0.0000

> <Gold.PLP.Chemscore.CHOScore>
0.0000

> <Gold.PLP.Chemscore.Metal>
0.0000

> <Gold.PLP.Chemscore.Internal.Correction>
   9.000000E+99

