#       Name:                CT1002167954
#       Creating user name   hitesit
#       Creation time:       Sun Apr 16 20:16:18 2023


#       File generated by GOLD software.
#

@<TRIPOS>MOLECULE
CT1002167954|ligand_prepared|mol2|1|dock1
    29    30     1
SMALL
NO_CHARGES


@<TRIPOS>ATOM
      1 C1          31.8660  27.4237  -3.9373 C.3            1 RES1               0.0000
      2 C2          31.6396  25.9359  -3.5996 C.ar           1 RES1               0.0000
      3 C3          31.9230  27.5137  -5.4594 C.2            1 RES1               0.0000
      4 C4          30.7021  28.1848  -3.3122 C.2            1 RES1               0.0000
      5 C5          33.1794  28.0023  -3.3614 C.3            1 RES1               0.0000
      6 C6          32.7202  25.0763  -3.4261 C.ar           1 RES1               0.0000
      7 C7          30.3585  25.4099  -3.4561 C.ar           1 RES1               0.0000
      8 N8          30.8467  28.0519  -6.1013 N.am           1 RES1               0.0000
      9 O9          32.8809  27.0829  -6.0896 O.2            1 RES1               0.0000
     10 N10         29.8189  28.8106  -4.1525 N.am           1 RES1               0.0000
     11 O11         30.5325  28.2344  -2.1001 O.2            1 RES1               0.0000
     12 C12         33.2284  29.5220  -3.3535 C.3            1 RES1               0.0000
     13 C13         32.5272  23.7400  -3.1174 C.ar           1 RES1               0.0000
     14 C14         30.1677  24.0732  -3.1476 C.ar           1 RES1               0.0000
     15 C15         29.8211  28.7529  -5.5196 C.2            1 RES1               0.0000
     16 C16         31.2510  23.2376  -2.9775 C.ar           1 RES1               0.0000
     17 O17         28.9609  29.2975  -6.2055 O.2            1 RES1               0.0000
     18 H18         33.3044  27.6396  -2.3337 H              1 RES1               0.0000
     19 H19         34.0215  27.6250  -3.9548 H              1 RES1               0.0000
     20 H20         33.7318  25.4531  -3.5347 H              1 RES1               0.0000
     21 H21         29.4913  26.0484  -3.5865 H              1 RES1               0.0000
     22 H22         30.8001  27.9209  -7.1067 H              1 RES1               0.0000
     23 H23         29.0925  29.3715  -3.7187 H              1 RES1               0.0000
     24 H24         34.1706  29.8754  -2.9400 H              1 RES1               0.0000
     25 H25         33.1324  29.9163  -4.3631 H              1 RES1               0.0000
     26 H26         32.4195  29.9309  -2.7516 H              1 RES1               0.0000
     27 H27         33.3832  23.0863  -2.9859 H              1 RES1               0.0000
     28 H28         29.1615  23.6820  -3.0391 H              1 RES1               0.0000
     29 H29         31.1001  22.1909  -2.7353 H              1 RES1               0.0000
@<TRIPOS>BOND
    1    1    2 1     
    2    1    3 1     
    3    1    4 1     
    4    1    5 1     
    5    2    6 ar    
    6    2    7 ar    
    7    3    8 1     
    8    3    9 2     
    9    4   10 1     
   10    4   11 2     
   11    5   12 1     
   12    5   18 1     
   13    5   19 1     
   14    6   13 ar    
   15    6   20 1     
   16    7   14 ar    
   17    7   21 1     
   18    8   15 1     
   19    8   22 1     
   20   10   15 1     
   21   10   23 1     
   22   12   24 1     
   23   12   25 1     
   24   12   26 1     
   25   13   16 ar    
   26   13   27 1     
   27   14   16 ar    
   28   14   28 1     
   29   15   17 2     
   30   16   29 1     
@<TRIPOS>SUBSTRUCTURE
      1 RES1           1
@<TRIPOS>SET
DONOR_HYDROGENS      STATIC     ATOMS    <user>   **** ""
2 22 23
ATOM$RED        STATIC     ATOMS    COLORGROUP SYSTEM
2 22 23
@<TRIPOS>COMMENT
> <Gold.Version>
2022.3.0

> <Gold.Id.Protein>
unknown|3nx8_clean|pdb

> <Gold.Protein.RotatedTorsions>
[ 1667 1658 1657 1655 ] final   35.03 input   59.99 | X-H torsion
[  510  504  502  499 ] final   74.03 input   60.04 | X-H torsion

> <Gold.Protein.ActiveResidues>
 HIS39   LEU40   ASP41   GLN42   PHE43   GLU44   ARG45   ILE46   LYS47   THR48  
 MET58   LEU59   VAL60   LYS61   HIS62   LYS63   MET71   ILE73   PHE110  ASP112 
 ASN115  TYR117  VAL119  GLU333  GLU334  ILE335  ARG336  VAL337 

> <Gold.Protein.RotatedAtoms>
   25.6373   19.8700   -8.6899 H   0  0  0  0  0  0  0  0  0  0  0  0  # atno 510  bound_to 504 
   27.8561   26.5141    3.3521 H   0  0  0  0  0  0  0  0  0  0  0  0  # atno 1667 bound_to 1658
   26.6090   25.5751    2.8937 LP  0  0  0  0  0  0  0  0  0  0  0  0  # atno 5360 bound_to 1658
   27.7899   25.9466    1.8288 LP  0  0  0  0  0  0  0  0  0  0  0  0  # atno 5361 bound_to 1658

> <Gold.Score>
     Fitness  S(hb_ext) S(vdw_ext)  S(hb_int)    S(int)      intcor
     34.16       0.53      24.98       0.00      -0.72      -0.79

> <Gold.Goldscore.Fitness>
34.1604

> <Gold.Goldscore.Internal.Vdw>
-0.7586

> <Gold.Goldscore.Internal.Torsion>
-0.7481

> <Gold.Goldscore.External.Vdw>
24.9817

> <Gold.Goldscore.Internal.HBond>
0.0000

> <Gold.Goldscore.External.HBond>
0.5279

> <Gold.Goldscore.Internal.Correction>
-0.7893

> <Gold.Goldscore.Hbonds>
donor molecule, donor type, donor heavy atom, donor atom, acceptor molecule, acceptor atom, score
      P1  H   433   448       L1     9  0.26

> <Gold.Goldscore.Internal.Vdw.Weighted>
-0.7586

> <Gold.Goldscore.Internal.Torsion.Weighted>
-0.7481

> <Gold.Goldscore.External.Vdw.Weighted>
34.3499

> <Gold.Goldscore.Internal.HBond.Weighted>
0.0000

> <Gold.Goldscore.External.HBond.Weighted>
0.5279

> <Gold.Goldscore.Internal.Correction.Weighted>
-0.7893

> <Gold.Rescore>
     Score     S(PLP)   S(hbond)     S(cho)   S(metal)  DE(clash)   DE(tors)     intcor
     42.90     -41.95       1.00       0.00       0.00       1.13       0.46       ----

> <Gold.PLP.Fitness>
42.8989

> <Gold.PLP.PLP>
-41.9457

> <Gold.PLP.part.hbond>
-1.0000

> <Gold.PLP.part.metal>
0.0000

> <Gold.PLP.part.buried>
-4.1984

> <Gold.PLP.part.nonpolar>
-37.4710

> <Gold.PLP.part.repulsive>
0.1347

> <Gold.PLP.ligand.clash>
1.1325

> <Gold.PLP.ligand.torsion>
0.4571

> <Gold.PLP.Chemscore.Hbond>
1.0000

> <Gold.PLP.Chemscore.CHOScore>
0.0000

> <Gold.PLP.Chemscore.Metal>
0.0000

> <Gold.Chemscore.Hbonds>
donor molecule, donor type, donor heavy atom, donor atom, acceptor molecule, acceptor atom, score
      P1  H   433   448       L1     9  0.80

> <Gold.PLP.Chemscore.Internal.Correction>
   9.000000E+99

