#       Name:                CT1002167954
#       Creating user name   hitesit
#       Creation time:       Sun Apr 16 20:16:22 2023


#       File generated by GOLD software.
#

@<TRIPOS>MOLECULE
CT1002167954|ligand_prepared|mol2|1|dock5
    29    30     1
SMALL
NO_CHARGES


@<TRIPOS>ATOM
      1 C1          31.2547  27.7095  -3.9634 C.3            1 RES1               0.0000
      2 C2          31.3468  26.2127  -3.6032 C.ar           1 RES1               0.0000
      3 C3          29.9561  27.8829  -4.7456 C.2            1 RES1               0.0000
      4 C4          31.2912  28.4693  -2.6420 C.2            1 RES1               0.0000
      5 C5          32.4260  28.2150  -4.8376 C.3            1 RES1               0.0000
      6 C6          32.5623  25.5392  -3.6784 C.ar           1 RES1               0.0000
      7 C7          30.2275  25.4938  -3.1922 C.ar           1 RES1               0.0000
      8 N8          28.9121  28.4883  -4.1106 N.am           1 RES1               0.0000
      9 O9          29.8373  27.4593  -5.8887 O.2            1 RES1               0.0000
     10 N10         30.1718  29.1675  -2.2716 N.am           1 RES1               0.0000
     11 O11         32.2734  28.4560  -1.9102 O.2            1 RES1               0.0000
     12 C12         32.2169  29.6150  -5.3928 C.3            1 RES1               0.0000
     13 C13         32.6561  24.1965  -3.3518 C.ar           1 RES1               0.0000
     14 C14         30.3234  24.1511  -2.8662 C.ar           1 RES1               0.0000
     15 C15         28.9732  29.1864  -2.9313 C.2            1 RES1               0.0000
     16 C16         31.5370  23.5017  -2.9451 C.ar           1 RES1               0.0000
     17 O17         27.9947  29.7943  -2.5069 O.2            1 RES1               0.0000
     18 H18         33.3440  28.2067  -4.2371 H              1 RES1               0.0000
     19 H19         32.5668  27.5205  -5.6750 H              1 RES1               0.0000
     20 H20         33.4533  26.0688  -3.9988 H              1 RES1               0.0000
     21 H21         29.2622  25.9838  -3.1237 H              1 RES1               0.0000
     22 H22         28.0017  28.4153  -4.5535 H              1 RES1               0.0000
     23 H23         30.2383  29.7249  -1.4260 H              1 RES1               0.0000
     24 H24         33.0674  29.9208  -5.9985 H              1 RES1               0.0000
     25 H25         31.3258  29.6538  -6.0159 H              1 RES1               0.0000
     26 H26         32.0983  30.3359  -4.5866 H              1 RES1               0.0000
     27 H27         33.6133  23.6897  -3.4169 H              1 RES1               0.0000
     28 H28         29.4399  23.6080  -2.5472 H              1 RES1               0.0000
     29 H29         31.6108  22.4499  -2.6889 H              1 RES1               0.0000
@<TRIPOS>BOND
    1    1    2 1     
    2    1    3 1     
    3    1    4 1     
    4    1    5 1     
    5    2    6 ar    
    6    2    7 ar    
    7    3    8 1     
    8    3    9 2     
    9    4   10 1     
   10    4   11 2     
   11    5   12 1     
   12    5   18 1     
   13    5   19 1     
   14    6   13 ar    
   15    6   20 1     
   16    7   14 ar    
   17    7   21 1     
   18    8   15 1     
   19    8   22 1     
   20   10   15 1     
   21   10   23 1     
   22   12   24 1     
   23   12   25 1     
   24   12   26 1     
   25   13   16 ar    
   26   13   27 1     
   27   14   16 ar    
   28   14   28 1     
   29   15   17 2     
   30   16   29 1     
@<TRIPOS>SUBSTRUCTURE
      1 RES1           1
@<TRIPOS>SET
DONOR_HYDROGENS      STATIC     ATOMS    <user>   **** ""
2 22 23
ATOM$RED        STATIC     ATOMS    COLORGROUP SYSTEM
2 22 23
@<TRIPOS>COMMENT
> <Gold.Version>
2022.3.0

> <Gold.Id.Protein>
unknown|3nx8_clean|pdb

> <Gold.Protein.RotatedTorsions>
[ 1667 1658 1657 1655 ] final   33.44 input   59.99 | X-H torsion
[  510  504  502  499 ] final  168.51 input   60.04 | X-H torsion

> <Gold.Protein.ActiveResidues>
 HIS39   LEU40   ASP41   GLN42   PHE43   GLU44   ARG45   ILE46   LYS47   THR48  
 MET58   LEU59   VAL60   LYS61   HIS62   LYS63   MET71   ILE73   PHE110  ASP112 
 ASN115  TYR117  VAL119  GLU333  GLU334  ILE335  ARG336  VAL337 

> <Gold.Protein.RotatedAtoms>
   24.4220   19.4703   -8.1857 H   0  0  0  0  0  0  0  0  0  0  0  0  # atno 510  bound_to 504 
   27.8371   26.5080    3.3688 H   0  0  0  0  0  0  0  0  0  0  0  0  # atno 1667 bound_to 1658
   26.6082   25.5661    2.8691 LP  0  0  0  0  0  0  0  0  0  0  0  0  # atno 5360 bound_to 1658
   27.8098   25.9618    1.8365 LP  0  0  0  0  0  0  0  0  0  0  0  0  # atno 5361 bound_to 1658

> <Gold.Score>
     Fitness  S(hb_ext) S(vdw_ext)  S(hb_int)    S(int)      intcor
     33.08       0.00      24.51       0.00      -0.63      -0.77

> <Gold.Goldscore.Fitness>
33.0764

> <Gold.Goldscore.Internal.Vdw>
-0.8603

> <Gold.Goldscore.Internal.Torsion>
-0.5329

> <Gold.Goldscore.External.Vdw>
24.5122

> <Gold.Goldscore.Internal.HBond>
0.0000

> <Gold.Goldscore.External.HBond>
0.0000

> <Gold.Goldscore.Internal.Correction>
-0.7653

> <Gold.Goldscore.Internal.Vdw.Weighted>
-0.8603

> <Gold.Goldscore.Internal.Torsion.Weighted>
-0.5329

> <Gold.Goldscore.External.Vdw.Weighted>
33.7043

> <Gold.Goldscore.Internal.HBond.Weighted>
0.0000

> <Gold.Goldscore.External.HBond.Weighted>
0.0000

> <Gold.Goldscore.Internal.Correction.Weighted>
-0.7653

> <Gold.Rescore>
     Score     S(PLP)   S(hbond)     S(cho)   S(metal)  DE(clash)   DE(tors)     intcor
     36.87     -38.64       0.00       0.00       0.00       0.12       0.82       ----

> <Gold.PLP.Fitness>
36.8737

> <Gold.PLP.PLP>
-38.6367

> <Gold.PLP.part.hbond>
0.0000

> <Gold.PLP.part.metal>
0.0000

> <Gold.PLP.part.buried>
-3.5531

> <Gold.PLP.part.nonpolar>
-36.2360

> <Gold.PLP.part.repulsive>
0.2041

> <Gold.PLP.ligand.clash>
0.1185

> <Gold.PLP.ligand.torsion>
0.8222

> <Gold.PLP.Chemscore.Hbond>
0.0000

> <Gold.PLP.Chemscore.CHOScore>
0.0000

> <Gold.PLP.Chemscore.Metal>
0.0000

> <Gold.PLP.Chemscore.Internal.Correction>
   9.000000E+99

