#       Name:                CT1002167954
#       Creating user name   hitesit
#       Creation time:       Sun Apr 16 20:16:19 2023


#       File generated by GOLD software.
#

@<TRIPOS>MOLECULE
CT1002167954|ligand_prepared|mol2|1|dock2
    29    30     1
SMALL
NO_CHARGES


@<TRIPOS>ATOM
      1 C1          30.6030  27.4691  -4.1060 C.3            1 RES1               0.0000
      2 C2          31.0122  26.0729  -3.5940 C.ar           1 RES1               0.0000
      3 C3          31.9011  28.2148  -4.4008 C.2            1 RES1               0.0000
      4 C4          29.7282  27.2342  -5.3324 C.2            1 RES1               0.0000
      5 C5          29.7838  28.2933  -3.0856 C.3            1 RES1               0.0000
      6 C6          32.2781  25.5620  -3.8645 C.ar           1 RES1               0.0000
      7 C7          30.1372  25.2867  -2.8492 C.ar           1 RES1               0.0000
      8 N8          32.2459  28.3905  -5.7085 N.am           1 RES1               0.0000
      9 O9          32.6311  28.6080  -3.4992 O.2            1 RES1               0.0000
     10 N10         30.2009  27.6538  -6.5482 N.am           1 RES1               0.0000
     11 O11         28.6411  26.6746  -5.2593 O.2            1 RES1               0.0000
     12 C12         29.5606  29.7384  -3.5029 C.3            1 RES1               0.0000
     13 C13         32.6568  24.3117  -3.4045 C.ar           1 RES1               0.0000
     14 C14         30.5178  24.0365  -2.3903 C.ar           1 RES1               0.0000
     15 C15         31.4335  28.1937  -6.7962 C.2            1 RES1               0.0000
     16 C16         31.7772  23.5483  -2.6668 C.ar           1 RES1               0.0000
     17 O17         31.8077  28.4960  -7.9256 O.2            1 RES1               0.0000
     18 H18         28.8083  27.8118  -2.9446 H              1 RES1               0.0000
     19 H19         30.3063  28.2811  -2.1211 H              1 RES1               0.0000
     20 H20         32.9830  26.1473  -4.4456 H              1 RES1               0.0000
     21 H21         29.1410  25.6499  -2.6205 H              1 RES1               0.0000
     22 H22         33.1956  28.6965  -5.8950 H              1 RES1               0.0000
     23 H23         29.5760  27.5547  -7.3420 H              1 RES1               0.0000
     24 H24         28.9809  30.2715  -2.7523 H              1 RES1               0.0000
     25 H25         30.5100  30.2549  -3.6277 H              1 RES1               0.0000
     26 H26         29.0209  29.7884  -4.4464 H              1 RES1               0.0000
     27 H27         33.6485  23.9315  -3.6260 H              1 RES1               0.0000
     28 H28         29.8221  23.4389  -1.8106 H              1 RES1               0.0000
     29 H29         32.0741  22.5690  -2.3062 H              1 RES1               0.0000
@<TRIPOS>BOND
    1    1    2 1     
    2    1    3 1     
    3    1    4 1     
    4    1    5 1     
    5    2    6 ar    
    6    2    7 ar    
    7    3    8 1     
    8    3    9 2     
    9    4   10 1     
   10    4   11 2     
   11    5   12 1     
   12    5   18 1     
   13    5   19 1     
   14    6   13 ar    
   15    6   20 1     
   16    7   14 ar    
   17    7   21 1     
   18    8   15 1     
   19    8   22 1     
   20   10   15 1     
   21   10   23 1     
   22   12   24 1     
   23   12   25 1     
   24   12   26 1     
   25   13   16 ar    
   26   13   27 1     
   27   14   16 ar    
   28   14   28 1     
   29   15   17 2     
   30   16   29 1     
@<TRIPOS>SUBSTRUCTURE
      1 RES1           1
@<TRIPOS>SET
DONOR_HYDROGENS      STATIC     ATOMS    <user>   **** ""
2 22 23
ATOM$RED        STATIC     ATOMS    COLORGROUP SYSTEM
2 22 23
@<TRIPOS>COMMENT
> <Gold.Version>
2022.3.0

> <Gold.Id.Protein>
unknown|3nx8_clean|pdb

> <Gold.Protein.RotatedTorsions>
[ 1667 1658 1657 1655 ] final -101.86 input   59.99 | X-H torsion
[  510  504  502  499 ] final   65.63 input   60.04 | X-H torsion

> <Gold.Protein.ActiveResidues>
 HIS39   LEU40   ASP41   GLN42   PHE43   GLU44   ARG45   ILE46   LYS47   THR48  
 MET58   LEU59   VAL60   LYS61   HIS62   LYS63   MET71   ILE73   PHE110  ASP112 
 ASN115  TYR117  VAL119  GLU333  GLU334  ILE335  ARG336  VAL337 

> <Gold.Protein.RotatedAtoms>
   25.7608   19.8626   -8.6310 H   0  0  0  0  0  0  0  0  0  0  0  0  # atno 510  bound_to 504 
   26.6396   25.4996    2.6301 H   0  0  0  0  0  0  0  0  0  0  0  0  # atno 1667 bound_to 1658
   27.9833   26.1079    1.9436 LP  0  0  0  0  0  0  0  0  0  0  0  0  # atno 5360 bound_to 1658
   27.6411   26.4358    3.5063 LP  0  0  0  0  0  0  0  0  0  0  0  0  # atno 5361 bound_to 1658

> <Gold.Score>
     Fitness  S(hb_ext) S(vdw_ext)  S(hb_int)    S(int)      intcor
     35.43       4.93      23.03       0.00      -1.16      -0.78

> <Gold.Goldscore.Fitness>
35.4298

> <Gold.Goldscore.Internal.Vdw>
-1.4485

> <Gold.Goldscore.Internal.Torsion>
-0.4908

> <Gold.Goldscore.External.Vdw>
23.0257

> <Gold.Goldscore.Internal.HBond>
0.0000

> <Gold.Goldscore.External.HBond>
4.9268

> <Gold.Goldscore.Internal.Correction>
-0.7819

> <Gold.Goldscore.Hbonds>
donor molecule, donor type, donor heavy atom, donor atom, acceptor molecule, acceptor atom, score
      P1  H   443   447       L1    11  0.82

> <Gold.Goldscore.Internal.Vdw.Weighted>
-1.4485

> <Gold.Goldscore.Internal.Torsion.Weighted>
-0.4908

> <Gold.Goldscore.External.Vdw.Weighted>
31.6603

> <Gold.Goldscore.Internal.HBond.Weighted>
0.0000

> <Gold.Goldscore.External.HBond.Weighted>
4.9268

> <Gold.Goldscore.Internal.Correction.Weighted>
-0.7819

> <Gold.Rescore>
     Score     S(PLP)   S(hbond)     S(cho)   S(metal)  DE(clash)   DE(tors)     intcor
     37.38     -39.49       0.00       0.00       0.00       1.97       0.07       ----

> <Gold.PLP.Fitness>
37.3838

> <Gold.PLP.PLP>
-39.4936

> <Gold.PLP.part.hbond>
0.0000

> <Gold.PLP.part.metal>
0.0000

> <Gold.PLP.part.buried>
-4.6029

> <Gold.PLP.part.nonpolar>
-35.8428

> <Gold.PLP.part.repulsive>
0.2839

> <Gold.PLP.ligand.clash>
1.9676

> <Gold.PLP.ligand.torsion>
0.0711

> <Gold.PLP.Chemscore.Hbond>
0.0000

> <Gold.PLP.Chemscore.CHOScore>
0.0000

> <Gold.PLP.Chemscore.Metal>
0.0000

> <Gold.Chemscore.Hbonds>
donor molecule, donor type, donor heavy atom, donor atom, acceptor molecule, acceptor atom, score
      P1  H   443   447       L1    11  0.03

> <Gold.PLP.Chemscore.Internal.Correction>
   9.000000E+99

