#       Name:                CT1002167954
#       Creating user name   hitesit
#       Creation time:       Sun Apr 16 20:16:23 2023


#       File generated by GOLD software.
#

@<TRIPOS>MOLECULE
CT1002167954|ligand_prepared|mol2|1|dock7
    29    30     1
SMALL
NO_CHARGES


@<TRIPOS>ATOM
      1 C1          29.4553  28.3654  -3.6435 C.3            1 RES1               0.0000
      2 C2          30.6161  27.3993  -3.3305 C.ar           1 RES1               0.0000
      3 C3          30.0384  29.7736  -3.5709 C.2            1 RES1               0.0000
      4 C4          28.9374  27.9770  -5.0239 C.2            1 RES1               0.0000
      5 C5          28.2768  28.2698  -2.6468 C.3            1 RES1               0.0000
      6 C6          31.9150  27.8767  -3.1826 C.ar           1 RES1               0.0000
      7 C7          30.4036  26.0311  -3.1845 C.ar           1 RES1               0.0000
      8 N8          30.2397  30.4355  -4.7462 N.am           1 RES1               0.0000
      9 O9          30.3538  30.2803  -2.5013 O.2            1 RES1               0.0000
     10 N10         29.0892  28.8793  -6.0440 N.am           1 RES1               0.0000
     11 O11         28.4142  26.8910  -5.2412 O.2            1 RES1               0.0000
     12 C12         27.1817  29.2959  -2.8919 C.3            1 RES1               0.0000
     13 C13         32.9630  27.0177  -2.8961 C.ar           1 RES1               0.0000
     14 C14         31.4532  25.1738  -2.8982 C.ar           1 RES1               0.0000
     15 C15         29.7444  30.0785  -5.9746 C.2            1 RES1               0.0000
     16 C16         32.7329  25.6660  -2.7533 C.ar           1 RES1               0.0000
     17 O17         29.8872  30.8111  -6.9493 O.2            1 RES1               0.0000
     18 H18         27.8404  27.2654  -2.7113 H              1 RES1               0.0000
     19 H19         28.6636  28.4026  -1.6289 H              1 RES1               0.0000
     20 H20         32.1157  28.9370  -3.2939 H              1 RES1               0.0000
     21 H21         29.4054  25.6214  -3.2952 H              1 RES1               0.0000
     22 H22         30.8113  31.2734  -4.7082 H              1 RES1               0.0000
     23 H23         28.6753  28.6344  -6.9379 H              1 RES1               0.0000
     24 H24         26.3796  29.1850  -2.1652 H              1 RES1               0.0000
     25 H25         27.5753  30.3070  -2.8104 H              1 RES1               0.0000
     26 H26         26.7569  29.1766  -3.8864 H              1 RES1               0.0000
     27 H27         33.9685  27.4099  -2.7844 H              1 RES1               0.0000
     28 H28         31.2676  24.1106  -2.7872 H              1 RES1               0.0000
     29 H29         33.5540  24.9934  -2.5284 H              1 RES1               0.0000
@<TRIPOS>BOND
    1    1    2 1     
    2    1    3 1     
    3    1    4 1     
    4    1    5 1     
    5    2    6 ar    
    6    2    7 ar    
    7    3    8 1     
    8    3    9 2     
    9    4   10 1     
   10    4   11 2     
   11    5   12 1     
   12    5   18 1     
   13    5   19 1     
   14    6   13 ar    
   15    6   20 1     
   16    7   14 ar    
   17    7   21 1     
   18    8   15 1     
   19    8   22 1     
   20   10   15 1     
   21   10   23 1     
   22   12   24 1     
   23   12   25 1     
   24   12   26 1     
   25   13   16 ar    
   26   13   27 1     
   27   14   16 ar    
   28   14   28 1     
   29   15   17 2     
   30   16   29 1     
@<TRIPOS>SUBSTRUCTURE
      1 RES1           1
@<TRIPOS>SET
DONOR_HYDROGENS      STATIC     ATOMS    <user>   **** ""
2 22 23
ATOM$RED        STATIC     ATOMS    COLORGROUP SYSTEM
2 22 23
@<TRIPOS>COMMENT
> <Gold.Version>
2022.3.0

> <Gold.Id.Protein>
unknown|3nx8_clean|pdb

> <Gold.Protein.RotatedTorsions>
[ 1667 1658 1657 1655 ] final -113.75 input   59.99 | X-H torsion
[  510  504  502  499 ] final    8.98 input   60.04 | X-H torsion

> <Gold.Protein.ActiveResidues>
 HIS39   LEU40   ASP41   GLN42   PHE43   GLU44   ARG45   ILE46   LYS47   THR48  
 MET58   LEU59   VAL60   LYS61   HIS62   LYS63   MET71   ILE73   PHE110  ASP112 
 ASN115  TYR117  VAL119  GLU333  GLU334  ILE335  ARG336  VAL337 

> <Gold.Protein.RotatedAtoms>
   26.2395   19.6236   -7.9215 H   0  0  0  0  0  0  0  0  0  0  0  0  # atno 510  bound_to 504 
   26.6967   25.4719    2.4470 H   0  0  0  0  0  0  0  0  0  0  0  0  # atno 1667 bound_to 1658
   28.0912   26.2175    2.0640 LP  0  0  0  0  0  0  0  0  0  0  0  0  # atno 5360 bound_to 1658
   27.4756   26.3541    3.5704 LP  0  0  0  0  0  0  0  0  0  0  0  0  # atno 5361 bound_to 1658

> <Gold.Score>
     Fitness  S(hb_ext) S(vdw_ext)  S(hb_int)    S(int)      intcor
     27.59       5.00      18.36       0.00      -2.65      -0.77

> <Gold.Goldscore.Fitness>
27.5856

> <Gold.Goldscore.Internal.Vdw>
-3.0143

> <Gold.Goldscore.Internal.Torsion>
-0.4012

> <Gold.Goldscore.External.Vdw>
18.3553

> <Gold.Goldscore.Internal.HBond>
0.0000

> <Gold.Goldscore.External.HBond>
4.9974

> <Gold.Goldscore.Internal.Correction>
-0.7653

> <Gold.Goldscore.Hbonds>
donor molecule, donor type, donor heavy atom, donor atom, acceptor molecule, acceptor atom, score
      P1  H   443   447       L1    11  0.83

> <Gold.Goldscore.Internal.Vdw.Weighted>
-3.0143

> <Gold.Goldscore.Internal.Torsion.Weighted>
-0.4012

> <Gold.Goldscore.External.Vdw.Weighted>
25.2385

> <Gold.Goldscore.Internal.HBond.Weighted>
0.0000

> <Gold.Goldscore.External.HBond.Weighted>
4.9974

> <Gold.Goldscore.Internal.Correction.Weighted>
-0.7653

> <Gold.Rescore>
     Score     S(PLP)   S(hbond)     S(cho)   S(metal)  DE(clash)   DE(tors)     intcor
     31.10     -30.31       1.00       0.00       0.00       1.89       0.16       ----

> <Gold.PLP.Fitness>
31.0980

> <Gold.PLP.PLP>
-30.3149

> <Gold.PLP.part.hbond>
-1.0000

> <Gold.PLP.part.metal>
0.0000

> <Gold.PLP.part.buried>
0.6515

> <Gold.PLP.part.nonpolar>
-29.1344

> <Gold.PLP.part.repulsive>
0.0206

> <Gold.PLP.ligand.clash>
1.8913

> <Gold.PLP.ligand.torsion>
0.1628

> <Gold.PLP.Chemscore.Hbond>
1.0000

> <Gold.PLP.Chemscore.CHOScore>
0.0000

> <Gold.PLP.Chemscore.Metal>
0.0000

> <Gold.Chemscore.Hbonds>
donor molecule, donor type, donor heavy atom, donor atom, acceptor molecule, acceptor atom, score
      P1  H   443   447       L1    11  0.10

> <Gold.PLP.Chemscore.Internal.Correction>
   9.000000E+99

