#       Name:                CT1002167954
#       Creating user name   hitesit
#       Creation time:       Sun Apr 16 20:16:07 2023


#       File generated by GOLD software.
#

@<TRIPOS>MOLECULE
CT1002167954|ligand_prepared|mol2|1|dock9
    29    30     1
SMALL
NO_CHARGES


@<TRIPOS>ATOM
      1 C1          25.4314   8.5988  -3.9933 C.3            1 RES1               0.0000
      2 C2          24.1514   8.3813  -4.8258 C.ar           1 RES1               0.0000
      3 C3          24.9701   8.9292  -2.5768 C.2            1 RES1               0.0000
      4 C4          26.2348   7.3074  -4.1007 C.2            1 RES1               0.0000
      5 C5          26.3192   9.7577  -4.5036 C.3            1 RES1               0.0000
      6 C6          23.0541   7.7224  -4.2794 C.ar           1 RES1               0.0000
      7 C7          24.0522   8.8353  -6.1383 C.ar           1 RES1               0.0000
      8 N8          25.1182   7.9655  -1.6232 N.am           1 RES1               0.0000
      9 O9          24.4482  10.0045  -2.3092 O.2            1 RES1               0.0000
     10 N10         26.4133   6.5658  -2.9623 N.am           1 RES1               0.0000
     11 O11         26.7007   6.9170  -5.1640 O.2            1 RES1               0.0000
     12 C12         27.4708  10.1035  -3.5728 C.3            1 RES1               0.0000
     13 C13         21.8984   7.5270  -5.0173 C.ar           1 RES1               0.0000
     14 C14         22.8955   8.6387  -6.8745 C.ar           1 RES1               0.0000
     15 C15         25.8653   6.8205  -1.7347 C.2            1 RES1               0.0000
     16 C16         21.8181   7.9854  -6.3150 C.ar           1 RES1               0.0000
     17 O17         26.0271   6.0768  -0.7714 O.2            1 RES1               0.0000
     18 H18         26.7278   9.4840  -5.4842 H              1 RES1               0.0000
     19 H19         25.6939  10.6489  -4.6378 H              1 RES1               0.0000
     20 H20         23.0997   7.3525  -3.2605 H              1 RES1               0.0000
     21 H21         24.8877   9.3510  -6.5994 H              1 RES1               0.0000
     22 H22         24.6279   8.1095  -0.7462 H              1 RES1               0.0000
     23 H23         27.0099   5.7480  -3.0370 H              1 RES1               0.0000
     24 H24         28.0616  10.9223  -3.9779 H              1 RES1               0.0000
     25 H25         27.0996  10.4047  -2.5953 H              1 RES1               0.0000
     26 H26         28.1274   9.2467  -3.4367 H              1 RES1               0.0000
     27 H27         21.0538   7.0110  -4.5728 H              1 RES1               0.0000
     28 H28         22.8370   9.0006  -7.8957 H              1 RES1               0.0000
     29 H29         20.9125   7.8325  -6.8927 H              1 RES1               0.0000
@<TRIPOS>BOND
    1    1    2 1     
    2    1    3 1     
    3    1    4 1     
    4    1    5 1     
    5    2    6 ar    
    6    2    7 ar    
    7    3    8 1     
    8    3    9 2     
    9    4   10 1     
   10    4   11 2     
   11    5   12 1     
   12    5   18 1     
   13    5   19 1     
   14    6   13 ar    
   15    6   20 1     
   16    7   14 ar    
   17    7   21 1     
   18    8   15 1     
   19    8   22 1     
   20   10   15 1     
   21   10   23 1     
   22   12   24 1     
   23   12   25 1     
   24   12   26 1     
   25   13   16 ar    
   26   13   27 1     
   27   14   16 ar    
   28   14   28 1     
   29   15   17 2     
   30   16   29 1     
@<TRIPOS>SUBSTRUCTURE
      1 RES1           1
@<TRIPOS>SET
DONOR_HYDROGENS      STATIC     ATOMS    <user>   **** ""
2 22 23
ATOM$RED        STATIC     ATOMS    COLORGROUP SYSTEM
2 22 23
@<TRIPOS>COMMENT
> <Gold.Version>
2022.3.0

> <Gold.Id.Protein>
unknown|3nx8_clean|pdb

> <Gold.Protein.RotatedTorsions>
[  550  544  542  539 ] final -127.77 input   60.01 | X-H torsion
[ 2770 2763 2761 2758 ] final   58.81 input   60.01 | X-H torsion
[ 5056 5047 5046 5044 ] final  -72.70 input   59.99 | X-H torsion
[ 1860 1855 1854 1851 ] final   65.77 input   60.02 | X-H torsion
[  567  564  563  560 ] final  -32.08 input   60.03 | X-H torsion
[ 2460 2451 2450 2448 ] final  133.28 input   59.99 | X-H torsion
[ 2535 2524 2523 2522 ] final  119.64 input   60.02 | X-H torsion

> <Gold.Protein.ActiveResidues>
 THR48   LEU49   GLY50   THR51   GLY52   SER53   PHE54   GLY55   ARG56   VAL57  
 MET58   ALA70   LYS72   GLU91   VAL104  MET120  TYR122  VAL123  GLY126  GLU127 
 MET128  PHE129  SER130  TYR164  ASP166  LYS168  PRO169  GLU170  ASN171  LEU172 
 LEU173  GLN181  VAL182  THR183  ASP184  PHE185  GLY186  ASN326  PHE327  ASP328 
 TYR330 

> <Gold.Protein.RotatedAtoms>
   19.8681   12.1084   -6.1387 H   0  0  0  0  0  0  0  0  0  0  0  0  # atno 550  bound_to 544 
   22.2617    9.4158    2.6178 H   0  0  0  0  0  0  0  0  0  0  0  0  # atno 567  bound_to 564 
   26.3155    4.3375  -11.2992 H   0  0  0  0  0  0  0  0  0  0  0  0  # atno 1860 bound_to 1855
   26.7265    2.1648    2.1404 H   0  0  0  0  0  0  0  0  0  0  0  0  # atno 2460 bound_to 2451
   19.2633    4.5133   -0.2402 H   0  0  0  0  0  0  0  0  0  0  0  0  # atno 2535 bound_to 2524
   19.0612    4.6317   -1.8811 H   0  0  0  0  0  0  0  0  0  0  0  0  # atno 2536 bound_to 2524
   18.5609    3.2690   -1.0802 H   0  0  0  0  0  0  0  0  0  0  0  0  # atno 2537 bound_to 2524
   30.3723    8.3016    1.1315 H   0  0  0  0  0  0  0  0  0  0  0  0  # atno 2770 bound_to 2763
   22.7823    9.7712  -10.3092 H   0  0  0  0  0  0  0  0  0  0  0  0  # atno 5056 bound_to 5047
   19.4284   11.2995   -4.7968 LP  0  0  0  0  0  0  0  0  0  0  0  0  # atno 5356 bound_to 544 
   20.8279   10.9316   -5.5537 LP  0  0  0  0  0  0  0  0  0  0  0  0  # atno 5357 bound_to 544 
   28.7638    8.2317    0.8926 LP  0  0  0  0  0  0  0  0  0  0  0  0  # atno 5378 bound_to 2763
   29.7464    8.7638   -0.2982 LP  0  0  0  0  0  0  0  0  0  0  0  0  # atno 5379 bound_to 2763
   22.1243    9.9963   -8.8380 LP  0  0  0  0  0  0  0  0  0  0  0  0  # atno 5382 bound_to 5047
   23.7429   10.0878   -9.0344 LP  0  0  0  0  0  0  0  0  0  0  0  0  # atno 5383 bound_to 5047
   25.1414    4.7234  -12.3580 LP  0  0  0  0  0  0  0  0  0  0  0  0  # atno 5388 bound_to 1855
   26.6403    5.3472  -12.5335 LP  0  0  0  0  0  0  0  0  0  0  0  0  # atno 5389 bound_to 1855
   22.2489    8.6984    4.0787 LP  0  0  0  0  0  0  0  0  0  0  0  0  # atno 5398 bound_to 564 
   21.6830   10.2207    3.9087 LP  0  0  0  0  0  0  0  0  0  0  0  0  # atno 5399 bound_to 564 
   26.9564    3.4741    3.0794 LP  0  0  0  0  0  0  0  0  0  0  0  0  # atno 5400 bound_to 2451
   25.4430    3.0054    2.6835 LP  0  0  0  0  0  0  0  0  0  0  0  0  # atno 5401 bound_to 2451

> <Gold.Score>
     Fitness  S(hb_ext) S(vdw_ext)  S(hb_int)    S(int)      intcor
     30.92       5.30      18.85       0.00      -0.30      -0.77

> <Gold.Goldscore.Fitness>
30.9237

> <Gold.Goldscore.Internal.Vdw>
-0.5792

> <Gold.Goldscore.Internal.Torsion>
-0.4818

> <Gold.Goldscore.External.Vdw>
18.8472

> <Gold.Goldscore.Internal.HBond>
0.0000

> <Gold.Goldscore.External.HBond>
5.3045

> <Gold.Goldscore.Internal.Correction>
-0.7653

> <Gold.Goldscore.Hbonds>
donor molecule, donor type, donor heavy atom, donor atom, acceptor molecule, acceptor atom, score
      L1  H     8    22       P1  2777  0.88

> <Gold.Goldscore.Internal.Vdw.Weighted>
-0.5792

> <Gold.Goldscore.Internal.Torsion.Weighted>
-0.4818

> <Gold.Goldscore.External.Vdw.Weighted>
25.9148

> <Gold.Goldscore.Internal.HBond.Weighted>
0.0000

> <Gold.Goldscore.External.HBond.Weighted>
5.3045

> <Gold.Goldscore.Internal.Correction.Weighted>
-0.7653

> <Gold.Rescore>
     Score     S(PLP)   S(hbond)     S(cho)   S(metal)  DE(clash)   DE(tors)     intcor
    -11.42      11.05       0.00       0.00       0.00       0.00       0.19       ----

> <Gold.PLP.Fitness>
-11.4200

> <Gold.PLP.PLP>
11.0467

> <Gold.PLP.part.hbond>
-3.0428

> <Gold.PLP.part.metal>
0.0000

> <Gold.PLP.part.buried>
41.2152

> <Gold.PLP.part.nonpolar>
-30.9683

> <Gold.PLP.part.repulsive>
2.7431

> <Gold.PLP.ligand.clash>
0.0000

> <Gold.PLP.ligand.torsion>
0.1867

> <Gold.PLP.Chemscore.Hbond>
0.0000

> <Gold.PLP.Chemscore.CHOScore>
0.0000

> <Gold.PLP.Chemscore.Metal>
0.0000

> <Gold.Chemscore.Hbonds>
donor molecule, donor type, donor heavy atom, donor atom, acceptor molecule, acceptor atom, score
      L1  H     8    22       P1  2777  0.03

> <Gold.PLP.Chemscore.Internal.Correction>
   9.000000E+99

