#       Name:                CT1002167954
#       Creating user name   hitesit
#       Creation time:       Sun Apr 16 20:16:02 2023


#       File generated by GOLD software.
#

@<TRIPOS>MOLECULE
CT1002167954|ligand_prepared|mol2|1|dock5
    29    30     1
SMALL
NO_CHARGES


@<TRIPOS>ATOM
      1 C1          26.6417   9.0021  -3.9666 C.3            1 RES1               0.0000
      2 C2          27.0464   9.4968  -2.5629 C.ar           1 RES1               0.0000
      3 C3          26.5868   7.4794  -3.8849 C.2            1 RES1               0.0000
      4 C4          25.3010   9.6572  -4.2797 C.2            1 RES1               0.0000
      5 C5          27.6388   9.3986  -5.0803 C.3            1 RES1               0.0000
      6 C6          26.0766   9.8217  -1.6192 C.ar           1 RES1               0.0000
      7 C7          28.3831   9.6306  -2.1969 C.ar           1 RES1               0.0000
      8 N8          25.3564   6.8913  -3.8741 N.am           1 RES1               0.0000
      9 O9          27.6065   6.8073  -3.7914 O.2            1 RES1               0.0000
     10 N10         24.2029   8.8464  -4.4003 N.am           1 RES1               0.0000
     11 O11         25.1825  10.8697  -4.4065 O.2            1 RES1               0.0000
     12 C12         27.9919  10.8775  -5.0890 C.3            1 RES1               0.0000
     13 C13         26.4301  10.2616  -0.3544 C.ar           1 RES1               0.0000
     14 C14         28.7344  10.0709  -0.9315 C.ar           1 RES1               0.0000
     15 C15         24.1642   7.4963  -4.1814 C.2            1 RES1               0.0000
     16 C16         27.7591  10.3861  -0.0095 C.ar           1 RES1               0.0000
     17 O17         23.1268   6.8440  -4.2560 O.2            1 RES1               0.0000
     18 H18         28.5598   8.8164  -4.9533 H              1 RES1               0.0000
     19 H19         27.2058   9.1333  -6.0527 H              1 RES1               0.0000
     20 H20         25.0256   9.7324  -1.8734 H              1 RES1               0.0000
     21 H21         29.1674   9.3894  -2.9063 H              1 RES1               0.0000
     22 H22         25.3192   5.9110  -3.6134 H              1 RES1               0.0000
     23 H23         23.3338   9.2904  -4.6793 H              1 RES1               0.0000
     24 H24         28.6941  11.1017  -5.8893 H              1 RES1               0.0000
     25 H25         27.1022  11.4857  -5.2386 H              1 RES1               0.0000
     26 H26         28.4482  11.1707  -4.1458 H              1 RES1               0.0000
     27 H27         25.6586  10.5097   0.3671 H              1 RES1               0.0000
     28 H28         29.7816  10.1680  -0.6646 H              1 RES1               0.0000
     29 H29         28.0357  10.7303   0.9815 H              1 RES1               0.0000
@<TRIPOS>BOND
    1    1    2 1     
    2    1    3 1     
    3    1    4 1     
    4    1    5 1     
    5    2    6 ar    
    6    2    7 ar    
    7    3    8 1     
    8    3    9 2     
    9    4   10 1     
   10    4   11 2     
   11    5   12 1     
   12    5   18 1     
   13    5   19 1     
   14    6   13 ar    
   15    6   20 1     
   16    7   14 ar    
   17    7   21 1     
   18    8   15 1     
   19    8   22 1     
   20   10   15 1     
   21   10   23 1     
   22   12   24 1     
   23   12   25 1     
   24   12   26 1     
   25   13   16 ar    
   26   13   27 1     
   27   14   16 ar    
   28   14   28 1     
   29   15   17 2     
   30   16   29 1     
@<TRIPOS>SUBSTRUCTURE
      1 RES1           1
@<TRIPOS>SET
DONOR_HYDROGENS      STATIC     ATOMS    <user>   **** ""
2 22 23
ATOM$RED        STATIC     ATOMS    COLORGROUP SYSTEM
2 22 23
@<TRIPOS>COMMENT
> <Gold.Version>
2022.3.0

> <Gold.Id.Protein>
unknown|3nx8_clean|pdb

> <Gold.Protein.RotatedTorsions>
[  550  544  542  539 ] final  164.72 input   60.01 | X-H torsion
[ 2770 2763 2761 2758 ] final  -55.00 input   60.01 | X-H torsion
[ 5056 5047 5046 5044 ] final  110.22 input   59.99 | X-H torsion
[ 1860 1855 1854 1851 ] final -104.55 input   60.02 | X-H torsion
[  567  564  563  560 ] final  111.75 input   60.03 | X-H torsion
[ 2460 2451 2450 2448 ] final   92.03 input   59.99 | X-H torsion
[ 2535 2524 2523 2522 ] final  132.01 input   60.02 | X-H torsion

> <Gold.Protein.ActiveResidues>
 THR48   LEU49   GLY50   THR51   GLY52   SER53   PHE54   GLY55   ARG56   VAL57  
 MET58   ALA70   LYS72   GLU91   VAL104  MET120  TYR122  VAL123  GLY126  GLU127 
 MET128  PHE129  SER130  TYR164  ASP166  LYS168  PRO169  GLU170  ASN171  LEU172 
 LEU173  GLN181  VAL182  THR183  ASP184  PHE185  GLY186  ASN326  PHE327  ASP328 
 TYR330 

> <Gold.Protein.RotatedAtoms>
   19.2339   11.8961   -5.3417 H   0  0  0  0  0  0  0  0  0  0  0  0  # atno 550  bound_to 544 
   21.7122    9.9827    4.2139 H   0  0  0  0  0  0  0  0  0  0  0  0  # atno 567  bound_to 564 
   25.6111    5.1965  -12.7987 H   0  0  0  0  0  0  0  0  0  0  0  0  # atno 1860 bound_to 1855
   27.2118    2.5193    2.4128 H   0  0  0  0  0  0  0  0  0  0  0  0  # atno 2460 bound_to 2451
   19.3181    4.6731   -0.3585 H   0  0  0  0  0  0  0  0  0  0  0  0  # atno 2535 bound_to 2524
   18.9720    4.4663   -1.9662 H   0  0  0  0  0  0  0  0  0  0  0  0  # atno 2536 bound_to 2524
   18.5952    3.2746   -0.8770 H   0  0  0  0  0  0  0  0  0  0  0  0  # atno 2537 bound_to 2524
   28.8137    8.2033    0.9767 H   0  0  0  0  0  0  0  0  0  0  0  0  # atno 2770 bound_to 2763
   22.9358   10.1321   -8.4788 H   0  0  0  0  0  0  0  0  0  0  0  0  # atno 5056 bound_to 5047
   20.3197   10.7615   -4.9150 LP  0  0  0  0  0  0  0  0  0  0  0  0  # atno 5356 bound_to 544 
   20.5753   11.6836   -6.2382 LP  0  0  0  0  0  0  0  0  0  0  0  0  # atno 5357 bound_to 544 
   29.6451    8.7574   -0.3082 LP  0  0  0  0  0  0  0  0  0  0  0  0  # atno 5378 bound_to 2763
   30.4338    8.3369    1.0584 LP  0  0  0  0  0  0  0  0  0  0  0  0  # atno 5379 bound_to 2763
   23.6690    9.9141   -9.9151 LP  0  0  0  0  0  0  0  0  0  0  0  0  # atno 5382 bound_to 5047
   22.0436    9.8066   -9.8003 LP  0  0  0  0  0  0  0  0  0  0  0  0  # atno 5383 bound_to 5047
   26.9430    4.9782  -11.8894 LP  0  0  0  0  0  0  0  0  0  0  0  0  # atno 5388 bound_to 1855
   25.5480    4.2276  -11.4926 LP  0  0  0  0  0  0  0  0  0  0  0  0  # atno 5389 bound_to 1855
   22.1160    9.7741    2.6510 LP  0  0  0  0  0  0  0  0  0  0  0  0  # atno 5398 bound_to 564 
   22.3690    8.5744    3.7297 LP  0  0  0  0  0  0  0  0  0  0  0  0  # atno 5399 bound_to 564 
   26.3228    3.6480    3.1773 LP  0  0  0  0  0  0  0  0  0  0  0  0  # atno 5400 bound_to 2451
   25.5881    2.4746    2.3113 LP  0  0  0  0  0  0  0  0  0  0  0  0  # atno 5401 bound_to 2451

> <Gold.Score>
     Fitness  S(hb_ext) S(vdw_ext)  S(hb_int)    S(int)      intcor
     39.65       0.28      31.64       0.00      -4.13      -0.77

> <Gold.Goldscore.Fitness>
39.6541

> <Gold.Goldscore.Internal.Vdw>
-4.3986

> <Gold.Goldscore.Internal.Torsion>
-0.5025

> <Gold.Goldscore.External.Vdw>
31.6424

> <Gold.Goldscore.Internal.HBond>
0.0000

> <Gold.Goldscore.External.HBond>
0.2787

> <Gold.Goldscore.Internal.Correction>
-0.7683

> <Gold.Goldscore.Hbonds>
donor molecule, donor type, donor heavy atom, donor atom, acceptor molecule, acceptor atom, score
      L1  H     8    22       P1  2555  0.11
      L1  H    10    23       P1   541  0.03

> <Gold.Goldscore.Internal.Vdw.Weighted>
-4.3986

> <Gold.Goldscore.Internal.Torsion.Weighted>
-0.5025

> <Gold.Goldscore.External.Vdw.Weighted>
43.5083

> <Gold.Goldscore.Internal.HBond.Weighted>
0.0000

> <Gold.Goldscore.External.HBond.Weighted>
0.2787

> <Gold.Goldscore.Internal.Correction.Weighted>
-0.7683

> <Gold.Rescore>
     Score     S(PLP)   S(hbond)     S(cho)   S(metal)  DE(clash)   DE(tors)     intcor
     26.89     -24.41       0.91       0.00       0.00       0.00       0.13       ----

> <Gold.PLP.Fitness>
26.8856

> <Gold.PLP.PLP>
-24.4121

> <Gold.PLP.part.hbond>
-3.3242

> <Gold.PLP.part.metal>
0.0000

> <Gold.PLP.part.buried>
12.4779

> <Gold.PLP.part.nonpolar>
-35.9754

> <Gold.PLP.part.repulsive>
2.2846

> <Gold.PLP.ligand.clash>
0.0000

> <Gold.PLP.ligand.torsion>
0.1313

> <Gold.PLP.Chemscore.Hbond>
0.9120

> <Gold.PLP.Chemscore.CHOScore>
0.0000

> <Gold.PLP.Chemscore.Metal>
0.0000

> <Gold.Chemscore.Hbonds>
donor molecule, donor type, donor heavy atom, donor atom, acceptor molecule, acceptor atom, score
      L1  H     8    22       P1  2555  0.61
      L1  H    10    23       P1   541  0.66

> <Gold.PLP.Chemscore.Internal.Correction>
   9.000000E+99

