#       Name:                CT1002167954
#       Creating user name   hitesit
#       Creation time:       Sun Apr 16 20:16:04 2023


#       File generated by GOLD software.
#

@<TRIPOS>MOLECULE
CT1002167954|ligand_prepared|mol2|1|dock7
    29    30     1
SMALL
NO_CHARGES


@<TRIPOS>ATOM
      1 C1          26.6207   9.0619  -3.2832 C.3            1 RES1               0.0000
      2 C2          27.8084   9.5759  -4.1223 C.ar           1 RES1               0.0000
      3 C3          25.3875   9.8077  -3.7845 C.2            1 RES1               0.0000
      4 C4          26.5665   7.5537  -3.4998 C.2            1 RES1               0.0000
      5 C5          26.7689   9.3217  -1.7659 C.3            1 RES1               0.0000
      6 C6          29.0759   9.6920  -3.5595 C.ar           1 RES1               0.0000
      7 C7          27.6529   9.9346  -5.4586 C.ar           1 RES1               0.0000
      8 N8          24.4966   9.1134  -4.5487 N.am           1 RES1               0.0000
      9 O9          25.2193  10.9972  -3.5459 O.2            1 RES1               0.0000
     10 N10         25.4763   7.0372  -4.1499 N.am           1 RES1               0.0000
     11 O11         27.4657   6.8097  -3.1282 O.2            1 RES1               0.0000
     12 C12         25.5074   9.0310  -0.9681 C.3            1 RES1               0.0000
     13 C13         30.1498  10.1474  -4.3064 C.ar           1 RES1               0.0000
     14 C14         28.7281  10.3900  -6.2036 C.ar           1 RES1               0.0000
     15 C15         24.4535   7.7520  -4.7113 C.2            1 RES1               0.0000
     16 C16         29.9768  10.4962  -5.6289 C.ar           1 RES1               0.0000
     17 O17         23.5353   7.2192  -5.3278 O.2            1 RES1               0.0000
     18 H18         27.5834   8.6972  -1.3787 H              1 RES1               0.0000
     19 H19         27.0493  10.3711  -1.6131 H              1 RES1               0.0000
     20 H20         29.2308   9.4245  -2.5196 H              1 RES1               0.0000
     21 H21         26.6795   9.8602  -5.9314 H              1 RES1               0.0000
     22 H22         23.7977   9.6567  -5.0454 H              1 RES1               0.0000
     23 H23         25.4221   6.0261  -4.2218 H              1 RES1               0.0000
     24 H24         25.6658   9.2297   0.0898 H              1 RES1               0.0000
     25 H25         24.6829   9.6531  -1.3100 H              1 RES1               0.0000
     26 H26         25.2138   7.9890  -1.0770 H              1 RES1               0.0000
     27 H27         31.1302  10.2305  -3.8490 H              1 RES1               0.0000
     28 H28         28.5872  10.6640  -7.2440 H              1 RES1               0.0000
     29 H29         30.8182  10.8525  -6.2138 H              1 RES1               0.0000
@<TRIPOS>BOND
    1    1    2 1     
    2    1    3 1     
    3    1    4 1     
    4    1    5 1     
    5    2    6 ar    
    6    2    7 ar    
    7    3    8 1     
    8    3    9 2     
    9    4   10 1     
   10    4   11 2     
   11    5   12 1     
   12    5   18 1     
   13    5   19 1     
   14    6   13 ar    
   15    6   20 1     
   16    7   14 ar    
   17    7   21 1     
   18    8   15 1     
   19    8   22 1     
   20   10   15 1     
   21   10   23 1     
   22   12   24 1     
   23   12   25 1     
   24   12   26 1     
   25   13   16 ar    
   26   13   27 1     
   27   14   16 ar    
   28   14   28 1     
   29   15   17 2     
   30   16   29 1     
@<TRIPOS>SUBSTRUCTURE
      1 RES1           1
@<TRIPOS>SET
DONOR_HYDROGENS      STATIC     ATOMS    <user>   **** ""
2 22 23
ATOM$RED        STATIC     ATOMS    COLORGROUP SYSTEM
2 22 23
@<TRIPOS>COMMENT
> <Gold.Version>
2022.3.0

> <Gold.Id.Protein>
unknown|3nx8_clean|pdb

> <Gold.Protein.RotatedTorsions>
[  550  544  542  539 ] final  -98.08 input   60.01 | X-H torsion
[ 2770 2763 2761 2758 ] final  158.05 input   60.01 | X-H torsion
[ 5056 5047 5046 5044 ] final  163.53 input   59.99 | X-H torsion
[ 1860 1855 1854 1851 ] final  -56.65 input   60.02 | X-H torsion
[  567  564  563  560 ] final  -89.19 input   60.03 | X-H torsion
[ 2460 2451 2450 2448 ] final -140.03 input   59.99 | X-H torsion
[ 2535 2524 2523 2522 ] final -147.33 input   60.02 | X-H torsion

> <Gold.Protein.ActiveResidues>
 THR48   LEU49   GLY50   THR51   GLY52   SER53   PHE54   GLY55   ARG56   VAL57  
 MET58   ALA70   LYS72   GLU91   VAL104  MET120  TYR122  VAL123  GLY126  GLU127 
 MET128  PHE129  SER130  TYR164  ASP166  LYS168  PRO169  GLU170  ASN171  LEU172 
 LEU173  GLN181  VAL182  THR183  ASP184  PHE185  GLY186  ASN326  PHE327  ASP328 
 TYR330 

> <Gold.Protein.RotatedAtoms>
   20.2882   11.9174   -6.2694 H   0  0  0  0  0  0  0  0  0  0  0  0  # atno 550  bound_to 544 
   22.4437    8.6956    3.1178 H   0  0  0  0  0  0  0  0  0  0  0  0  # atno 567  bound_to 564 
   25.1568    4.7465  -12.3872 H   0  0  0  0  0  0  0  0  0  0  0  0  # atno 1860 bound_to 1855
   25.5299    2.5693    2.3795 H   0  0  0  0  0  0  0  0  0  0  0  0  # atno 2460 bound_to 2451
   19.2339    4.9036   -1.5729 H   0  0  0  0  0  0  0  0  0  0  0  0  # atno 2535 bound_to 2524
   18.5515    3.3944   -1.5093 H   0  0  0  0  0  0  0  0  0  0  0  0  # atno 2536 bound_to 2524
   19.0997    4.1157   -0.1208 H   0  0  0  0  0  0  0  0  0  0  0  0  # atno 2537 bound_to 2524
   30.0662    8.7525   -0.1875 H   0  0  0  0  0  0  0  0  0  0  0  0  # atno 2770 bound_to 2763
   22.1672   10.0106   -8.7952 H   0  0  0  0  0  0  0  0  0  0  0  0  # atno 5056 bound_to 5047
   19.2337   11.6565   -5.0577 LP  0  0  0  0  0  0  0  0  0  0  0  0  # atno 5356 bound_to 544 
   20.5994   10.7671   -5.1611 LP  0  0  0  0  0  0  0  0  0  0  0  0  # atno 5357 bound_to 544 
   30.1274    8.2026    1.3433 LP  0  0  0  0  0  0  0  0  0  0  0  0  # atno 5378 bound_to 2763
   28.6909    8.3390    0.5787 LP  0  0  0  0  0  0  0  0  0  0  0  0  # atno 5379 bound_to 2763
   23.7659   10.0788   -9.0912 LP  0  0  0  0  0  0  0  0  0  0  0  0  # atno 5382 bound_to 5047
   22.7205    9.7642  -10.3056 LP  0  0  0  0  0  0  0  0  0  0  0  0  # atno 5383 bound_to 5047
   26.6684    5.3373  -12.5072 LP  0  0  0  0  0  0  0  0  0  0  0  0  # atno 5388 bound_to 1855
   26.2800    4.3215  -11.2890 LP  0  0  0  0  0  0  0  0  0  0  0  0  # atno 5389 bound_to 1855
   21.8830    9.4296    4.4580 LP  0  0  0  0  0  0  0  0  0  0  0  0  # atno 5398 bound_to 564 
   21.8657   10.2144    3.0261 LP  0  0  0  0  0  0  0  0  0  0  0  0  # atno 5399 bound_to 564 
   27.1508    2.4282    2.3422 LP  0  0  0  0  0  0  0  0  0  0  0  0  # atno 5400 bound_to 2451
   26.4533    3.6441    3.1799 LP  0  0  0  0  0  0  0  0  0  0  0  0  # atno 5401 bound_to 2451

> <Gold.Score>
     Fitness  S(hb_ext) S(vdw_ext)  S(hb_int)    S(int)      intcor
     35.34       1.62      25.09       0.00      -0.78      -0.77

> <Gold.Goldscore.Fitness>
35.3402

> <Gold.Goldscore.Internal.Vdw>
-1.0205

> <Gold.Goldscore.Internal.Torsion>
-0.5223

> <Gold.Goldscore.External.Vdw>
25.0881

> <Gold.Goldscore.Internal.HBond>
0.0000

> <Gold.Goldscore.External.HBond>
1.6215

> <Gold.Goldscore.Internal.Correction>
-0.7653

> <Gold.Goldscore.Hbonds>
donor molecule, donor type, donor heavy atom, donor atom, acceptor molecule, acceptor atom, score
      L1  H    10    23       P1  2555  0.81

> <Gold.Goldscore.Internal.Vdw.Weighted>
-1.0205

> <Gold.Goldscore.Internal.Torsion.Weighted>
-0.5223

> <Gold.Goldscore.External.Vdw.Weighted>
34.4962

> <Gold.Goldscore.Internal.HBond.Weighted>
0.0000

> <Gold.Goldscore.External.HBond.Weighted>
1.6215

> <Gold.Goldscore.Internal.Correction.Weighted>
-0.7653

> <Gold.Rescore>
     Score     S(PLP)   S(hbond)     S(cho)   S(metal)  DE(clash)   DE(tors)     intcor
     28.94     -26.98       1.21       0.00       0.00       0.00       0.84       ----

> <Gold.PLP.Fitness>
28.9428

> <Gold.PLP.PLP>
-26.9808

> <Gold.PLP.part.hbond>
-3.0824

> <Gold.PLP.part.metal>
0.0000

> <Gold.PLP.part.buried>
9.6052

> <Gold.PLP.part.nonpolar>
-36.9715

> <Gold.PLP.part.repulsive>
2.3943

> <Gold.PLP.ligand.clash>
0.0000

> <Gold.PLP.ligand.torsion>
0.8358

> <Gold.PLP.Chemscore.Hbond>
1.2112

> <Gold.PLP.Chemscore.CHOScore>
0.0000

> <Gold.PLP.Chemscore.Metal>
0.0000

> <Gold.Chemscore.Hbonds>
donor molecule, donor type, donor heavy atom, donor atom, acceptor molecule, acceptor atom, score
      L1  H     8    22       P1   541  0.15
      L1  H    10    23       P1  2555  0.78

> <Gold.PLP.Chemscore.Internal.Correction>
   9.000000E+99

