#       Name:                CT1002167954
#       Creating user name   hitesit
#       Creation time:       Sun Apr 16 20:15:57 2023


#       File generated by GOLD software.
#

@<TRIPOS>MOLECULE
CT1002167954|ligand_prepared|mol2|1|dock2
    29    30     1
SMALL
NO_CHARGES


@<TRIPOS>ATOM
      1 C1          26.6096   9.8106  -3.4311 C.3            1 RES1               0.0000
      2 C2          28.1469   9.9269  -3.3863 C.ar           1 RES1               0.0000
      3 C3          26.1641   9.4711  -2.0117 C.2            1 RES1               0.0000
      4 C4          26.0950  11.1524  -3.9405 C.2            1 RES1               0.0000
      5 C5          26.0939   8.7079  -4.3848 C.3            1 RES1               0.0000
      6 C6          28.8000  10.2325  -2.1960 C.ar           1 RES1               0.0000
      7 C7          28.9242   9.7289  -4.5244 C.ar           1 RES1               0.0000
      8 N8          25.5650  10.4572  -1.2846 N.am           1 RES1               0.0000
      9 O9          26.3709   8.3667  -1.5240 O.2            1 RES1               0.0000
     10 N10         25.3517  11.9220  -3.0843 N.am           1 RES1               0.0000
     11 O11         26.3404  11.5575  -5.0700 O.2            1 RES1               0.0000
     12 C12         24.6059   8.4261  -4.2486 C.3            1 RES1               0.0000
     13 C13         30.1804  10.3337  -2.1446 C.ar           1 RES1               0.0000
     14 C14         30.3045   9.8308  -4.4708 C.ar           1 RES1               0.0000
     15 C15         25.0893  11.6490  -1.7694 C.2            1 RES1               0.0000
     16 C16         30.9335  10.1325  -3.2817 C.ar           1 RES1               0.0000
     17 O17         24.4592  12.4168  -1.0480 O.2            1 RES1               0.0000
     18 H18         26.3031   9.0090  -5.4187 H              1 RES1               0.0000
     19 H19         26.6481   7.7821  -4.1866 H              1 RES1               0.0000
     20 H20         28.2239  10.3965  -1.2915 H              1 RES1               0.0000
     21 H21         28.4508   9.4917  -5.4711 H              1 RES1               0.0000
     22 H22         25.4612  10.2934  -0.2883 H              1 RES1               0.0000
     23 H23         24.9574  12.7776  -3.4622 H              1 RES1               0.0000
     24 H24         24.2964   7.6449  -4.9398 H              1 RES1               0.0000
     25 H25         24.3659   8.0997  -3.2388 H              1 RES1               0.0000
     26 H26         24.0230   9.3193  -4.4636 H              1 RES1               0.0000
     27 H27         30.6706  10.5727  -1.2066 H              1 RES1               0.0000
     28 H28         30.8932   9.6723  -5.3683 H              1 RES1               0.0000
     29 H29         32.0149  10.2115  -3.2411 H              1 RES1               0.0000
@<TRIPOS>BOND
    1    1    2 1     
    2    1    3 1     
    3    1    4 1     
    4    1    5 1     
    5    2    6 ar    
    6    2    7 ar    
    7    3    8 1     
    8    3    9 2     
    9    4   10 1     
   10    4   11 2     
   11    5   12 1     
   12    5   18 1     
   13    5   19 1     
   14    6   13 ar    
   15    6   20 1     
   16    7   14 ar    
   17    7   21 1     
   18    8   15 1     
   19    8   22 1     
   20   10   15 1     
   21   10   23 1     
   22   12   24 1     
   23   12   25 1     
   24   12   26 1     
   25   13   16 ar    
   26   13   27 1     
   27   14   16 ar    
   28   14   28 1     
   29   15   17 2     
   30   16   29 1     
@<TRIPOS>SUBSTRUCTURE
      1 RES1           1
@<TRIPOS>SET
DONOR_HYDROGENS      STATIC     ATOMS    <user>   **** ""
2 22 23
ATOM$RED        STATIC     ATOMS    COLORGROUP SYSTEM
2 22 23
@<TRIPOS>COMMENT
> <Gold.Version>
2022.3.0

> <Gold.Id.Protein>
unknown|3nx8_clean|pdb

> <Gold.Protein.RotatedTorsions>
[  550  544  542  539 ] final -108.04 input   60.01 | X-H torsion
[ 2770 2763 2761 2758 ] final  -95.72 input   60.01 | X-H torsion
[ 5056 5047 5046 5044 ] final   92.53 input   59.99 | X-H torsion
[ 1860 1855 1854 1851 ] final   36.99 input   60.02 | X-H torsion
[  567  564  563  560 ] final  161.11 input   60.03 | X-H torsion
[ 2460 2451 2450 2448 ] final   63.82 input   59.99 | X-H torsion
[ 2535 2524 2523 2522 ] final  154.88 input   60.02 | X-H torsion

> <Gold.Protein.ActiveResidues>
 THR48   LEU49   GLY50   THR51   GLY52   SER53   PHE54   GLY55   ARG56   VAL57  
 MET58   ALA70   LYS72   GLU91   VAL104  MET120  TYR122  VAL123  GLY126  GLU127 
 MET128  PHE129  SER130  TYR164  ASP166  LYS168  PRO169  GLU170  ASN171  LEU172 
 LEU173  GLN181  VAL182  THR183  ASP184  PHE185  GLY186  ASN326  PHE327  ASP328 
 TYR330 

> <Gold.Protein.RotatedAtoms>
   20.1492   11.9985   -6.2475 H   0  0  0  0  0  0  0  0  0  0  0  0  # atno 550  bound_to 544 
   21.9448    9.2729    4.4459 H   0  0  0  0  0  0  0  0  0  0  0  0  # atno 567  bound_to 564 
   25.8669    4.2225  -11.3451 H   0  0  0  0  0  0  0  0  0  0  0  0  # atno 1860 bound_to 1855
   27.3117    2.8801    2.6739 H   0  0  0  0  0  0  0  0  0  0  0  0  # atno 2460 bound_to 2451
   19.3746    4.8985   -0.6587 H   0  0  0  0  0  0  0  0  0  0  0  0  # atno 2535 bound_to 2524
   18.8089    4.1267   -2.0121 H   0  0  0  0  0  0  0  0  0  0  0  0  # atno 2536 bound_to 2524
   18.7018    3.3890   -0.5313 H   0  0  0  0  0  0  0  0  0  0  0  0  # atno 2537 bound_to 2524
   28.7160    8.4157    0.3683 H   0  0  0  0  0  0  0  0  0  0  0  0  # atno 2770 bound_to 2763
   23.2166   10.1424   -8.5423 H   0  0  0  0  0  0  0  0  0  0  0  0  # atno 5056 bound_to 5047
   19.2769   11.5383   -4.9531 LP  0  0  0  0  0  0  0  0  0  0  0  0  # atno 5356 bound_to 544 
   20.6963   10.8036   -5.2878 LP  0  0  0  0  0  0  0  0  0  0  0  0  # atno 5357 bound_to 544 
   30.2535    8.7288   -0.0645 LP  0  0  0  0  0  0  0  0  0  0  0  0  # atno 5378 bound_to 2763
   29.9238    8.1518    1.4271 LP  0  0  0  0  0  0  0  0  0  0  0  0  # atno 5379 bound_to 2763
   23.4751    9.8590  -10.1237 LP  0  0  0  0  0  0  0  0  0  0  0  0  # atno 5382 bound_to 5047
   21.9548    9.8514   -9.5278 LP  0  0  0  0  0  0  0  0  0  0  0  0  # atno 5383 bound_to 5047
   25.3414    5.0141  -12.6663 LP  0  0  0  0  0  0  0  0  0  0  0  0  # atno 5388 bound_to 1855
   26.8920    5.1723  -12.1791 LP  0  0  0  0  0  0  0  0  0  0  0  0  # atno 5389 bound_to 1855
   21.8106   10.2782    3.1729 LP  0  0  0  0  0  0  0  0  0  0  0  0  # atno 5398 bound_to 564 
   22.4403    8.7847    2.9744 LP  0  0  0  0  0  0  0  0  0  0  0  0  # atno 5399 bound_to 564 
   25.8845    3.5449    3.0859 LP  0  0  0  0  0  0  0  0  0  0  0  0  # atno 5400 bound_to 2451
   25.9258    2.2145    2.1399 LP  0  0  0  0  0  0  0  0  0  0  0  0  # atno 5401 bound_to 2451

> <Gold.Score>
     Fitness  S(hb_ext) S(vdw_ext)  S(hb_int)    S(int)      intcor
     43.27       0.00      32.09       0.00      -0.86      -0.82

> <Gold.Goldscore.Fitness>
43.2695

> <Gold.Goldscore.Internal.Vdw>
-1.1464

> <Gold.Goldscore.Internal.Torsion>
-0.5345

> <Gold.Goldscore.External.Vdw>
32.0933

> <Gold.Goldscore.Internal.HBond>
0.0000

> <Gold.Goldscore.External.HBond>
0.0000

> <Gold.Goldscore.Internal.Correction>
-0.8221

> <Gold.Goldscore.Internal.Vdw.Weighted>
-1.1464

> <Gold.Goldscore.Internal.Torsion.Weighted>
-0.5345

> <Gold.Goldscore.External.Vdw.Weighted>
44.1283

> <Gold.Goldscore.Internal.HBond.Weighted>
0.0000

> <Gold.Goldscore.External.HBond.Weighted>
0.0000

> <Gold.Goldscore.Internal.Correction.Weighted>
-0.8221

> <Gold.Rescore>
     Score     S(PLP)   S(hbond)     S(cho)   S(metal)  DE(clash)   DE(tors)     intcor
     22.24     -21.33       1.00       0.00       0.00       0.08       1.01       ----

> <Gold.PLP.Fitness>
22.2377

> <Gold.PLP.PLP>
-21.3291

> <Gold.PLP.part.hbond>
-2.9603

> <Gold.PLP.part.metal>
0.0000

> <Gold.PLP.part.buried>
13.5771

> <Gold.PLP.part.nonpolar>
-35.6515

> <Gold.PLP.part.repulsive>
3.0645

> <Gold.PLP.ligand.clash>
0.0780

> <Gold.PLP.ligand.torsion>
1.0067

> <Gold.PLP.Chemscore.Hbond>
1.0000

> <Gold.PLP.Chemscore.CHOScore>
0.0000

> <Gold.PLP.Chemscore.Metal>
0.0000

> <Gold.Chemscore.Hbonds>
donor molecule, donor type, donor heavy atom, donor atom, acceptor molecule, acceptor atom, score
      L1  H    10    23       P1   534  0.68
      P1  H   552   556       L1    17  0.38

> <Gold.PLP.Chemscore.Internal.Correction>
   9.000000E+99

