#       Name:                CT1002167954
#       Creating user name   hitesit
#       Creation time:       Sun Apr 16 20:16:00 2023


#       File generated by GOLD software.
#

@<TRIPOS>MOLECULE
CT1002167954|ligand_prepared|mol2|1|dock4
    29    30     1
SMALL
NO_CHARGES


@<TRIPOS>ATOM
      1 C1          25.5327   8.7208  -3.3600 C.3            1 RES1               0.0000
      2 C2          24.2129   7.9321  -3.4831 C.ar           1 RES1               0.0000
      3 C3          25.1415  10.1820  -3.1594 C.2            1 RES1               0.0000
      4 C4          26.2858   8.1111  -2.1829 C.2            1 RES1               0.0000
      5 C5          26.4384   8.6219  -4.6096 C.3            1 RES1               0.0000
      6 C6          23.5819   7.7947  -4.7158 C.ar           1 RES1               0.0000
      7 C7          23.6169   7.3353  -2.3753 C.ar           1 RES1               0.0000
      8 N8          25.2950  10.7116  -1.9120 N.am           1 RES1               0.0000
      9 O9          24.6684  10.8479  -4.0720 O.2            1 RES1               0.0000
     10 N10         26.4850   8.8916  -1.0744 N.am           1 RES1               0.0000
     11 O11         26.6940   6.9564  -2.1988 O.2            1 RES1               0.0000
     12 C12         27.8359   9.1835  -4.3998 C.3            1 RES1               0.0000
     13 C13         22.3994   7.0838  -4.8374 C.ar           1 RES1               0.0000
     14 C14         22.4343   6.6250  -2.4990 C.ar           1 RES1               0.0000
     15 C15         25.9969  10.1541  -0.8737 C.2            1 RES1               0.0000
     16 C16         21.8251   6.4982  -3.7293 C.ar           1 RES1               0.0000
     17 O17         26.1721  10.7719   0.1727 O.2            1 RES1               0.0000
     18 H18         26.5217   7.5682  -4.9028 H              1 RES1               0.0000
     19 H19         25.9608   9.1631  -5.4357 H              1 RES1               0.0000
     20 H20         24.0177   8.2507  -5.5985 H              1 RES1               0.0000
     21 H21         24.0778   7.4229  -1.3973 H              1 RES1               0.0000
     22 H22         24.8463  11.6047  -1.7349 H              1 RES1               0.0000
     23 H23         27.0494   8.4949  -0.3299 H              1 RES1               0.0000
     24 H24         28.4295   9.0894  -5.3067 H              1 RES1               0.0000
     25 H25         27.7919  10.2370  -4.1314 H              1 RES1               0.0000
     26 H26         28.3496   8.6515  -3.6018 H              1 RES1               0.0000
     27 H27         21.9233   6.9881  -5.8076 H              1 RES1               0.0000
     28 H28         21.9855   6.1663  -1.6242 H              1 RES1               0.0000
     29 H29         20.8990   5.9410  -3.8248 H              1 RES1               0.0000
@<TRIPOS>BOND
    1    1    2 1     
    2    1    3 1     
    3    1    4 1     
    4    1    5 1     
    5    2    6 ar    
    6    2    7 ar    
    7    3    8 1     
    8    3    9 2     
    9    4   10 1     
   10    4   11 2     
   11    5   12 1     
   12    5   18 1     
   13    5   19 1     
   14    6   13 ar    
   15    6   20 1     
   16    7   14 ar    
   17    7   21 1     
   18    8   15 1     
   19    8   22 1     
   20   10   15 1     
   21   10   23 1     
   22   12   24 1     
   23   12   25 1     
   24   12   26 1     
   25   13   16 ar    
   26   13   27 1     
   27   14   16 ar    
   28   14   28 1     
   29   15   17 2     
   30   16   29 1     
@<TRIPOS>SUBSTRUCTURE
      1 RES1           1
@<TRIPOS>SET
DONOR_HYDROGENS      STATIC     ATOMS    <user>   **** ""
2 22 23
ATOM$RED        STATIC     ATOMS    COLORGROUP SYSTEM
2 22 23
@<TRIPOS>COMMENT
> <Gold.Version>
2022.3.0

> <Gold.Id.Protein>
unknown|3nx8_clean|pdb

> <Gold.Protein.RotatedTorsions>
[  550  544  542  539 ] final  167.75 input   60.01 | X-H torsion
[ 2770 2763 2761 2758 ] final -168.11 input   60.01 | X-H torsion
[ 5056 5047 5046 5044 ] final   93.53 input   59.99 | X-H torsion
[ 1860 1855 1854 1851 ] final  153.32 input   60.02 | X-H torsion
[  567  564  563  560 ] final   38.68 input   60.03 | X-H torsion
[ 2460 2451 2450 2448 ] final -179.32 input   59.99 | X-H torsion
[ 2535 2524 2523 2522 ] final  -94.64 input   60.02 | X-H torsion

> <Gold.Protein.ActiveResidues>
 THR48   LEU49   GLY50   THR51   GLY52   SER53   PHE54   GLY55   ARG56   VAL57  
 MET58   ALA70   LYS72   GLU91   VAL104  MET120  TYR122  VAL123  GLY126  GLU127 
 MET128  PHE129  SER130  TYR164  ASP166  LYS168  PRO169  GLU170  ASN171  LEU172 
 LEU173  GLN181  VAL182  THR183  ASP184  PHE185  GLY186  ASN326  PHE327  ASP328 
 TYR330 

> <Gold.Protein.RotatedAtoms>
   19.2428   11.9234   -5.3819 H   0  0  0  0  0  0  0  0  0  0  0  0  # atno 550  bound_to 544 
   21.8224   10.2594    3.1393 H   0  0  0  0  0  0  0  0  0  0  0  0  # atno 567  bound_to 564 
   26.9043    5.1379  -12.1307 H   0  0  0  0  0  0  0  0  0  0  0  0  # atno 1860 bound_to 1855
   25.9744    2.1977    2.1330 H   0  0  0  0  0  0  0  0  0  0  0  0  # atno 2460 bound_to 2451
   18.8747    4.2706   -2.0113 H   0  0  0  0  0  0  0  0  0  0  0  0  # atno 2535 bound_to 2524
   18.6512    3.3250   -0.6685 H   0  0  0  0  0  0  0  0  0  0  0  0  # atno 2536 bound_to 2524
   19.3587    4.8173   -0.5233 H   0  0  0  0  0  0  0  0  0  0  0  0  # atno 2537 bound_to 2524
   29.5333    8.7415   -0.3023 H   0  0  0  0  0  0  0  0  0  0  0  0  # atno 2770 bound_to 2763
   23.2013   10.1423   -8.5364 H   0  0  0  0  0  0  0  0  0  0  0  0  # atno 5056 bound_to 5047
   20.2782   10.7689   -4.8885 LP  0  0  0  0  0  0  0  0  0  0  0  0  # atno 5356 bound_to 544 
   20.6079   11.6486   -6.2242 LP  0  0  0  0  0  0  0  0  0  0  0  0  # atno 5357 bound_to 544 
   30.4860    8.3760    0.9657 LP  0  0  0  0  0  0  0  0  0  0  0  0  # atno 5378 bound_to 2763
   28.8687    8.1767    1.0719 LP  0  0  0  0  0  0  0  0  0  0  0  0  # atno 5379 bound_to 2763
   23.4878    9.8619  -10.1136 LP  0  0  0  0  0  0  0  0  0  0  0  0  # atno 5382 bound_to 5047
   21.9575    9.8486   -9.5439 LP  0  0  0  0  0  0  0  0  0  0  0  0  # atno 5383 bound_to 5047
   25.8081    4.2158  -11.3583 LP  0  0  0  0  0  0  0  0  0  0  0  0  # atno 5388 bound_to 1855
   25.3809    5.0489  -12.6962 LP  0  0  0  0  0  0  0  0  0  0  0  0  # atno 5389 bound_to 1855
   22.4432    8.7607    3.0061 LP  0  0  0  0  0  0  0  0  0  0  0  0  # atno 5398 bound_to 564 
   21.9308    9.3092    4.4564 LP  0  0  0  0  0  0  0  0  0  0  0  0  # atno 5399 bound_to 564 
   27.3154    2.9236    2.7019 LP  0  0  0  0  0  0  0  0  0  0  0  0  # atno 5400 bound_to 2451
   25.8412    3.5228    3.0684 LP  0  0  0  0  0  0  0  0  0  0  0  0  # atno 5401 bound_to 2451

> <Gold.Score>
     Fitness  S(hb_ext) S(vdw_ext)  S(hb_int)    S(int)      intcor
     36.02       0.04      26.72       0.00      -0.75      -0.77

> <Gold.Goldscore.Fitness>
36.0195

> <Gold.Goldscore.Internal.Vdw>
-0.9905

> <Gold.Goldscore.Internal.Torsion>
-0.5324

> <Gold.Goldscore.External.Vdw>
26.7162

> <Gold.Goldscore.Internal.HBond>
0.0000

> <Gold.Goldscore.External.HBond>
0.0393

> <Gold.Goldscore.Internal.Correction>
-0.7683

> <Gold.Goldscore.Hbonds>
donor molecule, donor type, donor heavy atom, donor atom, acceptor molecule, acceptor atom, score
      L1  H    10    23       P1  2763  0.02

> <Gold.Goldscore.Internal.Vdw.Weighted>
-0.9905

> <Gold.Goldscore.Internal.Torsion.Weighted>
-0.5324

> <Gold.Goldscore.External.Vdw.Weighted>
36.7348

> <Gold.Goldscore.Internal.HBond.Weighted>
0.0000

> <Gold.Goldscore.External.HBond.Weighted>
0.0393

> <Gold.Goldscore.Internal.Correction.Weighted>
-0.7683

> <Gold.Rescore>
     Score     S(PLP)   S(hbond)     S(cho)   S(metal)  DE(clash)   DE(tors)     intcor
     10.07     -12.82       0.00       0.00       0.00       0.77       1.00       ----

> <Gold.PLP.Fitness>
10.0665

> <Gold.PLP.PLP>
-12.8237

> <Gold.PLP.part.hbond>
-1.0000

> <Gold.PLP.part.metal>
0.0000

> <Gold.PLP.part.buried>
16.5360

> <Gold.PLP.part.nonpolar>
-33.4389

> <Gold.PLP.part.repulsive>
4.3127

> <Gold.PLP.ligand.clash>
0.7650

> <Gold.PLP.ligand.torsion>
0.9961

> <Gold.PLP.Chemscore.Hbond>
0.0000

> <Gold.PLP.Chemscore.CHOScore>
0.0000

> <Gold.PLP.Chemscore.Metal>
0.0000

> <Gold.PLP.Chemscore.Internal.Correction>
   9.000000E+99

