#       Name:                CT1002167954
#       Creating user name   hitesit
#       Creation time:       Sun Apr 16 20:16:06 2023


#       File generated by GOLD software.
#

@<TRIPOS>MOLECULE
CT1002167954|ligand_prepared|mol2|1|dock8
    29    30     1
SMALL
NO_CHARGES


@<TRIPOS>ATOM
      1 C1          25.7721   8.9908  -3.4443 C.3            1 RES1               0.0000
      2 C2          24.4966   8.3315  -4.0076 C.ar           1 RES1               0.0000
      3 C3          25.5433  10.4976  -3.5168 C.2            1 RES1               0.0000
      4 C4          25.9391   8.4544  -2.0269 C.2            1 RES1               0.0000
      5 C5          27.0545   8.6498  -4.2384 C.3            1 RES1               0.0000
      6 C6          24.1395   8.5044  -5.3416 C.ar           1 RES1               0.0000
      7 C7          23.6699   7.5470  -3.2078 C.ar           1 RES1               0.0000
      8 N8          25.2939  11.1558  -2.3487 N.am           1 RES1               0.0000
      9 O9          25.5426  11.0931  -4.5872 O.2            1 RES1               0.0000
     10 N10         25.8184   9.3389  -0.9873 N.am           1 RES1               0.0000
     11 O11         26.1577   7.2707  -1.8002 O.2            1 RES1               0.0000
     12 C12         28.2753   9.4445  -3.8021 C.3            1 RES1               0.0000
     13 C13         22.9990   7.9121  -5.8580 C.ar           1 RES1               0.0000
     14 C14         22.5297   6.9557  -3.7262 C.ar           1 RES1               0.0000
     15 C15         25.4729  10.6594  -1.0825 C.2            1 RES1               0.0000
     16 C16         22.1937   7.1370  -5.0509 C.ar           1 RES1               0.0000
     17 O17         25.3306  11.3781  -0.0974 O.2            1 RES1               0.0000
     18 H18         27.2688   7.5804  -4.1208 H              1 RES1               0.0000
     19 H19         26.8716   8.8400  -5.3032 H              1 RES1               0.0000
     20 H20         24.7597   9.1129  -5.9913 H              1 RES1               0.0000
     21 H21         23.9140   7.3914  -2.1624 H              1 RES1               0.0000
     22 H22         24.9416  12.1048  -2.4235 H              1 RES1               0.0000
     23 H23         26.0034   8.9796  -0.0561 H              1 RES1               0.0000
     24 H24         29.1470   9.1667  -4.3909 H              1 RES1               0.0000
     25 H25         28.1065  10.5118  -3.9294 H              1 RES1               0.0000
     26 H26         28.5014   9.2597  -2.7540 H              1 RES1               0.0000
     27 H27         22.7382   8.0590  -6.9009 H              1 RES1               0.0000
     28 H28         21.8985   6.3471  -3.0872 H              1 RES1               0.0000
     29 H29         21.3005   6.6728  -5.4558 H              1 RES1               0.0000
@<TRIPOS>BOND
    1    1    2 1     
    2    1    3 1     
    3    1    4 1     
    4    1    5 1     
    5    2    6 ar    
    6    2    7 ar    
    7    3    8 1     
    8    3    9 2     
    9    4   10 1     
   10    4   11 2     
   11    5   12 1     
   12    5   18 1     
   13    5   19 1     
   14    6   13 ar    
   15    6   20 1     
   16    7   14 ar    
   17    7   21 1     
   18    8   15 1     
   19    8   22 1     
   20   10   15 1     
   21   10   23 1     
   22   12   24 1     
   23   12   25 1     
   24   12   26 1     
   25   13   16 ar    
   26   13   27 1     
   27   14   16 ar    
   28   14   28 1     
   29   15   17 2     
   30   16   29 1     
@<TRIPOS>SUBSTRUCTURE
      1 RES1           1
@<TRIPOS>SET
DONOR_HYDROGENS      STATIC     ATOMS    <user>   **** ""
2 22 23
ATOM$RED        STATIC     ATOMS    COLORGROUP SYSTEM
2 22 23
@<TRIPOS>COMMENT
> <Gold.Version>
2022.3.0

> <Gold.Id.Protein>
unknown|3nx8_clean|pdb

> <Gold.Protein.RotatedTorsions>
[  550  544  542  539 ] final   39.56 input   60.01 | X-H torsion
[ 2770 2763 2761 2758 ] final -139.45 input   60.01 | X-H torsion
[ 5056 5047 5046 5044 ] final  -10.11 input   59.99 | X-H torsion
[ 1860 1855 1854 1851 ] final   93.42 input   60.02 | X-H torsion
[  567  564  563  560 ] final  -19.44 input   60.03 | X-H torsion
[ 2460 2451 2450 2448 ] final   72.38 input   59.99 | X-H torsion
[ 2535 2524 2523 2522 ] final  103.92 input   60.02 | X-H torsion

> <Gold.Protein.ActiveResidues>
 THR48   LEU49   GLY50   THR51   GLY52   SER53   PHE54   GLY55   ARG56   VAL57  
 MET58   ALA70   LYS72   GLU91   VAL104  MET120  TYR122  VAL123  GLY126  GLU127 
 MET128  PHE129  SER130  TYR164  ASP166  LYS168  PRO169  GLU170  ASN171  LEU172 
 LEU173  GLN181  VAL182  THR183  ASP184  PHE185  GLY186  ASN326  PHE327  ASP328 
 TYR330 

> <Gold.Protein.RotatedAtoms>
   20.3869   10.7592   -4.9666 H   0  0  0  0  0  0  0  0  0  0  0  0  # atno 550  bound_to 544 
   22.1858    9.6076    2.6186 H   0  0  0  0  0  0  0  0  0  0  0  0  # atno 567  bound_to 564 
   26.6822    4.5564  -11.4331 H   0  0  0  0  0  0  0  0  0  0  0  0  # atno 1860 bound_to 1855
   27.3048    2.7665    2.5927 H   0  0  0  0  0  0  0  0  0  0  0  0  # atno 2460 bound_to 2451
   19.1737    4.2861   -0.1458 H   0  0  0  0  0  0  0  0  0  0  0  0  # atno 2535 bound_to 2524
   19.1674    4.8078   -1.7190 H   0  0  0  0  0  0  0  0  0  0  0  0  # atno 2536 bound_to 2524
   18.5441    3.3199   -1.3364 H   0  0  0  0  0  0  0  0  0  0  0  0  # atno 2537 bound_to 2524
   29.1001    8.6486   -0.1655 H   0  0  0  0  0  0  0  0  0  0  0  0  # atno 2770 bound_to 2763
   23.6604    9.9159   -9.9166 H   0  0  0  0  0  0  0  0  0  0  0  0  # atno 5056 bound_to 5047
   20.5164   11.7417   -6.2574 LP  0  0  0  0  0  0  0  0  0  0  0  0  # atno 5356 bound_to 544 
   19.2174   11.8484   -5.2736 LP  0  0  0  0  0  0  0  0  0  0  0  0  # atno 5357 bound_to 544 
   30.5648    8.5405    0.5362 LP  0  0  0  0  0  0  0  0  0  0  0  0  # atno 5378 bound_to 2763
   29.2259    8.1057    1.3637 LP  0  0  0  0  0  0  0  0  0  0  0  0  # atno 5379 bound_to 2763
   22.0412    9.8073   -9.7954 LP  0  0  0  0  0  0  0  0  0  0  0  0  # atno 5382 bound_to 5047
   22.9419   10.1311   -8.4724 LP  0  0  0  0  0  0  0  0  0  0  0  0  # atno 5383 bound_to 5047
   25.1566    4.4616  -11.9917 LP  0  0  0  0  0  0  0  0  0  0  0  0  # atno 5388 bound_to 1855
   26.2561    5.3887  -12.7651 LP  0  0  0  0  0  0  0  0  0  0  0  0  # atno 5389 bound_to 1855
   22.3180    8.6149    3.9017 LP  0  0  0  0  0  0  0  0  0  0  0  0  # atno 5398 bound_to 564 
   21.6903   10.1112    4.0849 LP  0  0  0  0  0  0  0  0  0  0  0  0  # atno 5399 bound_to 564 
   26.0096    3.5948    3.1266 LP  0  0  0  0  0  0  0  0  0  0  0  0  # atno 5400 bound_to 2451
   25.8076    2.2790    2.1809 LP  0  0  0  0  0  0  0  0  0  0  0  0  # atno 5401 bound_to 2451

> <Gold.Score>
     Fitness  S(hb_ext) S(vdw_ext)  S(hb_int)    S(int)      intcor
     37.45       0.00      29.60       0.00      -3.25      -0.77

> <Gold.Goldscore.Fitness>
37.4491

> <Gold.Goldscore.Internal.Vdw>
-3.5497

> <Gold.Goldscore.Internal.Torsion>
-0.4689

> <Gold.Goldscore.External.Vdw>
29.6018

> <Gold.Goldscore.Internal.HBond>
0.0000

> <Gold.Goldscore.External.HBond>
0.0000

> <Gold.Goldscore.Internal.Correction>
-0.7653

> <Gold.Goldscore.Internal.Vdw.Weighted>
-3.5497

> <Gold.Goldscore.Internal.Torsion.Weighted>
-0.4689

> <Gold.Goldscore.External.Vdw.Weighted>
40.7024

> <Gold.Goldscore.Internal.HBond.Weighted>
0.0000

> <Gold.Goldscore.External.HBond.Weighted>
0.0000

> <Gold.Goldscore.Internal.Correction.Weighted>
-0.7653

> <Gold.Rescore>
     Score     S(PLP)   S(hbond)     S(cho)   S(metal)  DE(clash)   DE(tors)     intcor
     10.44     -12.29       0.00       0.00       0.00       1.18       0.33       ----

> <Gold.PLP.Fitness>
10.4399

> <Gold.PLP.PLP>
-12.2920

> <Gold.PLP.part.hbond>
-1.0000

> <Gold.PLP.part.metal>
0.0000

> <Gold.PLP.part.buried>
16.5778

> <Gold.PLP.part.nonpolar>
-34.0110

> <Gold.PLP.part.repulsive>
4.2303

> <Gold.PLP.ligand.clash>
1.1839

> <Gold.PLP.ligand.torsion>
0.3341

> <Gold.PLP.Chemscore.Hbond>
0.0000

> <Gold.PLP.Chemscore.CHOScore>
0.0000

> <Gold.PLP.Chemscore.Metal>
0.0000

> <Gold.PLP.Chemscore.Internal.Correction>
   9.000000E+99

