#       Name:                GA Fitting Points
#       Creating user name   hitesit
#       Creation time:       Sun Apr 16 02:21:33 2023


#       Fitting Points Used by GA Software.
#

@<TRIPOS>MOLECULE
GA Fitting Points
   886    0    0
SMALL
NO_CHARGES


@<TRIPOS>ATOM
      1 ****        21.0000  15.7500 -21.2500 Du        
      2 ****        21.0000  15.7500 -21.0000 Du        
      3 ****        21.0000  16.0000 -21.5000 Du        
      4 ****        21.0000  16.0000 -21.2500 Du        
      5 ****        21.0000  16.0000 -21.0000 Du        
      6 ****        21.0000  16.0000 -20.7500 Du        
      7 ****        21.0000  16.2500 -21.5000 Du        
      8 ****        21.0000  16.2500 -21.2500 Du        
      9 ****        21.0000  16.2500 -21.0000 Du        
     10 ****        21.0000  16.2500 -20.7500 Du        
     11 ****        21.0000  16.2500 -20.5000 Du        
     12 ****        21.0000  16.5000 -21.5000 Du        
     13 ****        21.0000  16.5000 -21.2500 Du        
     14 ****        21.0000  16.5000 -21.0000 Du        
     15 ****        21.0000  16.5000 -20.7500 Du        
     16 ****        21.0000  16.5000 -20.5000 Du        
     17 ****        21.0000  16.5000 -20.2500 Du        
     18 ****        21.0000  16.5000 -20.0000 Du        
     19 ****        21.0000  16.7500 -21.5000 Du        
     20 ****        21.0000  16.7500 -21.2500 Du        
     21 ****        21.0000  16.7500 -21.0000 Du        
     22 ****        21.0000  16.7500 -20.7500 Du        
     23 ****        21.0000  16.7500 -20.5000 Du        
     24 ****        21.0000  16.7500 -20.2500 Du        
     25 ****        21.0000  16.7500 -20.0000 Du        
     26 ****        21.0000  16.7500 -19.7500 Du        
     27 ****        21.0000  16.7500 -19.5000 Du        
     28 ****        21.0000  17.0000 -21.5000 Du        
     29 ****        21.0000  17.0000 -21.2500 Du        
     30 ****        21.0000  17.0000 -21.0000 Du        
     31 ****        21.0000  17.0000 -20.7500 Du        
     32 ****        21.0000  17.0000 -20.5000 Du        
     33 ****        21.0000  17.0000 -20.2500 Du        
     34 ****        21.0000  17.0000 -20.0000 Du        
     35 ****        21.0000  17.0000 -19.7500 Du        
     36 ****        21.0000  17.0000 -19.5000 Du        
     37 ****        21.0000  17.0000 -19.2500 Du        
     38 ****        21.0000  17.2500 -21.5000 Du        
     39 ****        21.0000  17.2500 -21.2500 Du        
     40 ****        21.0000  17.2500 -21.0000 Du        
     41 ****        21.0000  17.2500 -20.7500 Du        
     42 ****        21.0000  17.2500 -20.5000 Du        
     43 ****        21.0000  17.2500 -20.2500 Du        
     44 ****        21.0000  17.2500 -20.0000 Du        
     45 ****        21.0000  17.2500 -19.7500 Du        
     46 ****        21.0000  17.2500 -19.5000 Du        
     47 ****        21.0000  17.2500 -19.2500 Du        
     48 ****        21.0000  17.5000 -21.2500 Du        
     49 ****        21.0000  17.5000 -21.0000 Du        
     50 ****        21.0000  17.5000 -20.7500 Du        
     51 ****        21.0000  17.5000 -20.5000 Du        
     52 ****        21.0000  17.5000 -20.2500 Du        
     53 ****        21.0000  17.5000 -20.0000 Du        
     54 ****        21.0000  17.5000 -19.7500 Du        
     55 ****        21.0000  17.7500 -21.2500 Du        
     56 ****        21.0000  17.7500 -21.0000 Du        
     57 ****        21.0000  17.7500 -20.7500 Du        
     58 ****        21.0000  17.7500 -20.5000 Du        
     59 ****        21.0000  17.7500 -20.2500 Du        
     60 ****        21.2500  16.2500 -21.2500 Du        
     61 ****        21.2500  16.2500 -21.0000 Du        
     62 ****        21.2500  16.2500 -20.7500 Du        
     63 ****        21.2500  16.5000 -21.2500 Du        
     64 ****        21.2500  16.5000 -21.0000 Du        
     65 ****        21.2500  16.5000 -20.7500 Du        
     66 ****        21.2500  16.5000 -20.5000 Du        
     67 ****        21.2500  16.7500 -21.2500 Du        
     68 ****        21.2500  16.7500 -21.0000 Du        
     69 ****        21.2500  16.7500 -20.7500 Du        
     70 ****        21.2500  16.7500 -20.5000 Du        
     71 ****        21.2500  16.7500 -20.2500 Du        
     72 ****        21.2500  16.7500 -20.0000 Du        
     73 ****        21.2500  17.0000 -21.2500 Du        
     74 ****        21.2500  17.0000 -21.0000 Du        
     75 ****        21.2500  17.0000 -20.7500 Du        
     76 ****        21.2500  17.0000 -20.5000 Du        
     77 ****        21.2500  17.0000 -20.2500 Du        
     78 ****        21.2500  17.0000 -20.0000 Du        
     79 ****        21.2500  17.0000 -19.7500 Du        
     80 ****        21.2500  17.2500 -21.2500 Du        
     81 ****        21.2500  17.2500 -21.0000 Du        
     82 ****        21.2500  17.2500 -20.7500 Du        
     83 ****        21.2500  17.2500 -20.5000 Du        
     84 ****        21.2500  17.2500 -20.2500 Du        
     85 ****        21.2500  17.2500 -20.0000 Du        
     86 ****        21.2500  17.2500 -19.7500 Du        
     87 ****        21.2500  17.5000 -21.0000 Du        
     88 ****        21.2500  17.5000 -20.7500 Du        
     89 ****        21.2500  17.5000 -20.5000 Du        
     90 ****        21.2500  17.5000 -20.2500 Du        
     91 ****        21.2500  17.5000 -20.0000 Du        
     92 ****        21.5000  16.7500 -21.0000 Du        
     93 ****        21.5000  16.7500 -20.7500 Du        
     94 ****        21.5000  16.7500 -20.5000 Du        
     95 ****        21.5000  17.0000 -20.7500 Du        
     96 ****        21.5000  17.0000 -20.5000 Du        
     97 ****        21.5000  17.0000 -20.2500 Du        
     98 ****        21.5000  17.2500 -20.7500 Du        
     99 ****        21.5000  17.2500 -20.5000 Du        
    100 ****        21.5000  17.2500 -20.2500 Du        
    101 ****        21.5000  17.2500 -20.0000 Du        
    102 ****        22.7500  18.2500 -14.2500 Du        
    103 ****        23.0000  18.0000 -13.7500 Du        
    104 ****        23.0000  18.2500 -14.2500 Du        
    105 ****        23.0000  18.2500 -14.0000 Du        
    106 ****        23.0000  18.2500 -13.7500 Du        
    107 ****        23.0000  18.2500 -13.5000 Du        
    108 ****        23.0000  18.2500 -13.2500 Du        
    109 ****        23.0000  18.5000 -14.0000 Du        
    110 ****        23.0000  18.5000 -13.7500 Du        
    111 ****        23.0000  18.7500 -14.0000 Du        
    112 ****        23.0000  18.7500 -13.7500 Du        
    113 ****        23.0000  19.0000 -13.7500 Du        
    114 ****        23.2500  17.7500 -13.2500 Du        
    115 ****        23.2500  17.7500 -13.0000 Du        
    116 ****        23.2500  17.7500 -12.7500 Du        
    117 ****        23.2500  18.0000 -14.2500 Du        
    118 ****        23.2500  18.0000 -14.0000 Du        
    119 ****        23.2500  18.0000 -13.7500 Du        
    120 ****        23.2500  18.0000 -13.5000 Du        
    121 ****        23.2500  18.0000 -13.2500 Du        
    122 ****        23.2500  18.0000 -13.0000 Du        
    123 ****        23.2500  18.0000 -12.7500 Du        
    124 ****        23.2500  18.2500 -14.2500 Du        
    125 ****        23.2500  18.2500 -14.0000 Du        
    126 ****        23.2500  18.2500 -13.7500 Du        
    127 ****        23.2500  18.2500 -13.5000 Du        
    128 ****        23.2500  18.2500 -13.2500 Du        
    129 ****        23.2500  18.2500 -13.0000 Du        
    130 ****        23.2500  18.2500 -12.7500 Du        
    131 ****        23.2500  18.5000 -14.0000 Du        
    132 ****        23.2500  18.5000 -13.7500 Du        
    133 ****        23.2500  18.5000 -13.2500 Du        
    134 ****        23.2500  18.5000 -13.0000 Du        
    135 ****        23.2500  18.7500 -14.0000 Du        
    136 ****        23.2500  18.7500 -13.7500 Du        
    137 ****        23.2500  18.7500 -13.5000 Du        
    138 ****        23.2500  18.7500 -13.0000 Du        
    139 ****        23.2500  19.0000 -13.7500 Du        
    140 ****        23.5000  17.0000 -12.0000 Du        
    141 ****        23.5000  17.0000 -11.7500 Du        
    142 ****        23.5000  17.2500 -12.7500 Du        
    143 ****        23.5000  17.2500 -12.5000 Du        
    144 ****        23.5000  17.2500 -12.2500 Du        
    145 ****        23.5000  17.2500 -12.0000 Du        
    146 ****        23.5000  17.2500 -11.7500 Du        
    147 ****        23.5000  17.5000 -13.2500 Du        
    148 ****        23.5000  17.5000 -13.0000 Du        
    149 ****        23.5000  17.5000 -12.7500 Du        
    150 ****        23.5000  17.5000 -12.5000 Du        
    151 ****        23.5000  17.5000 -12.2500 Du        
    152 ****        23.5000  17.5000 -12.0000 Du        
    153 ****        23.5000  17.5000 -11.7500 Du        
    154 ****        23.5000  17.7500 -14.2500 Du        
    155 ****        23.5000  17.7500 -14.0000 Du        
    156 ****        23.5000  17.7500 -13.7500 Du        
    157 ****        23.5000  17.7500 -13.5000 Du        
    158 ****        23.5000  17.7500 -13.2500 Du        
    159 ****        23.5000  17.7500 -13.0000 Du        
    160 ****        23.5000  17.7500 -12.7500 Du        
    161 ****        23.5000  17.7500 -12.5000 Du        
    162 ****        23.5000  17.7500 -12.2500 Du        
    163 ****        23.5000  17.7500 -12.0000 Du        
    164 ****        23.5000  17.7500 -11.7500 Du        
    165 ****        23.5000  18.0000 -14.2500 Du        
    166 ****        23.5000  18.0000 -14.0000 Du        
    167 ****        23.5000  18.0000 -13.7500 Du        
    168 ****        23.5000  18.0000 -13.5000 Du        
    169 ****        23.5000  18.0000 -13.2500 Du        
    170 ****        23.5000  18.0000 -13.0000 Du        
    171 ****        23.5000  18.0000 -12.7500 Du        
    172 ****        23.5000  18.0000 -12.5000 Du        
    173 ****        23.5000  18.0000 -12.2500 Du        
    174 ****        23.5000  18.0000 -12.0000 Du        
    175 ****        23.5000  18.0000 -11.7500 Du        
    176 ****        23.5000  18.2500 -14.2500 Du        
    177 ****        23.5000  18.2500 -14.0000 Du        
    178 ****        23.5000  18.2500 -13.7500 Du        
    179 ****        23.5000  18.2500 -13.5000 Du        
    180 ****        23.5000  18.2500 -13.2500 Du        
    181 ****        23.5000  18.2500 -13.0000 Du        
    182 ****        23.5000  18.2500 -12.7500 Du        
    183 ****        23.5000  18.2500 -12.5000 Du        
    184 ****        23.5000  18.2500 -12.2500 Du        
    185 ****        23.5000  18.2500 -12.0000 Du        
    186 ****        23.5000  18.2500 -11.7500 Du        
    187 ****        23.5000  18.5000 -14.0000 Du        
    188 ****        23.5000  18.5000 -13.7500 Du        
    189 ****        23.5000  18.5000 -13.5000 Du        
    190 ****        23.5000  18.5000 -13.2500 Du        
    191 ****        23.5000  18.5000 -13.0000 Du        
    192 ****        23.5000  18.5000 -12.7500 Du        
    193 ****        23.5000  18.5000 -12.2500 Du        
    194 ****        23.5000  18.5000 -12.0000 Du        
    195 ****        23.5000  18.7500 -14.0000 Du        
    196 ****        23.5000  18.7500 -13.7500 Du        
    197 ****        23.5000  18.7500 -13.5000 Du        
    198 ****        23.5000  18.7500 -13.2500 Du        
    199 ****        23.5000  18.7500 -13.0000 Du        
    200 ****        23.5000  18.7500 -12.7500 Du        
    201 ****        23.5000  18.7500 -12.2500 Du        
    202 ****        23.5000  19.0000 -13.7500 Du        
    203 ****        23.5000  19.0000 -13.5000 Du        
    204 ****        23.5000  19.0000 -13.2500 Du        
    205 ****        23.5000  19.0000 -13.0000 Du        
    206 ****        23.5000  19.0000 -12.7500 Du        
    207 ****        23.5000  19.0000 -12.2500 Du        
    208 ****        23.5000  19.2500 -13.7500 Du        
    209 ****        23.5000  19.2500 -13.5000 Du        
    210 ****        23.5000  19.2500 -13.2500 Du        
    211 ****        23.5000  19.2500 -13.0000 Du        
    212 ****        23.5000  19.2500 -12.7500 Du        
    213 ****        23.5000  19.5000 -13.2500 Du        
    214 ****        23.5000  19.5000 -13.0000 Du        
    215 ****        23.5000  19.5000 -12.7500 Du        
    216 ****        23.5000  19.7500 -13.2500 Du        
    217 ****        23.5000  19.7500 -13.0000 Du        
    218 ****        23.7500  16.7500 -12.0000 Du        
    219 ****        23.7500  16.7500 -11.7500 Du        
    220 ****        23.7500  17.0000 -12.2500 Du        
    221 ****        23.7500  17.0000 -12.0000 Du        
    222 ****        23.7500  17.0000 -11.7500 Du        
    223 ****        23.7500  17.2500 -13.2500 Du        
    224 ****        23.7500  17.2500 -13.0000 Du        
    225 ****        23.7500  17.2500 -12.7500 Du        
    226 ****        23.7500  17.2500 -12.5000 Du        
    227 ****        23.7500  17.2500 -12.2500 Du        
    228 ****        23.7500  17.2500 -12.0000 Du        
    229 ****        23.7500  17.2500 -11.7500 Du        
    230 ****        23.7500  17.5000 -13.7500 Du        
    231 ****        23.7500  17.5000 -13.5000 Du        
    232 ****        23.7500  17.5000 -13.2500 Du        
    233 ****        23.7500  17.5000 -13.0000 Du        
    234 ****        23.7500  17.5000 -12.7500 Du        
    235 ****        23.7500  17.5000 -12.5000 Du        
    236 ****        23.7500  17.5000 -12.2500 Du        
    237 ****        23.7500  17.5000 -12.0000 Du        
    238 ****        23.7500  17.5000 -11.7500 Du        
    239 ****        23.7500  17.7500 -14.2500 Du        
    240 ****        23.7500  17.7500 -14.0000 Du        
    241 ****        23.7500  17.7500 -13.7500 Du        
    242 ****        23.7500  17.7500 -13.5000 Du        
    243 ****        23.7500  17.7500 -13.2500 Du        
    244 ****        23.7500  17.7500 -13.0000 Du        
    245 ****        23.7500  17.7500 -12.7500 Du        
    246 ****        23.7500  17.7500 -12.5000 Du        
    247 ****        23.7500  17.7500 -12.2500 Du        
    248 ****        23.7500  17.7500 -12.0000 Du        
    249 ****        23.7500  17.7500 -11.7500 Du        
    250 ****        23.7500  17.7500 -11.5000 Du        
    251 ****        23.7500  18.0000 -14.2500 Du        
    252 ****        23.7500  18.0000 -14.0000 Du        
    253 ****        23.7500  18.0000 -13.7500 Du        
    254 ****        23.7500  18.0000 -13.5000 Du        
    255 ****        23.7500  18.0000 -13.2500 Du        
    256 ****        23.7500  18.0000 -13.0000 Du        
    257 ****        23.7500  18.0000 -12.7500 Du        
    258 ****        23.7500  18.0000 -12.5000 Du        
    259 ****        23.7500  18.0000 -12.2500 Du        
    260 ****        23.7500  18.0000 -12.0000 Du        
    261 ****        23.7500  18.0000 -11.7500 Du        
    262 ****        23.7500  18.0000 -11.5000 Du        
    263 ****        23.7500  18.2500 -14.2500 Du        
    264 ****        23.7500  18.2500 -14.0000 Du        
    265 ****        23.7500  18.2500 -13.7500 Du        
    266 ****        23.7500  18.2500 -13.5000 Du        
    267 ****        23.7500  18.2500 -13.2500 Du        
    268 ****        23.7500  18.2500 -13.0000 Du        
    269 ****        23.7500  18.2500 -12.7500 Du        
    270 ****        23.7500  18.2500 -12.5000 Du        
    271 ****        23.7500  18.2500 -12.2500 Du        
    272 ****        23.7500  18.2500 -12.0000 Du        
    273 ****        23.7500  18.2500 -11.7500 Du        
    274 ****        23.7500  18.2500 -11.5000 Du        
    275 ****        23.7500  18.5000 -14.0000 Du        
    276 ****        23.7500  18.5000 -13.7500 Du        
    277 ****        23.7500  18.5000 -13.5000 Du        
    278 ****        23.7500  18.5000 -13.2500 Du        
    279 ****        23.7500  18.5000 -13.0000 Du        
    280 ****        23.7500  18.5000 -12.7500 Du        
    281 ****        23.7500  18.5000 -12.5000 Du        
    282 ****        23.7500  18.5000 -12.2500 Du        
    283 ****        23.7500  18.5000 -12.0000 Du        
    284 ****        23.7500  18.5000 -11.7500 Du        
    285 ****        23.7500  18.7500 -14.0000 Du        
    286 ****        23.7500  18.7500 -13.7500 Du        
    287 ****        23.7500  18.7500 -13.5000 Du        
    288 ****        23.7500  18.7500 -13.2500 Du        
    289 ****        23.7500  18.7500 -13.0000 Du        
    290 ****        23.7500  18.7500 -12.7500 Du        
    291 ****        23.7500  18.7500 -12.5000 Du        
    292 ****        23.7500  18.7500 -12.2500 Du        
    293 ****        23.7500  18.7500 -12.0000 Du        
    294 ****        23.7500  18.7500 -11.7500 Du        
    295 ****        23.7500  19.0000 -13.7500 Du        
    296 ****        23.7500  19.0000 -13.5000 Du        
    297 ****        23.7500  19.0000 -13.2500 Du        
    298 ****        23.7500  19.0000 -13.0000 Du        
    299 ****        23.7500  19.0000 -12.7500 Du        
    300 ****        23.7500  19.0000 -12.5000 Du        
    301 ****        23.7500  19.0000 -12.2500 Du        
    302 ****        23.7500  19.0000 -12.0000 Du        
    303 ****        23.7500  19.2500 -13.5000 Du        
    304 ****        23.7500  19.2500 -13.2500 Du        
    305 ****        23.7500  19.2500 -13.0000 Du        
    306 ****        23.7500  19.2500 -12.7500 Du        
    307 ****        23.7500  19.2500 -12.5000 Du        
    308 ****        23.7500  19.2500 -12.2500 Du        
    309 ****        23.7500  19.5000 -13.5000 Du        
    310 ****        23.7500  19.5000 -13.2500 Du        
    311 ****        23.7500  19.5000 -13.0000 Du        
    312 ****        23.7500  19.5000 -12.7500 Du        
    313 ****        23.7500  19.7500 -13.2500 Du        
    314 ****        23.7500  19.7500 -13.0000 Du        
    315 ****        23.7500  19.7500 -12.7500 Du        
    316 ****        23.7500  20.0000 -13.2500 Du        
    317 ****        24.0000  16.7500 -11.7500 Du        
    318 ****        24.0000  17.0000 -12.2500 Du        
    319 ****        24.0000  17.0000 -12.0000 Du        
    320 ****        24.0000  17.0000 -11.7500 Du        
    321 ****        24.0000  17.0000 -11.5000 Du        
    322 ****        24.0000  17.0000 -11.2500 Du        
    323 ****        24.0000  17.0000 -11.0000 Du        
    324 ****        24.0000  17.2500 -13.0000 Du        
    325 ****        24.0000  17.2500 -12.7500 Du        
    326 ****        24.0000  17.2500 -12.5000 Du        
    327 ****        24.0000  17.2500 -12.2500 Du        
    328 ****        24.0000  17.2500 -12.0000 Du        
    329 ****        24.0000  17.2500 -11.7500 Du        
    330 ****        24.0000  17.2500 -11.5000 Du        
    331 ****        24.0000  17.2500 -11.2500 Du        
    332 ****        24.0000  17.2500 -11.0000 Du        
    333 ****        24.0000  17.2500 -10.7500 Du        
    334 ****        24.0000  17.5000 -13.7500 Du        
    335 ****        24.0000  17.5000 -13.5000 Du        
    336 ****        24.0000  17.5000 -13.2500 Du        
    337 ****        24.0000  17.5000 -13.0000 Du        
    338 ****        24.0000  17.5000 -12.7500 Du        
    339 ****        24.0000  17.5000 -12.5000 Du        
    340 ****        24.0000  17.5000 -12.2500 Du        
    341 ****        24.0000  17.5000 -12.0000 Du        
    342 ****        24.0000  17.5000 -11.7500 Du        
    343 ****        24.0000  17.5000 -11.5000 Du        
    344 ****        24.0000  17.5000 -11.2500 Du        
    345 ****        24.0000  17.5000 -11.0000 Du        
    346 ****        24.0000  17.5000 -10.7500 Du        
    347 ****        24.0000  17.7500 -14.2500 Du        
    348 ****        24.0000  17.7500 -14.0000 Du        
    349 ****        24.0000  17.7500 -13.7500 Du        
    350 ****        24.0000  17.7500 -13.5000 Du        
    351 ****        24.0000  17.7500 -13.2500 Du        
    352 ****        24.0000  17.7500 -13.0000 Du        
    353 ****        24.0000  17.7500 -12.7500 Du        
    354 ****        24.0000  17.7500 -12.5000 Du        
    355 ****        24.0000  17.7500 -12.2500 Du        
    356 ****        24.0000  17.7500 -12.0000 Du        
    357 ****        24.0000  17.7500 -11.7500 Du        
    358 ****        24.0000  17.7500 -11.5000 Du        
    359 ****        24.0000  17.7500 -11.2500 Du        
    360 ****        24.0000  17.7500 -11.0000 Du        
    361 ****        24.0000  17.7500 -10.7500 Du        
    362 ****        24.0000  18.0000 -14.2500 Du        
    363 ****        24.0000  18.0000 -14.0000 Du        
    364 ****        24.0000  18.0000 -13.7500 Du        
    365 ****        24.0000  18.0000 -13.5000 Du        
    366 ****        24.0000  18.0000 -13.2500 Du        
    367 ****        24.0000  18.0000 -13.0000 Du        
    368 ****        24.0000  18.0000 -12.7500 Du        
    369 ****        24.0000  18.0000 -12.5000 Du        
    370 ****        24.0000  18.0000 -12.2500 Du        
    371 ****        24.0000  18.0000 -12.0000 Du        
    372 ****        24.0000  18.0000 -11.7500 Du        
    373 ****        24.0000  18.0000 -11.5000 Du        
    374 ****        24.0000  18.0000 -11.2500 Du        
    375 ****        24.0000  18.0000 -11.0000 Du        
    376 ****        24.0000  18.0000 -10.7500 Du        
    377 ****        24.0000  18.2500 -14.0000 Du        
    378 ****        24.0000  18.2500 -13.7500 Du        
    379 ****        24.0000  18.2500 -13.5000 Du        
    380 ****        24.0000  18.2500 -13.2500 Du        
    381 ****        24.0000  18.2500 -13.0000 Du        
    382 ****        24.0000  18.2500 -12.7500 Du        
    383 ****        24.0000  18.2500 -12.5000 Du        
    384 ****        24.0000  18.2500 -12.2500 Du        
    385 ****        24.0000  18.2500 -12.0000 Du        
    386 ****        24.0000  18.2500 -11.7500 Du        
    387 ****        24.0000  18.2500 -11.5000 Du        
    388 ****        24.0000  18.2500 -11.2500 Du        
    389 ****        24.0000  18.5000 -14.0000 Du        
    390 ****        24.0000  18.5000 -13.7500 Du        
    391 ****        24.0000  18.5000 -13.5000 Du        
    392 ****        24.0000  18.5000 -13.2500 Du        
    393 ****        24.0000  18.5000 -13.0000 Du        
    394 ****        24.0000  18.5000 -12.7500 Du        
    395 ****        24.0000  18.5000 -12.5000 Du        
    396 ****        24.0000  18.5000 -12.2500 Du        
    397 ****        24.0000  18.5000 -12.0000 Du        
    398 ****        24.0000  18.5000 -11.7500 Du        
    399 ****        24.0000  18.7500 -13.7500 Du        
    400 ****        24.0000  18.7500 -13.5000 Du        
    401 ****        24.0000  18.7500 -13.2500 Du        
    402 ****        24.0000  18.7500 -13.0000 Du        
    403 ****        24.0000  18.7500 -12.7500 Du        
    404 ****        24.0000  18.7500 -12.5000 Du        
    405 ****        24.0000  18.7500 -12.2500 Du        
    406 ****        24.0000  18.7500 -12.0000 Du        
    407 ****        24.0000  18.7500 -11.7500 Du        
    408 ****        24.0000  19.0000 -13.7500 Du        
    409 ****        24.0000  19.0000 -13.5000 Du        
    410 ****        24.0000  19.0000 -13.2500 Du        
    411 ****        24.0000  19.0000 -13.0000 Du        
    412 ****        24.0000  19.0000 -12.7500 Du        
    413 ****        24.0000  19.0000 -12.5000 Du        
    414 ****        24.0000  19.0000 -12.2500 Du        
    415 ****        24.0000  19.0000 -12.0000 Du        
    416 ****        24.0000  19.2500 -13.5000 Du        
    417 ****        24.0000  19.2500 -13.2500 Du        
    418 ****        24.0000  19.2500 -13.0000 Du        
    419 ****        24.0000  19.2500 -12.7500 Du        
    420 ****        24.0000  19.2500 -12.5000 Du        
    421 ****        24.0000  19.2500 -12.2500 Du        
    422 ****        24.0000  19.5000 -13.2500 Du        
    423 ****        24.0000  19.5000 -13.0000 Du        
    424 ****        24.0000  19.5000 -12.7500 Du        
    425 ****        24.0000  19.7500 -13.2500 Du        
    426 ****        24.0000  19.7500 -13.0000 Du        
    427 ****        24.0000  20.0000 -13.2500 Du        
    428 ****        24.2500  16.7500 -11.2500 Du        
    429 ****        24.2500  16.7500 -11.0000 Du        
    430 ****        24.2500  16.7500 -10.7500 Du        
    431 ****        24.2500  17.0000 -12.0000 Du        
    432 ****        24.2500  17.0000 -11.7500 Du        
    433 ****        24.2500  17.0000 -11.5000 Du        
    434 ****        24.2500  17.0000 -11.2500 Du        
    435 ****        24.2500  17.0000 -11.0000 Du        
    436 ****        24.2500  17.0000 -10.7500 Du        
    437 ****        24.2500  17.2500 -12.5000 Du        
    438 ****        24.2500  17.2500 -12.2500 Du        
    439 ****        24.2500  17.2500 -12.0000 Du        
    440 ****        24.2500  17.2500 -11.7500 Du        
    441 ****        24.2500  17.2500 -11.5000 Du        
    442 ****        24.2500  17.2500 -11.2500 Du        
    443 ****        24.2500  17.2500 -11.0000 Du        
    444 ****        24.2500  17.2500 -10.7500 Du        
    445 ****        24.2500  17.5000 -13.2500 Du        
    446 ****        24.2500  17.5000 -13.0000 Du        
    447 ****        24.2500  17.5000 -12.7500 Du        
    448 ****        24.2500  17.5000 -12.5000 Du        
    449 ****        24.2500  17.5000 -12.2500 Du        
    450 ****        24.2500  17.5000 -12.0000 Du        
    451 ****        24.2500  17.5000 -11.7500 Du        
    452 ****        24.2500  17.5000 -11.5000 Du        
    453 ****        24.2500  17.5000 -11.2500 Du        
    454 ****        24.2500  17.5000 -11.0000 Du        
    455 ****        24.2500  17.5000 -10.7500 Du        
    456 ****        24.2500  17.7500 -14.0000 Du        
    457 ****        24.2500  17.7500 -13.7500 Du        
    458 ****        24.2500  17.7500 -13.5000 Du        
    459 ****        24.2500  17.7500 -13.2500 Du        
    460 ****        24.2500  17.7500 -13.0000 Du        
    461 ****        24.2500  17.7500 -12.7500 Du        
    462 ****        24.2500  17.7500 -12.5000 Du        
    463 ****        24.2500  17.7500 -12.2500 Du        
    464 ****        24.2500  17.7500 -12.0000 Du        
    465 ****        24.2500  17.7500 -11.7500 Du        
    466 ****        24.2500  17.7500 -11.5000 Du        
    467 ****        24.2500  17.7500 -11.2500 Du        
    468 ****        24.2500  17.7500 -11.0000 Du        
    469 ****        24.2500  17.7500 -10.7500 Du        
    470 ****        24.2500  18.0000 -14.0000 Du        
    471 ****        24.2500  18.0000 -13.7500 Du        
    472 ****        24.2500  18.0000 -13.5000 Du        
    473 ****        24.2500  18.0000 -13.2500 Du        
    474 ****        24.2500  18.0000 -13.0000 Du        
    475 ****        24.2500  18.0000 -12.7500 Du        
    476 ****        24.2500  18.0000 -12.5000 Du        
    477 ****        24.2500  18.0000 -12.2500 Du        
    478 ****        24.2500  18.0000 -12.0000 Du        
    479 ****        24.2500  18.0000 -11.7500 Du        
    480 ****        24.2500  18.0000 -11.5000 Du        
    481 ****        24.2500  18.0000 -11.2500 Du        
    482 ****        24.2500  18.0000 -11.0000 Du        
    483 ****        24.2500  18.0000 -10.7500 Du        
    484 ****        24.2500  18.2500 -14.0000 Du        
    485 ****        24.2500  18.2500 -13.7500 Du        
    486 ****        24.2500  18.2500 -13.5000 Du        
    487 ****        24.2500  18.2500 -13.2500 Du        
    488 ****        24.2500  18.2500 -13.0000 Du        
    489 ****        24.2500  18.2500 -12.7500 Du        
    490 ****        24.2500  18.2500 -12.5000 Du        
    491 ****        24.2500  18.2500 -12.2500 Du        
    492 ****        24.2500  18.2500 -12.0000 Du        
    493 ****        24.2500  18.2500 -11.7500 Du        
    494 ****        24.2500  18.2500 -11.5000 Du        
    495 ****        24.2500  18.2500 -11.2500 Du        
    496 ****        24.2500  18.2500 -11.0000 Du        
    497 ****        24.2500  18.5000 -13.7500 Du        
    498 ****        24.2500  18.5000 -13.5000 Du        
    499 ****        24.2500  18.5000 -13.2500 Du        
    500 ****        24.2500  18.5000 -13.0000 Du        
    501 ****        24.2500  18.5000 -12.7500 Du        
    502 ****        24.2500  18.5000 -12.5000 Du        
    503 ****        24.2500  18.5000 -12.2500 Du        
    504 ****        24.2500  18.5000 -12.0000 Du        
    505 ****        24.2500  18.5000 -11.7500 Du        
    506 ****        24.2500  18.7500 -13.7500 Du        
    507 ****        24.2500  18.7500 -13.5000 Du        
    508 ****        24.2500  18.7500 -13.2500 Du        
    509 ****        24.2500  18.7500 -13.0000 Du        
    510 ****        24.2500  18.7500 -12.7500 Du        
    511 ****        24.2500  18.7500 -12.5000 Du        
    512 ****        24.2500  18.7500 -12.2500 Du        
    513 ****        24.2500  18.7500 -12.0000 Du        
    514 ****        24.2500  18.7500 -11.7500 Du        
    515 ****        24.2500  19.0000 -13.5000 Du        
    516 ****        24.2500  19.0000 -13.2500 Du        
    517 ****        24.2500  19.0000 -13.0000 Du        
    518 ****        24.2500  19.0000 -12.7500 Du        
    519 ****        24.2500  19.0000 -12.5000 Du        
    520 ****        24.2500  19.0000 -12.2500 Du        
    521 ****        24.2500  19.2500 -13.5000 Du        
    522 ****        24.2500  19.2500 -13.2500 Du        
    523 ****        24.2500  19.2500 -13.0000 Du        
    524 ****        24.2500  19.2500 -12.7500 Du        
    525 ****        24.2500  19.2500 -12.5000 Du        
    526 ****        24.2500  19.5000 -13.2500 Du        
    527 ****        24.2500  19.5000 -13.0000 Du        
    528 ****        24.5000  16.2500 -10.7500 Du        
    529 ****        24.5000  16.5000 -11.0000 Du        
    530 ****        24.5000  16.5000 -10.7500 Du        
    531 ****        24.5000  16.7500 -11.2500 Du        
    532 ****        24.5000  16.7500 -11.0000 Du        
    533 ****        24.5000  16.7500 -10.7500 Du        
    534 ****        24.5000  16.7500 -10.5000 Du        
    535 ****        24.5000  16.7500 -10.2500 Du        
    536 ****        24.5000  17.0000 -11.7500 Du        
    537 ****        24.5000  17.0000 -11.5000 Du        
    538 ****        24.5000  17.0000 -11.2500 Du        
    539 ****        24.5000  17.0000 -11.0000 Du        
    540 ****        24.5000  17.0000 -10.7500 Du        
    541 ****        24.5000  17.0000 -10.5000 Du        
    542 ****        24.5000  17.0000 -10.2500 Du        
    543 ****        24.5000  17.2500 -12.0000 Du        
    544 ****        24.5000  17.2500 -11.7500 Du        
    545 ****        24.5000  17.2500 -11.5000 Du        
    546 ****        24.5000  17.2500 -11.2500 Du        
    547 ****        24.5000  17.2500 -11.0000 Du        
    548 ****        24.5000  17.2500 -10.7500 Du        
    549 ****        24.5000  17.2500 -10.5000 Du        
    550 ****        24.5000  17.2500 -10.2500 Du        
    551 ****        24.5000  17.5000 -12.2500 Du        
    552 ****        24.5000  17.5000 -12.0000 Du        
    553 ****        24.5000  17.5000 -11.7500 Du        
    554 ****        24.5000  17.5000 -11.5000 Du        
    555 ****        24.5000  17.5000 -11.2500 Du        
    556 ****        24.5000  17.5000 -11.0000 Du        
    557 ****        24.5000  17.5000 -10.7500 Du        
    558 ****        24.5000  17.5000 -10.5000 Du        
    559 ****        24.5000  17.7500 -13.0000 Du        
    560 ****        24.5000  17.7500 -12.7500 Du        
    561 ****        24.5000  17.7500 -12.5000 Du        
    562 ****        24.5000  17.7500 -12.2500 Du        
    563 ****        24.5000  17.7500 -12.0000 Du        
    564 ****        24.5000  17.7500 -11.7500 Du        
    565 ****        24.5000  17.7500 -11.5000 Du        
    566 ****        24.5000  17.7500 -11.2500 Du        
    567 ****        24.5000  17.7500 -11.0000 Du        
    568 ****        24.5000  17.7500 -10.7500 Du        
    569 ****        24.5000  18.0000 -13.5000 Du        
    570 ****        24.5000  18.0000 -13.2500 Du        
    571 ****        24.5000  18.0000 -13.0000 Du        
    572 ****        24.5000  18.0000 -12.7500 Du        
    573 ****        24.5000  18.0000 -12.5000 Du        
    574 ****        24.5000  18.0000 -12.2500 Du        
    575 ****        24.5000  18.0000 -12.0000 Du        
    576 ****        24.5000  18.0000 -11.7500 Du        
    577 ****        24.5000  18.0000 -11.5000 Du        
    578 ****        24.5000  18.0000 -11.2500 Du        
    579 ****        24.5000  18.0000 -11.0000 Du        
    580 ****        24.5000  18.0000 -10.7500 Du        
    581 ****        24.5000  18.2500 -13.7500 Du        
    582 ****        24.5000  18.2500 -13.5000 Du        
    583 ****        24.5000  18.2500 -13.2500 Du        
    584 ****        24.5000  18.2500 -13.0000 Du        
    585 ****        24.5000  18.2500 -12.7500 Du        
    586 ****        24.5000  18.2500 -12.5000 Du        
    587 ****        24.5000  18.2500 -12.2500 Du        
    588 ****        24.5000  18.2500 -12.0000 Du        
    589 ****        24.5000  18.2500 -11.7500 Du        
    590 ****        24.5000  18.2500 -11.5000 Du        
    591 ****        24.5000  18.2500 -11.2500 Du        
    592 ****        24.5000  18.5000 -13.5000 Du        
    593 ****        24.5000  18.5000 -13.2500 Du        
    594 ****        24.5000  18.5000 -13.0000 Du        
    595 ****        24.5000  18.5000 -12.7500 Du        
    596 ****        24.5000  18.5000 -12.5000 Du        
    597 ****        24.5000  18.5000 -12.2500 Du        
    598 ****        24.5000  18.5000 -12.0000 Du        
    599 ****        24.5000  18.5000 -11.7500 Du        
    600 ****        24.5000  18.7500 -13.5000 Du        
    601 ****        24.5000  18.7500 -13.2500 Du        
    602 ****        24.5000  18.7500 -13.0000 Du        
    603 ****        24.5000  18.7500 -12.7500 Du        
    604 ****        24.5000  18.7500 -12.5000 Du        
    605 ****        24.5000  18.7500 -12.2500 Du        
    606 ****        24.5000  19.0000 -13.5000 Du        
    607 ****        24.5000  19.0000 -13.2500 Du        
    608 ****        24.5000  19.0000 -13.0000 Du        
    609 ****        24.5000  19.0000 -12.7500 Du        
    610 ****        24.5000  19.2500 -13.2500 Du        
    611 ****        24.5000  19.2500 -13.0000 Du        
    612 ****        24.5000  19.2500 -12.7500 Du        
    613 ****        24.7500  16.2500 -10.7500 Du        
    614 ****        24.7500  16.2500 -10.2500 Du        
    615 ****        24.7500  16.5000 -11.0000 Du        
    616 ****        24.7500  16.5000 -10.7500 Du        
    617 ****        24.7500  16.5000 -10.5000 Du        
    618 ****        24.7500  16.5000 -10.2500 Du        
    619 ****        24.7500  16.7500 -11.2500 Du        
    620 ****        24.7500  16.7500 -11.0000 Du        
    621 ****        24.7500  16.7500 -10.7500 Du        
    622 ****        24.7500  16.7500 -10.5000 Du        
    623 ****        24.7500  16.7500 -10.2500 Du        
    624 ****        24.7500  16.7500 -10.0000 Du        
    625 ****        24.7500  17.0000 -11.2500 Du        
    626 ****        24.7500  17.0000 -11.0000 Du        
    627 ****        24.7500  17.0000 -10.7500 Du        
    628 ****        24.7500  17.0000 -10.5000 Du        
    629 ****        24.7500  17.0000 -10.2500 Du        
    630 ****        24.7500  17.0000 -10.0000 Du        
    631 ****        24.7500  17.2500 -11.7500 Du        
    632 ****        24.7500  17.2500 -11.5000 Du        
    633 ****        24.7500  17.2500 -11.2500 Du        
    634 ****        24.7500  17.2500 -11.0000 Du        
    635 ****        24.7500  17.2500 -10.7500 Du        
    636 ****        24.7500  17.2500 -10.5000 Du        
    637 ****        24.7500  17.2500 -10.2500 Du        
    638 ****        24.7500  17.5000 -12.0000 Du        
    639 ****        24.7500  17.5000 -11.7500 Du        
    640 ****        24.7500  17.5000 -11.5000 Du        
    641 ****        24.7500  17.5000 -11.2500 Du        
    642 ****        24.7500  17.5000 -11.0000 Du        
    643 ****        24.7500  17.5000 -10.7500 Du        
    644 ****        24.7500  17.5000 -10.5000 Du        
    645 ****        24.7500  17.5000 -10.2500 Du        
    646 ****        24.7500  17.7500 -12.2500 Du        
    647 ****        24.7500  17.7500 -12.0000 Du        
    648 ****        24.7500  17.7500 -11.7500 Du        
    649 ****        24.7500  17.7500 -11.5000 Du        
    650 ****        24.7500  17.7500 -11.2500 Du        
    651 ****        24.7500  17.7500 -11.0000 Du        
    652 ****        24.7500  17.7500 -10.7500 Du        
    653 ****        24.7500  18.0000 -12.2500 Du        
    654 ****        24.7500  18.0000 -12.0000 Du        
    655 ****        24.7500  18.0000 -11.7500 Du        
    656 ****        24.7500  18.0000 -11.5000 Du        
    657 ****        24.7500  18.0000 -11.2500 Du        
    658 ****        24.7500  18.0000 -11.0000 Du        
    659 ****        24.7500  18.2500 -12.5000 Du        
    660 ****        24.7500  18.2500 -12.2500 Du        
    661 ****        24.7500  18.2500 -12.0000 Du        
    662 ****        24.7500  18.2500 -11.7500 Du        
    663 ****        24.7500  18.5000 -12.7500 Du        
    664 ****        24.7500  18.7500 -13.0000 Du        
    665 ****        24.7500  18.7500 -12.7500 Du        
    666 ****        24.7500  21.7500 -14.0000 Du        
    667 ****        24.7500  21.7500 -13.7500 Du        
    668 ****        24.7500  22.0000 -14.2500 Du        
    669 ****        24.7500  22.0000 -14.0000 Du        
    670 ****        24.7500  22.0000 -13.7500 Du        
    671 ****        24.7500  22.2500 -14.5000 Du        
    672 ****        24.7500  22.2500 -14.2500 Du        
    673 ****        24.7500  22.2500 -14.0000 Du        
    674 ****        24.7500  22.2500 -13.7500 Du        
    675 ****        25.0000  16.2500 -10.7500 Du        
    676 ****        25.0000  16.2500 -10.5000 Du        
    677 ****        25.0000  16.2500 -10.2500 Du        
    678 ****        25.0000  16.2500 -10.0000 Du        
    679 ****        25.0000  16.2500  -9.7500 Du        
    680 ****        25.0000  16.5000 -10.7500 Du        
    681 ****        25.0000  16.5000 -10.5000 Du        
    682 ****        25.0000  16.5000 -10.2500 Du        
    683 ****        25.0000  16.5000 -10.0000 Du        
    684 ****        25.0000  16.7500 -11.0000 Du        
    685 ****        25.0000  16.7500 -10.7500 Du        
    686 ****        25.0000  16.7500 -10.5000 Du        
    687 ****        25.0000  16.7500 -10.2500 Du        
    688 ****        25.0000  16.7500 -10.0000 Du        
    689 ****        25.0000  17.0000 -11.2500 Du        
    690 ****        25.0000  17.0000 -11.0000 Du        
    691 ****        25.0000  17.0000 -10.7500 Du        
    692 ****        25.0000  17.0000 -10.5000 Du        
    693 ****        25.0000  17.0000 -10.2500 Du        
    694 ****        25.0000  17.0000 -10.0000 Du        
    695 ****        25.0000  17.2500 -11.5000 Du        
    696 ****        25.0000  17.2500 -11.2500 Du        
    697 ****        25.0000  17.2500 -11.0000 Du        
    698 ****        25.0000  17.2500 -10.7500 Du        
    699 ****        25.0000  17.2500 -10.5000 Du        
    700 ****        25.0000  17.2500 -10.2500 Du        
    701 ****        25.0000  17.5000 -11.7500 Du        
    702 ****        25.0000  17.5000 -11.5000 Du        
    703 ****        25.0000  17.5000 -11.2500 Du        
    704 ****        25.0000  17.5000 -11.0000 Du        
    705 ****        25.0000  17.5000 -10.7500 Du        
    706 ****        25.0000  17.5000 -10.5000 Du        
    707 ****        25.0000  17.7500 -11.7500 Du        
    708 ****        25.0000  17.7500 -11.5000 Du        
    709 ****        25.0000  17.7500 -11.2500 Du        
    710 ****        25.0000  17.7500 -11.0000 Du        
    711 ****        25.0000  17.7500 -10.7500 Du        
    712 ****        25.0000  18.0000 -11.7500 Du        
    713 ****        25.0000  22.0000 -14.2500 Du        
    714 ****        25.0000  22.0000 -14.0000 Du        
    715 ****        25.0000  22.0000 -13.7500 Du        
    716 ****        25.0000  22.2500 -14.7500 Du        
    717 ****        25.0000  22.2500 -14.5000 Du        
    718 ****        25.0000  22.2500 -14.2500 Du        
    719 ****        25.0000  22.2500 -14.0000 Du        
    720 ****        25.0000  22.2500 -13.7500 Du        
    721 ****        25.0000  22.2500 -13.5000 Du        
    722 ****        25.0000  22.5000 -14.7500 Du        
    723 ****        25.0000  22.5000 -14.5000 Du        
    724 ****        25.0000  22.5000 -14.2500 Du        
    725 ****        25.0000  22.5000 -14.0000 Du        
    726 ****        25.0000  22.5000 -13.7500 Du        
    727 ****        25.0000  22.7500 -15.0000 Du        
    728 ****        25.0000  22.7500 -14.7500 Du        
    729 ****        25.0000  22.7500 -14.5000 Du        
    730 ****        25.0000  22.7500 -14.2500 Du        
    731 ****        25.0000  22.7500 -14.0000 Du        
    732 ****        25.0000  22.7500 -13.7500 Du        
    733 ****        25.2500  16.0000 -10.2500 Du        
    734 ****        25.2500  16.0000 -10.0000 Du        
    735 ****        25.2500  16.2500 -10.5000 Du        
    736 ****        25.2500  16.2500 -10.2500 Du        
    737 ****        25.2500  16.2500 -10.0000 Du        
    738 ****        25.2500  16.5000 -10.7500 Du        
    739 ****        25.2500  16.5000 -10.5000 Du        
    740 ****        25.2500  16.5000 -10.2500 Du        
    741 ****        25.2500  16.5000 -10.0000 Du        
    742 ****        25.2500  16.5000  -9.7500 Du        
    743 ****        25.2500  16.7500 -11.0000 Du        
    744 ****        25.2500  16.7500 -10.7500 Du        
    745 ****        25.2500  16.7500 -10.5000 Du        
    746 ****        25.2500  16.7500 -10.2500 Du        
    747 ****        25.2500  16.7500 -10.0000 Du        
    748 ****        25.2500  16.7500  -9.7500 Du        
    749 ****        25.2500  17.0000 -11.0000 Du        
    750 ****        25.2500  17.0000 -10.7500 Du        
    751 ****        25.2500  17.0000 -10.5000 Du        
    752 ****        25.2500  17.0000 -10.2500 Du        
    753 ****        25.2500  17.0000 -10.0000 Du        
    754 ****        25.2500  17.2500 -11.2500 Du        
    755 ****        25.2500  17.2500 -11.0000 Du        
    756 ****        25.2500  17.2500 -10.7500 Du        
    757 ****        25.2500  17.2500 -10.5000 Du        
    758 ****        25.2500  17.5000 -11.2500 Du        
    759 ****        25.2500  17.5000 -11.0000 Du        
    760 ****        25.2500  17.5000 -10.7500 Du        
    761 ****        25.2500  22.0000 -14.2500 Du        
    762 ****        25.2500  22.0000 -14.0000 Du        
    763 ****        25.2500  22.2500 -14.7500 Du        
    764 ****        25.2500  22.2500 -14.5000 Du        
    765 ****        25.2500  22.2500 -14.2500 Du        
    766 ****        25.2500  22.2500 -14.0000 Du        
    767 ****        25.2500  22.2500 -13.7500 Du        
    768 ****        25.2500  22.5000 -14.5000 Du        
    769 ****        25.2500  22.5000 -14.2500 Du        
    770 ****        25.2500  22.5000 -14.0000 Du        
    771 ****        25.2500  22.5000 -13.7500 Du        
    772 ****        25.2500  22.7500 -15.0000 Du        
    773 ****        25.2500  22.7500 -14.7500 Du        
    774 ****        25.2500  22.7500 -14.5000 Du        
    775 ****        25.2500  22.7500 -14.2500 Du        
    776 ****        25.2500  22.7500 -14.0000 Du        
    777 ****        25.2500  22.7500 -13.7500 Du        
    778 ****        25.5000  16.0000 -10.2500 Du        
    779 ****        25.5000  16.0000 -10.0000 Du        
    780 ****        25.5000  16.0000  -9.7500 Du        
    781 ****        25.5000  16.2500 -10.5000 Du        
    782 ****        25.5000  16.2500 -10.2500 Du        
    783 ****        25.5000  16.2500 -10.0000 Du        
    784 ****        25.5000  16.2500  -9.7500 Du        
    785 ****        25.5000  16.5000 -10.7500 Du        
    786 ****        25.5000  16.5000 -10.5000 Du        
    787 ****        25.5000  16.5000 -10.2500 Du        
    788 ****        25.5000  16.5000 -10.0000 Du        
    789 ****        25.5000  16.5000  -9.7500 Du        
    790 ****        25.5000  16.7500 -11.0000 Du        
    791 ****        25.5000  16.7500 -10.7500 Du        
    792 ****        25.5000  16.7500 -10.5000 Du        
    793 ****        25.5000  16.7500 -10.2500 Du        
    794 ****        25.5000  16.7500 -10.0000 Du        
    795 ****        25.5000  17.0000 -11.0000 Du        
    796 ****        25.5000  17.0000 -10.7500 Du        
    797 ****        25.5000  17.0000 -10.5000 Du        
    798 ****        25.5000  17.0000 -10.2500 Du        
    799 ****        25.5000  17.2500 -11.0000 Du        
    800 ****        25.5000  17.2500 -10.7500 Du        
    801 ****        25.5000  17.2500 -10.5000 Du        
    802 ****        25.5000  22.2500 -14.2500 Du        
    803 ****        25.5000  22.2500 -14.0000 Du        
    804 ****        25.5000  22.2500 -13.7500 Du        
    805 ****        25.5000  22.5000 -14.7500 Du        
    806 ****        25.5000  22.5000 -14.5000 Du        
    807 ****        25.5000  22.5000 -14.2500 Du        
    808 ****        25.5000  22.5000 -14.0000 Du        
    809 ****        25.5000  22.5000 -13.7500 Du        
    810 ****        25.5000  22.7500 -15.0000 Du        
    811 ****        25.5000  22.7500 -14.7500 Du        
    812 ****        25.5000  22.7500 -14.5000 Du        
    813 ****        25.5000  22.7500 -14.2500 Du        
    814 ****        25.5000  22.7500 -14.0000 Du        
    815 ****        25.5000  22.7500 -13.7500 Du        
    816 ****        25.5000  22.7500 -13.5000 Du        
    817 ****        25.7500  15.7500 -10.0000 Du        
    818 ****        25.7500  16.0000 -10.2500 Du        
    819 ****        25.7500  16.0000 -10.0000 Du        
    820 ****        25.7500  16.0000  -9.7500 Du        
    821 ****        25.7500  16.2500 -10.5000 Du        
    822 ****        25.7500  16.2500 -10.2500 Du        
    823 ****        25.7500  16.2500 -10.0000 Du        
    824 ****        25.7500  16.2500  -9.7500 Du        
    825 ****        25.7500  16.5000 -10.7500 Du        
    826 ****        25.7500  16.5000 -10.5000 Du        
    827 ****        25.7500  16.5000 -10.2500 Du        
    828 ****        25.7500  16.5000 -10.0000 Du        
    829 ****        25.7500  16.5000  -9.7500 Du        
    830 ****        25.7500  16.7500 -10.7500 Du        
    831 ****        25.7500  16.7500 -10.5000 Du        
    832 ****        25.7500  16.7500 -10.2500 Du        
    833 ****        25.7500  16.7500 -10.0000 Du        
    834 ****        25.7500  17.0000 -10.7500 Du        
    835 ****        25.7500  17.0000 -10.5000 Du        
    836 ****        25.7500  22.5000 -14.0000 Du        
    837 ****        25.7500  22.7500 -14.2500 Du        
    838 ****        25.7500  22.7500 -14.0000 Du        
    839 ****        25.7500  22.7500 -13.7500 Du        
    840 ****        25.7500  22.7500 -13.5000 Du        
    841 ****        26.0000  15.5000  -9.7500 Du        
    842 ****        26.0000  15.7500 -10.0000 Du        
    843 ****        26.0000  15.7500  -9.7500 Du        
    844 ****        26.0000  15.7500  -9.5000 Du        
    845 ****        26.0000  16.0000 -10.2500 Du        
    846 ****        26.0000  16.0000 -10.0000 Du        
    847 ****        26.0000  16.0000  -9.7500 Du        
    848 ****        26.0000  16.0000  -9.5000 Du        
    849 ****        26.0000  16.2500 -10.2500 Du        
    850 ****        26.0000  16.2500 -10.0000 Du        
    851 ****        26.0000  16.2500  -9.7500 Du        
    852 ****        26.0000  16.5000 -10.5000 Du        
    853 ****        26.0000  16.5000 -10.2500 Du        
    854 ****        26.0000  16.5000 -10.0000 Du        
    855 ****        26.0000  16.7500 -10.5000 Du        
    856 ****        26.0000  16.7500 -10.2500 Du        
    857 ****        26.2500  15.5000  -9.7500 Du        
    858 ****        26.2500  15.7500 -10.0000 Du        
    859 ****        26.2500  15.7500  -9.7500 Du        
    860 ****        26.2500  15.7500  -9.5000 Du        
    861 ****        26.2500  16.0000 -10.0000 Du        
    862 ****        26.2500  16.0000  -9.7500 Du        
    863 ****        26.2500  16.0000  -9.5000 Du        
    864 ****        26.2500  16.2500 -10.0000 Du        
    865 ****        26.2500  16.2500  -9.7500 Du        
    866 ****        26.5000  15.7500  -9.7500 Du        
    867 ****        26.5000  15.7500  -9.5000 Du        
    868 ****        26.7500  15.7500  -9.5000 Du        
    869 ****        27.0000  15.5000  -9.2500 Du        
    870 ****        27.5000  15.2500  -9.2500 Du        
    871 ****        27.5000  15.2500  -9.0000 Du        
    872 ****        27.5000  15.5000  -9.2500 Du        
    873 ****        27.7500  15.0000  -9.0000 Du        
    874 ****        27.7500  15.2500  -9.0000 Du        
    875 ****        28.0000  15.0000  -9.0000 Du        
    876 ****        28.0000  15.0000  -8.7500 Du        
    877 ****        28.0000  15.2500  -9.0000 Du        
    878 ****        28.0000  15.2500  -8.7500 Du        
    879 ****        28.2500  15.0000  -9.0000 Du        
    880 ****        28.2500  15.0000  -8.7500 Du        
    881 ****        28.2500  15.2500  -9.0000 Du        
    882 ****        28.2500  15.2500  -8.7500 Du        
    883 ****        30.7500  12.2500 -14.7500 Du        
    884 ****        30.7500  12.5000 -14.7500 Du        
    885 ****        30.7500  12.5000 -14.5000 Du        
    886 ****        30.7500  12.7500 -14.7500 Du        
