#       Name:                CT1002167954
#       Creating user name   hitesit
#       Creation time:       Sun Apr 16 02:21:41 2023


#       File generated by GOLD software.
#

@<TRIPOS>MOLECULE
CT1002167954|ligand_prepared|mol2|1|dock7
    29    30     1
SMALL
NO_CHARGES


@<TRIPOS>ATOM
      1 C1          24.2707  16.0002 -10.7245 C.3            1 RES1               0.0000
      2 C2          24.3039  17.1528 -11.7487 C.ar           1 RES1               0.0000
      3 C3          25.6600  15.9454 -10.0959 C.2            1 RES1               0.0000
      4 C4          23.1554  16.3359  -9.7405 C.2            1 RES1               0.0000
      5 C5          23.9586  14.6195 -11.3474 C.3            1 RES1               0.0000
      6 C6          24.4593  18.4702 -11.3282 C.ar           1 RES1               0.0000
      7 C7          24.1832  16.9145 -13.1152 C.ar           1 RES1               0.0000
      8 N8          25.7943  16.4050  -8.8189 N.am           1 RES1               0.0000
      9 O9          26.6305  15.5419 -10.7249 O.2            1 RES1               0.0000
     10 N10         23.5031  16.5997  -8.4415 N.am           1 RES1               0.0000
     11 O11         21.9804  16.3906 -10.0820 O.2            1 RES1               0.0000
     12 C12         23.7859  13.5094 -10.3227 C.3            1 RES1               0.0000
     13 C13         24.4958  19.5115 -12.2407 C.ar           1 RES1               0.0000
     14 C14         24.2197  17.9573 -14.0261 C.ar           1 RES1               0.0000
     15 C15         24.7749  16.6796  -7.9431 C.2            1 RES1               0.0000
     16 C16         24.3765  19.2558 -13.5901 C.ar           1 RES1               0.0000
     17 O17         25.0096  16.9758  -6.7751 O.2            1 RES1               0.0000
     18 H18         23.0389  14.6993 -11.9400 H              1 RES1               0.0000
     19 H19         24.7740  14.3472 -12.0289 H              1 RES1               0.0000
     20 H20         24.5524  18.6911 -10.2701 H              1 RES1               0.0000
     21 H21         24.0579  15.9010 -13.4810 H              1 RES1               0.0000
     22 H22         26.7401  16.5588  -8.4843 H              1 RES1               0.0000
     23 H23         22.7435  16.7504  -7.7854 H              1 RES1               0.0000
     24 H24         23.5687  12.5626 -10.8126 H              1 RES1               0.0000
     25 H25         24.6912  13.3855  -9.7320 H              1 RES1               0.0000
     26 H26         22.9664  13.7355  -9.6436 H              1 RES1               0.0000
     27 H27         24.6180  20.5318 -11.8924 H              1 RES1               0.0000
     28 H28         24.1248  17.7514 -15.0872 H              1 RES1               0.0000
     29 H29         24.4055  20.0716 -14.3048 H              1 RES1               0.0000
@<TRIPOS>BOND
    1    1    2 1     
    2    1    3 1     
    3    1    4 1     
    4    1    5 1     
    5    2    6 ar    
    6    2    7 ar    
    7    3    8 1     
    8    3    9 2     
    9    4   10 1     
   10    4   11 2     
   11    5   12 1     
   12    5   18 1     
   13    5   19 1     
   14    6   13 ar    
   15    6   20 1     
   16    7   14 ar    
   17    7   21 1     
   18    8   15 1     
   19    8   22 1     
   20   10   15 1     
   21   10   23 1     
   22   12   24 1     
   23   12   25 1     
   24   12   26 1     
   25   13   16 ar    
   26   13   27 1     
   27   14   16 ar    
   28   14   28 1     
   29   15   17 2     
   30   16   29 1     
@<TRIPOS>SUBSTRUCTURE
      1 RES1           1
@<TRIPOS>SET
DONOR_HYDROGENS      STATIC     ATOMS    <user>   **** ""
2 22 23
ATOM$RED        STATIC     ATOMS    COLORGROUP SYSTEM
2 22 23
@<TRIPOS>COMMENT
> <Gold.Version>
2022.3.0

> <Gold.Id.Protein>
unknown|2h24_cavity_clean|pdb

> <Gold.Protein.RotatedTorsions>
[ 2130 2129 2128 2126 ] final  -30.69 input   60.00 | X-H torsion
[ 2203 2194 2193 2191 ] final -103.87 input   59.99 | X-H torsion

> <Gold.Protein.ActiveResidues>
 PHE146  TYR149  ILE150  TYR153 

> <Gold.Protein.RotatedAtoms>
   23.0504   22.6127  -21.9569 H   0  0  0  0  0  0  0  0  0  0  0  0  # atno 2130 bound_to 2129
   26.9805   19.8031   -5.1177 H   0  0  0  0  0  0  0  0  0  0  0  0  # atno 2203 bound_to 2194
   21.6327   22.0695  -21.3716 LP  0  0  0  0  0  0  0  0  0  0  0  0  # atno 2324 bound_to 2129
   22.5199   21.1314  -22.3713 LP  0  0  0  0  0  0  0  0  0  0  0  0  # atno 2325 bound_to 2129
   26.2349   18.4172   -5.5311 LP  0  0  0  0  0  0  0  0  0  0  0  0  # atno 2328 bound_to 2194
   25.3967   19.8180   -5.4902 LP  0  0  0  0  0  0  0  0  0  0  0  0  # atno 2329 bound_to 2194

> <Gold.Score>
     Fitness  S(hb_ext) S(vdw_ext)  S(hb_int)    S(int)      intcor
     25.30       0.00      18.49       0.00      -0.13      -0.77

> <Gold.Goldscore.Fitness>
25.3005

> <Gold.Goldscore.Internal.Vdw>
-0.4744

> <Gold.Goldscore.Internal.Torsion>
-0.4208

> <Gold.Goldscore.External.Vdw>
18.4944

> <Gold.Goldscore.Internal.HBond>
0.0000

> <Gold.Goldscore.External.HBond>
0.0000

> <Gold.Goldscore.Internal.Correction>
-0.7659

> <Gold.Goldscore.Internal.Vdw.Weighted>
-0.4744

> <Gold.Goldscore.Internal.Torsion.Weighted>
-0.4208

> <Gold.Goldscore.External.Vdw.Weighted>
25.4298

> <Gold.Goldscore.Internal.HBond.Weighted>
0.0000

> <Gold.Goldscore.External.HBond.Weighted>
0.0000

> <Gold.Goldscore.Internal.Correction.Weighted>
-0.7659

> <Gold.Rescore>
     Score     S(PLP)   S(hbond)     S(cho)   S(metal)  DE(clash)   DE(tors)     intcor
     32.68     -32.92       0.00       0.00       0.00       0.00       0.12       ----

> <Gold.PLP.Fitness>
32.6810

> <Gold.PLP.PLP>
-32.9198

> <Gold.PLP.part.hbond>
-0.0434

> <Gold.PLP.part.metal>
0.0000

> <Gold.PLP.part.buried>
-2.9600

> <Gold.PLP.part.nonpolar>
-30.0790

> <Gold.PLP.part.repulsive>
0.0325

> <Gold.PLP.ligand.clash>
0.0000

> <Gold.PLP.ligand.torsion>
0.1194

> <Gold.PLP.Chemscore.Hbond>
0.0000

> <Gold.PLP.Chemscore.CHOScore>
0.0000

> <Gold.PLP.Chemscore.Metal>
0.0000

> <Gold.PLP.Chemscore.Internal.Correction>
   9.000000E+99

