#       Name:                CT1002167954
#       Creating user name   hitesit
#       Creation time:       Sun Apr 16 02:21:40 2023


#       File generated by GOLD software.
#

@<TRIPOS>MOLECULE
CT1002167954|ligand_prepared|mol2|1|dock6
    29    30     1
SMALL
NO_CHARGES


@<TRIPOS>ATOM
      1 C1          23.6869  21.5649 -13.5582 C.3            1 RES1               0.0000
      2 C2          23.8175  20.0288 -13.5111 C.ar           1 RES1               0.0000
      3 C3          23.0881  21.9852 -12.2191 C.2            1 RES1               0.0000
      4 C4          25.0905  22.1050 -13.8090 C.2            1 RES1               0.0000
      5 C5          22.7676  22.0794 -14.6904 C.3            1 RES1               0.0000
      6 C6          24.4711  19.4054 -12.4524 C.ar           1 RES1               0.0000
      7 C7          23.2882  19.2233 -14.5158 C.ar           1 RES1               0.0000
      8 N8          23.9161  22.5870 -11.3178 N.am           1 RES1               0.0000
      9 O9          21.9170  21.7565 -11.9428 O.2            1 RES1               0.0000
     10 N10         25.6798  22.8461 -12.8185 N.am           1 RES1               0.0000
     11 O11         25.6979  21.8814 -14.8488 O.2            1 RES1               0.0000
     12 C12         22.5402  23.5826 -14.6601 C.3            1 RES1               0.0000
     13 C13         24.5888  18.0264 -12.3985 C.ar           1 RES1               0.0000
     14 C14         23.4072  17.8444 -14.4601 C.ar           1 RES1               0.0000
     15 C15         25.1684  23.0857 -11.5722 C.2            1 RES1               0.0000
     16 C16         24.0566  17.2451 -13.4019 C.ar           1 RES1               0.0000
     17 O17         25.7822  23.7157 -10.7157 O.2            1 RES1               0.0000
     18 H18         23.2118  21.8088 -15.6562 H              1 RES1               0.0000
     19 H19         21.7970  21.5739 -14.6143 H              1 RES1               0.0000
     20 H20         24.8984  20.0040 -11.6548 H              1 RES1               0.0000
     21 H21         22.7741  19.6730 -15.3585 H              1 RES1               0.0000
     22 H22         23.5723  22.6741 -10.3667 H              1 RES1               0.0000
     23 H23         26.5834  23.2574 -13.0298 H              1 RES1               0.0000
     24 H24         21.8887  23.8906 -15.4752 H              1 RES1               0.0000
     25 H25         22.0762  23.8837 -13.7232 H              1 RES1               0.0000
     26 H26         23.4826  24.1173 -14.7589 H              1 RES1               0.0000
     27 H27         25.1020  17.5597 -11.5643 H              1 RES1               0.0000
     28 H28         22.9873  17.2334 -15.2523 H              1 RES1               0.0000
     29 H29         24.1485  16.1648 -13.3593 H              1 RES1               0.0000
@<TRIPOS>BOND
    1    1    2 1     
    2    1    3 1     
    3    1    4 1     
    4    1    5 1     
    5    2    6 ar    
    6    2    7 ar    
    7    3    8 1     
    8    3    9 2     
    9    4   10 1     
   10    4   11 2     
   11    5   12 1     
   12    5   18 1     
   13    5   19 1     
   14    6   13 ar    
   15    6   20 1     
   16    7   14 ar    
   17    7   21 1     
   18    8   15 1     
   19    8   22 1     
   20   10   15 1     
   21   10   23 1     
   22   12   24 1     
   23   12   25 1     
   24   12   26 1     
   25   13   16 ar    
   26   13   27 1     
   27   14   16 ar    
   28   14   28 1     
   29   15   17 2     
   30   16   29 1     
@<TRIPOS>SUBSTRUCTURE
      1 RES1           1
@<TRIPOS>SET
DONOR_HYDROGENS      STATIC     ATOMS    <user>   **** ""
2 22 23
ATOM$RED        STATIC     ATOMS    COLORGROUP SYSTEM
2 22 23
@<TRIPOS>COMMENT
> <Gold.Version>
2022.3.0

> <Gold.Id.Protein>
unknown|2h24_cavity_clean|pdb

> <Gold.Protein.RotatedTorsions>
[ 2130 2129 2128 2126 ] final  -42.52 input   60.00 | X-H torsion
[ 2203 2194 2193 2191 ] final  150.17 input   59.99 | X-H torsion

> <Gold.Protein.ActiveResidues>
 PHE146  TYR149  ILE150  TYR153 

> <Gold.Protein.RotatedAtoms>
   22.9324   22.7085  -21.8383 H   0  0  0  0  0  0  0  0  0  0  0  0  # atno 2130 bound_to 2129
   26.4553   18.4501   -5.4757 H   0  0  0  0  0  0  0  0  0  0  0  0  # atno 2203 bound_to 2194
   21.5859   21.8908  -21.4316 LP  0  0  0  0  0  0  0  0  0  0  0  0  # atno 2324 bound_to 2129
   22.6856   21.2135  -22.4309 LP  0  0  0  0  0  0  0  0  0  0  0  0  # atno 2325 bound_to 2129
   25.3157   19.6094   -5.5454 LP  0  0  0  0  0  0  0  0  0  0  0  0  # atno 2328 bound_to 2194
   26.8448   19.9883   -5.1153 LP  0  0  0  0  0  0  0  0  0  0  0  0  # atno 2329 bound_to 2194

> <Gold.Score>
     Fitness  S(hb_ext) S(vdw_ext)  S(hb_int)    S(int)      intcor
     24.02       0.00      17.51       0.00      -0.05      -0.77

> <Gold.Goldscore.Fitness>
24.0198

> <Gold.Goldscore.Internal.Vdw>
-0.4072

> <Gold.Goldscore.Internal.Torsion>
-0.4118

> <Gold.Goldscore.External.Vdw>
17.5055

> <Gold.Goldscore.Internal.HBond>
0.0000

> <Gold.Goldscore.External.HBond>
0.0000

> <Gold.Goldscore.Internal.Correction>
-0.7686

> <Gold.Goldscore.Internal.Vdw.Weighted>
-0.4072

> <Gold.Goldscore.Internal.Torsion.Weighted>
-0.4118

> <Gold.Goldscore.External.Vdw.Weighted>
24.0701

> <Gold.Goldscore.Internal.HBond.Weighted>
0.0000

> <Gold.Goldscore.External.HBond.Weighted>
0.0000

> <Gold.Goldscore.Internal.Correction.Weighted>
-0.7686

> <Gold.Rescore>
     Score     S(PLP)   S(hbond)     S(cho)   S(metal)  DE(clash)   DE(tors)     intcor
     31.29     -31.34       0.00       0.00       0.00       0.00       0.03       ----

> <Gold.PLP.Fitness>
31.2879

> <Gold.PLP.PLP>
-31.3410

> <Gold.PLP.part.hbond>
0.0000

> <Gold.PLP.part.metal>
0.0000

> <Gold.PLP.part.buried>
-4.4735

> <Gold.PLP.part.nonpolar>
-26.9103

> <Gold.PLP.part.repulsive>
0.1476

> <Gold.PLP.ligand.clash>
0.0000

> <Gold.PLP.ligand.torsion>
0.0266

> <Gold.PLP.Chemscore.Hbond>
0.0000

> <Gold.PLP.Chemscore.CHOScore>
0.0000

> <Gold.PLP.Chemscore.Metal>
0.0000

> <Gold.PLP.Chemscore.Internal.Correction>
   9.000000E+99

