#       Name:                CT1002167954
#       Creating user name   hitesit
#       Creation time:       Sun Apr 16 02:21:39 2023


#       File generated by GOLD software.
#

@<TRIPOS>MOLECULE
CT1002167954|ligand_prepared|mol2|1|dock4
    29    30     1
SMALL
NO_CHARGES


@<TRIPOS>ATOM
      1 C1          23.3857  19.1370 -12.9109 C.3            1 RES1               0.0000
      2 C2          24.0704  18.5821 -11.6452 C.ar           1 RES1               0.0000
      3 C3          21.9239  19.3698 -12.5401 C.2            1 RES1               0.0000
      4 C4          24.1428  20.4069 -13.2835 C.2            1 RES1               0.0000
      5 C5          23.4383  18.1767 -14.1218 C.3            1 RES1               0.0000
      6 C6          23.7128  19.0485 -10.3837 C.ar           1 RES1               0.0000
      7 C7          25.0577  17.6034 -11.7228 C.ar           1 RES1               0.0000
      8 N8          21.5141  20.6586 -12.3646 N.am           1 RES1               0.0000
      9 O9          21.1523  18.4347 -12.3656 O.2            1 RES1               0.0000
     10 N10         23.4747  21.6005 -13.2005 N.am           1 RES1               0.0000
     11 O11         25.3167  20.3864 -13.6323 O.2            1 RES1               0.0000
     12 C12         22.5303  18.5876 -15.2702 C.3            1 RES1               0.0000
     13 C13         24.3181  18.5524  -9.2410 C.ar           1 RES1               0.0000
     14 C14         25.6619  17.1088 -10.5788 C.ar           1 RES1               0.0000
     15 C15         22.2040  21.7870 -12.7285 C.2            1 RES1               0.0000
     16 C16         25.2926  17.5820  -9.3376 C.ar           1 RES1               0.0000
     17 O17         21.6909  22.8982 -12.6331 O.2            1 RES1               0.0000
     18 H18         24.4710  18.1271 -14.4886 H              1 RES1               0.0000
     19 H19         23.1525  17.1715 -13.7881 H              1 RES1               0.0000
     20 H20         22.9496  19.8136 -10.2881 H              1 RES1               0.0000
     21 H21         25.3650  17.2171 -12.6887 H              1 RES1               0.0000
     22 H22         20.6112  20.7962 -11.9217 H              1 RES1               0.0000
     23 H23         23.9706  22.4264 -13.5204 H              1 RES1               0.0000
     24 H24         22.6054  17.8803 -16.0935 H              1 RES1               0.0000
     25 H25         21.4918  18.6226 -14.9473 H              1 RES1               0.0000
     26 H26         22.8025  19.5726 -15.6437 H              1 RES1               0.0000
     27 H27         24.0248  18.9291  -8.2667 H              1 RES1               0.0000
     28 H28         26.4288  16.3456 -10.6596 H              1 RES1               0.0000
     29 H29         25.7663  17.1933  -8.4423 H              1 RES1               0.0000
@<TRIPOS>BOND
    1    1    2 1     
    2    1    3 1     
    3    1    4 1     
    4    1    5 1     
    5    2    6 ar    
    6    2    7 ar    
    7    3    8 1     
    8    3    9 2     
    9    4   10 1     
   10    4   11 2     
   11    5   12 1     
   12    5   18 1     
   13    5   19 1     
   14    6   13 ar    
   15    6   20 1     
   16    7   14 ar    
   17    7   21 1     
   18    8   15 1     
   19    8   22 1     
   20   10   15 1     
   21   10   23 1     
   22   12   24 1     
   23   12   25 1     
   24   12   26 1     
   25   13   16 ar    
   26   13   27 1     
   27   14   16 ar    
   28   14   28 1     
   29   15   17 2     
   30   16   29 1     
@<TRIPOS>SUBSTRUCTURE
      1 RES1           1
@<TRIPOS>SET
DONOR_HYDROGENS      STATIC     ATOMS    <user>   **** ""
2 22 23
ATOM$RED        STATIC     ATOMS    COLORGROUP SYSTEM
2 22 23
@<TRIPOS>COMMENT
> <Gold.Version>
2022.3.0

> <Gold.Id.Protein>
unknown|2h24_cavity_clean|pdb

> <Gold.Protein.RotatedTorsions>
[ 2130 2129 2128 2126 ] final  174.01 input   60.00 | X-H torsion
[ 2203 2194 2193 2191 ] final   89.54 input   59.99 | X-H torsion

> <Gold.Protein.ActiveResidues>
 PHE146  TYR149  ILE150  TYR153 

> <Gold.Protein.RotatedAtoms>
   21.6031   21.5514  -21.6065 H   0  0  0  0  0  0  0  0  0  0  0  0  # atno 2130 bound_to 2129
   25.5646   18.7180   -5.6421 H   0  0  0  0  0  0  0  0  0  0  0  0  # atno 2203 bound_to 2194
   22.9724   21.4631  -22.4809 LP  0  0  0  0  0  0  0  0  0  0  0  0  # atno 2324 bound_to 2129
   22.6381   22.8068  -21.6151 LP  0  0  0  0  0  0  0  0  0  0  0  0  # atno 2325 bound_to 2129
   25.9645   20.2531   -5.2799 LP  0  0  0  0  0  0  0  0  0  0  0  0  # atno 2328 bound_to 2194
   27.0931   19.0748   -5.2132 LP  0  0  0  0  0  0  0  0  0  0  0  0  # atno 2329 bound_to 2194

> <Gold.Score>
     Fitness  S(hb_ext) S(vdw_ext)  S(hb_int)    S(int)      intcor
     24.57       0.00      18.09       0.00      -0.30      -0.77

> <Gold.Goldscore.Fitness>
24.5709

> <Gold.Goldscore.Internal.Vdw>
-0.4761

> <Gold.Goldscore.Internal.Torsion>
-0.5912

> <Gold.Goldscore.External.Vdw>
18.0869

> <Gold.Goldscore.Internal.HBond>
0.0000

> <Gold.Goldscore.External.HBond>
0.0000

> <Gold.Goldscore.Internal.Correction>
-0.7686

> <Gold.Goldscore.Internal.Vdw.Weighted>
-0.4761

> <Gold.Goldscore.Internal.Torsion.Weighted>
-0.5912

> <Gold.Goldscore.External.Vdw.Weighted>
24.8695

> <Gold.Goldscore.Internal.HBond.Weighted>
0.0000

> <Gold.Goldscore.External.HBond.Weighted>
0.0000

> <Gold.Goldscore.Internal.Correction.Weighted>
-0.7686

> <Gold.Rescore>
     Score     S(PLP)   S(hbond)     S(cho)   S(metal)  DE(clash)   DE(tors)     intcor
     29.53     -32.36       0.00       0.00       0.00       0.00       1.41       ----

> <Gold.PLP.Fitness>
29.5321

> <Gold.PLP.PLP>
-32.3587

> <Gold.PLP.part.hbond>
0.0000

> <Gold.PLP.part.metal>
0.0000

> <Gold.PLP.part.buried>
-2.6720

> <Gold.PLP.part.nonpolar>
-30.5413

> <Gold.PLP.part.repulsive>
0.0948

> <Gold.PLP.ligand.clash>
0.0000

> <Gold.PLP.ligand.torsion>
1.4133

> <Gold.PLP.Chemscore.Hbond>
0.0000

> <Gold.PLP.Chemscore.CHOScore>
0.0000

> <Gold.PLP.Chemscore.Metal>
0.0000

> <Gold.PLP.Chemscore.Internal.Correction>
   9.000000E+99

