#       Name:                CT1002167954
#       Creating user name   hitesit
#       Creation time:       Sun Apr 16 02:21:37 2023


#       File generated by GOLD software.
#

@<TRIPOS>MOLECULE
CT1002167954|ligand_prepared|mol2|1|dock2
    29    30     1
SMALL
NO_CHARGES


@<TRIPOS>ATOM
      1 C1          24.5815  16.5557 -10.4487 C.3            1 RES1               0.0000
      2 C2          24.4231  17.5639 -11.6051 C.ar           1 RES1               0.0000
      3 C3          23.4354  15.5583 -10.5899 C.2            1 RES1               0.0000
      4 C4          25.9666  15.9385 -10.6075 C.2            1 RES1               0.0000
      5 C5          24.5030  17.1985  -9.0443 C.3            1 RES1               0.0000
      6 C6          24.1778  17.1220 -12.9018 C.ar           1 RES1               0.0000
      7 C7          24.5168  18.9364 -11.3908 C.ar           1 RES1               0.0000
      8 N8          23.7370  14.3104 -11.0499 N.am           1 RES1               0.0000
      9 O9          22.2789  15.8741 -10.3389 O.2            1 RES1               0.0000
     10 N10         26.0442  14.6031 -10.9048 N.am           1 RES1               0.0000
     11 O11         26.9911  16.6002 -10.4943 O.2            1 RES1               0.0000
     12 C12         24.4686  16.1880  -7.9086 C.3            1 RES1               0.0000
     13 C13         24.0287  18.0198 -13.9459 C.ar           1 RES1               0.0000
     14 C14         24.3676  19.8325 -12.4364 C.ar           1 RES1               0.0000
     15 C15         24.9918  13.7678 -11.1635 C.2            1 RES1               0.0000
     16 C16         24.1230  19.3754 -13.7139 C.ar           1 RES1               0.0000
     17 O17         25.1438  12.5908 -11.4777 O.2            1 RES1               0.0000
     18 H18         25.3716  17.8544  -8.9072 H              1 RES1               0.0000
     19 H19         23.6012  17.8208  -8.9907 H              1 RES1               0.0000
     20 H20         24.1028  16.0587 -13.1040 H              1 RES1               0.0000
     21 H21         24.7097  19.3187 -10.3942 H              1 RES1               0.0000
     22 H22         22.9575  13.7266 -11.3361 H              1 RES1               0.0000
     23 H23         26.9725  14.1937 -10.9359 H              1 RES1               0.0000
     24 H24         24.4136  16.6916  -6.9458 H              1 RES1               0.0000
     25 H25         23.6031  15.5350  -7.9994 H              1 RES1               0.0000
     26 H26         25.3630  15.5684  -7.9164 H              1 RES1               0.0000
     27 H27         23.8377  17.6549 -14.9497 H              1 RES1               0.0000
     28 H28         24.4432  20.8986 -12.2493 H              1 RES1               0.0000
     29 H29         24.0058  20.0785 -14.5319 H              1 RES1               0.0000
@<TRIPOS>BOND
    1    1    2 1     
    2    1    3 1     
    3    1    4 1     
    4    1    5 1     
    5    2    6 ar    
    6    2    7 ar    
    7    3    8 1     
    8    3    9 2     
    9    4   10 1     
   10    4   11 2     
   11    5   12 1     
   12    5   18 1     
   13    5   19 1     
   14    6   13 ar    
   15    6   20 1     
   16    7   14 ar    
   17    7   21 1     
   18    8   15 1     
   19    8   22 1     
   20   10   15 1     
   21   10   23 1     
   22   12   24 1     
   23   12   25 1     
   24   12   26 1     
   25   13   16 ar    
   26   13   27 1     
   27   14   16 ar    
   28   14   28 1     
   29   15   17 2     
   30   16   29 1     
@<TRIPOS>SUBSTRUCTURE
      1 RES1           1
@<TRIPOS>SET
DONOR_HYDROGENS      STATIC     ATOMS    <user>   **** ""
2 22 23
ATOM$RED        STATIC     ATOMS    COLORGROUP SYSTEM
2 22 23
@<TRIPOS>COMMENT
> <Gold.Version>
2022.3.0

> <Gold.Id.Protein>
unknown|2h24_cavity_clean|pdb

> <Gold.Protein.RotatedTorsions>
[ 2130 2129 2128 2126 ] final   85.08 input   60.00 | X-H torsion
[ 2203 2194 2193 2191 ] final  101.66 input   59.99 | X-H torsion

> <Gold.Protein.ActiveResidues>
 PHE146  TYR149  ILE150  TYR153 

> <Gold.Protein.RotatedAtoms>
   22.5800   21.1616  -22.3895 H   0  0  0  0  0  0  0  0  0  0  0  0  # atno 2130 bound_to 2129
   25.7146   18.5903   -5.6283 H   0  0  0  0  0  0  0  0  0  0  0  0  # atno 2203 bound_to 2194
   23.0144   22.6567  -21.9167 LP  0  0  0  0  0  0  0  0  0  0  0  0  # atno 2324 bound_to 2129
   21.6121   22.0059  -21.3906 LP  0  0  0  0  0  0  0  0  0  0  0  0  # atno 2325 bound_to 2129
   25.7841   20.1891   -5.3339 LP  0  0  0  0  0  0  0  0  0  0  0  0  # atno 2328 bound_to 2194
   27.1224   19.2674   -5.1731 LP  0  0  0  0  0  0  0  0  0  0  0  0  # atno 2329 bound_to 2194

> <Gold.Score>
     Fitness  S(hb_ext) S(vdw_ext)  S(hb_int)    S(int)      intcor
     28.27       0.00      20.62       0.00      -0.08      -0.77

> <Gold.Goldscore.Fitness>
28.2750

> <Gold.Goldscore.Internal.Vdw>
-0.3810

> <Gold.Goldscore.Internal.Torsion>
-0.4688

> <Gold.Goldscore.External.Vdw>
20.6226

> <Gold.Goldscore.Internal.HBond>
0.0000

> <Gold.Goldscore.External.HBond>
0.0000

> <Gold.Goldscore.Internal.Correction>
-0.7686

> <Gold.Goldscore.Internal.Vdw.Weighted>
-0.3810

> <Gold.Goldscore.Internal.Torsion.Weighted>
-0.4688

> <Gold.Goldscore.External.Vdw.Weighted>
28.3561

> <Gold.Goldscore.Internal.HBond.Weighted>
0.0000

> <Gold.Goldscore.External.HBond.Weighted>
0.0000

> <Gold.Goldscore.Internal.Correction.Weighted>
-0.7686

> <Gold.Rescore>
     Score     S(PLP)   S(hbond)     S(cho)   S(metal)  DE(clash)   DE(tors)     intcor
     35.38     -35.54       0.00       0.00       0.00       0.00       0.08       ----

> <Gold.PLP.Fitness>
35.3791

> <Gold.PLP.PLP>
-35.5380

> <Gold.PLP.part.hbond>
0.0000

> <Gold.PLP.part.metal>
0.0000

> <Gold.PLP.part.buried>
-2.2939

> <Gold.PLP.part.nonpolar>
-33.8304

> <Gold.PLP.part.repulsive>
0.0561

> <Gold.PLP.ligand.clash>
0.0000

> <Gold.PLP.ligand.torsion>
0.0794

> <Gold.PLP.Chemscore.Hbond>
0.0000

> <Gold.PLP.Chemscore.CHOScore>
0.0000

> <Gold.PLP.Chemscore.Metal>
0.0000

> <Gold.PLP.Chemscore.Internal.Correction>
   9.000000E+99

