#       Name:                CT1002167954
#       Creating user name   hitesit
#       Creation time:       Sun Apr 16 02:21:40 2023


#       File generated by GOLD software.
#

@<TRIPOS>MOLECULE
CT1002167954|ligand_prepared|mol2|1|dock5
    29    30     1
SMALL
NO_CHARGES


@<TRIPOS>ATOM
      1 C1          23.3609  21.4487 -13.6110 C.3            1 RES1               0.0000
      2 C2          23.7901  20.0238 -13.2058 C.ar           1 RES1               0.0000
      3 C3          24.6415  22.1953 -13.9729 C.2            1 RES1               0.0000
      4 C4          22.3860  21.2867 -14.7721 C.2            1 RES1               0.0000
      5 C5          22.6394  22.2275 -12.4866 C.3            1 RES1               0.0000
      6 C6          23.6668  18.9652 -14.1007 C.ar           1 RES1               0.0000
      7 C7          24.3126  19.7534 -11.9439 C.ar           1 RES1               0.0000
      8 N8          24.8814  22.4348 -15.2939 N.am           1 RES1               0.0000
      9 O9          25.4479  22.5337 -13.1153 O.2            1 RES1               0.0000
     10 N10         22.7645  21.7637 -15.9997 N.am           1 RES1               0.0000
     11 O11         21.3005  20.7353 -14.6387 O.2            1 RES1               0.0000
     12 C12         22.0278  23.5416 -12.9459 C.3            1 RES1               0.0000
     13 C13         24.0545  17.6831 -13.7480 C.ar           1 RES1               0.0000
     14 C14         24.6995  18.4705 -11.5931 C.ar           1 RES1               0.0000
     15 C15         23.9806  22.3029 -16.3200 C.2            1 RES1               0.0000
     16 C16         24.5714  17.4350 -12.4942 C.ar           1 RES1               0.0000
     17 O17         24.2661  22.6594 -17.4595 O.2            1 RES1               0.0000
     18 H18         21.8454  21.5943 -12.0719 H              1 RES1               0.0000
     19 H19         23.3574  22.4340 -11.6833 H              1 RES1               0.0000
     20 H20         23.2598  19.1408 -15.0909 H              1 RES1               0.0000
     21 H21         24.4214  20.5523 -11.2183 H              1 RES1               0.0000
     22 H22         25.8172  22.7403 -15.5417 H              1 RES1               0.0000
     23 H23         22.0758  21.7123 -16.7436 H              1 RES1               0.0000
     24 H24         21.5343  24.0474 -12.1187 H              1 RES1               0.0000
     25 H25         22.7933  24.2061 -13.3412 H              1 RES1               0.0000
     26 H26         21.2902  23.3714 -13.7275 H              1 RES1               0.0000
     27 H27         23.9504  16.8714 -14.4603 H              1 RES1               0.0000
     28 H28         25.1053  18.2797 -10.6051 H              1 RES1               0.0000
     29 H29         24.8755  16.4307 -12.2183 H              1 RES1               0.0000
@<TRIPOS>BOND
    1    1    2 1     
    2    1    3 1     
    3    1    4 1     
    4    1    5 1     
    5    2    6 ar    
    6    2    7 ar    
    7    3    8 1     
    8    3    9 2     
    9    4   10 1     
   10    4   11 2     
   11    5   12 1     
   12    5   18 1     
   13    5   19 1     
   14    6   13 ar    
   15    6   20 1     
   16    7   14 ar    
   17    7   21 1     
   18    8   15 1     
   19    8   22 1     
   20   10   15 1     
   21   10   23 1     
   22   12   24 1     
   23   12   25 1     
   24   12   26 1     
   25   13   16 ar    
   26   13   27 1     
   27   14   16 ar    
   28   14   28 1     
   29   15   17 2     
   30   16   29 1     
@<TRIPOS>SUBSTRUCTURE
      1 RES1           1
@<TRIPOS>SET
DONOR_HYDROGENS      STATIC     ATOMS    <user>   **** ""
2 22 23
ATOM$RED        STATIC     ATOMS    COLORGROUP SYSTEM
2 22 23
@<TRIPOS>COMMENT
> <Gold.Version>
2022.3.0

> <Gold.Id.Protein>
unknown|2h24_cavity_clean|pdb

> <Gold.Protein.RotatedTorsions>
[ 2130 2129 2128 2126 ] final   61.15 input   60.00 | X-H torsion
[ 2203 2194 2193 2191 ] final  -26.00 input   59.99 | X-H torsion

> <Gold.Protein.ActiveResidues>
 PHE146  TYR149  ILE150  TYR153 

> <Gold.Protein.RotatedAtoms>
   22.8908   21.3798  -22.4696 H   0  0  0  0  0  0  0  0  0  0  0  0  # atno 2130 bound_to 2129
   25.8992   20.2283   -5.3026 H   0  0  0  0  0  0  0  0  0  0  0  0  # atno 2203 bound_to 2194
   22.7350   22.7938  -21.6800 LP  0  0  0  0  0  0  0  0  0  0  0  0  # atno 2324 bound_to 2129
   21.5783   21.6489  -21.5465 LP  0  0  0  0  0  0  0  0  0  0  0  0  # atno 2325 bound_to 2129
   27.1086   19.1448   -5.1974 LP  0  0  0  0  0  0  0  0  0  0  0  0  # atno 2328 bound_to 2194
   25.6120   18.6621   -5.6376 LP  0  0  0  0  0  0  0  0  0  0  0  0  # atno 2329 bound_to 2194

> <Gold.Score>
     Fitness  S(hb_ext) S(vdw_ext)  S(hb_int)    S(int)      intcor
     24.46       0.00      18.63       0.00      -1.16      -0.77

> <Gold.Goldscore.Fitness>
24.4613

> <Gold.Goldscore.Internal.Vdw>
-1.4350

> <Gold.Goldscore.Internal.Torsion>
-0.4921

> <Gold.Goldscore.External.Vdw>
18.6326

> <Gold.Goldscore.Internal.HBond>
0.0000

> <Gold.Goldscore.External.HBond>
0.0000

> <Gold.Goldscore.Internal.Correction>
-0.7686

> <Gold.Goldscore.Internal.Vdw.Weighted>
-1.4350

> <Gold.Goldscore.Internal.Torsion.Weighted>
-0.4921

> <Gold.Goldscore.External.Vdw.Weighted>
25.6199

> <Gold.Goldscore.Internal.HBond.Weighted>
0.0000

> <Gold.Goldscore.External.HBond.Weighted>
0.0000

> <Gold.Goldscore.Internal.Correction.Weighted>
-0.7686

> <Gold.Rescore>
     Score     S(PLP)   S(hbond)     S(cho)   S(metal)  DE(clash)   DE(tors)     intcor
     29.67     -32.03       0.00       0.00       0.00       0.56       0.90       ----

> <Gold.PLP.Fitness>
29.6680

> <Gold.PLP.PLP>
-32.0264

> <Gold.PLP.part.hbond>
0.0000

> <Gold.PLP.part.metal>
0.0000

> <Gold.PLP.part.buried>
-4.9771

> <Gold.PLP.part.nonpolar>
-27.7787

> <Gold.PLP.part.repulsive>
0.0867

> <Gold.PLP.ligand.clash>
0.5585

> <Gold.PLP.ligand.torsion>
0.9000

> <Gold.PLP.Chemscore.Hbond>
0.0000

> <Gold.PLP.Chemscore.CHOScore>
0.0000

> <Gold.PLP.Chemscore.Metal>
0.0000

> <Gold.PLP.Chemscore.Internal.Correction>
   9.000000E+99

