#       Name:                GA Fitting Points
#       Creating user name   hitesit
#       Creation time:       Sun Apr 16 02:21:13 2023


#       Fitting Points Used by GA Software.
#

@<TRIPOS>MOLECULE
GA Fitting Points
 15021    0    0
SMALL
NO_CHARGES


@<TRIPOS>ATOM
      1 ****        -8.5000  12.5000  15.0000 Du        
      2 ****        -8.5000  12.5000  15.2500 Du        
      3 ****        -8.2500  12.0000  14.7500 Du        
      4 ****        -8.2500  12.2500  14.5000 Du        
      5 ****        -8.2500  12.2500  14.7500 Du        
      6 ****        -8.2500  12.2500  15.0000 Du        
      7 ****        -8.2500  12.2500  15.2500 Du        
      8 ****        -8.2500  12.2500  15.5000 Du        
      9 ****        -8.2500  12.5000  14.5000 Du        
     10 ****        -8.2500  12.5000  14.7500 Du        
     11 ****        -8.2500  12.5000  15.0000 Du        
     12 ****        -8.2500  12.5000  15.2500 Du        
     13 ****        -8.0000  12.0000  14.2500 Du        
     14 ****        -8.0000  12.0000  14.5000 Du        
     15 ****        -8.0000  12.0000  14.7500 Du        
     16 ****        -8.0000  12.0000  15.0000 Du        
     17 ****        -8.0000  12.0000  15.2500 Du        
     18 ****        -8.0000  12.0000  15.5000 Du        
     19 ****        -8.0000  12.0000  15.7500 Du        
     20 ****        -8.0000  12.2500  14.2500 Du        
     21 ****        -8.0000  12.2500  14.5000 Du        
     22 ****        -8.0000  12.2500  14.7500 Du        
     23 ****        -8.0000  12.2500  15.0000 Du        
     24 ****        -8.0000  12.2500  15.2500 Du        
     25 ****        -8.0000  12.2500  15.5000 Du        
     26 ****        -8.0000  12.2500  15.7500 Du        
     27 ****        -8.0000  12.5000  14.5000 Du        
     28 ****        -8.0000  12.5000  14.7500 Du        
     29 ****        -8.0000  12.5000  15.0000 Du        
     30 ****        -7.7500   0.2500  18.0000 Du        
     31 ****        -7.7500   0.2500  18.2500 Du        
     32 ****        -7.7500   0.2500  18.5000 Du        
     33 ****        -7.7500   0.5000  18.0000 Du        
     34 ****        -7.7500   0.5000  18.2500 Du        
     35 ****        -7.7500   0.5000  18.5000 Du        
     36 ****        -7.7500   0.5000  18.7500 Du        
     37 ****        -7.7500   0.7500  18.2500 Du        
     38 ****        -7.7500  11.7500  14.5000 Du        
     39 ****        -7.7500  11.7500  14.7500 Du        
     40 ****        -7.7500  11.7500  15.0000 Du        
     41 ****        -7.7500  11.7500  15.2500 Du        
     42 ****        -7.7500  11.7500  15.5000 Du        
     43 ****        -7.7500  12.0000  14.2500 Du        
     44 ****        -7.7500  12.0000  14.5000 Du        
     45 ****        -7.7500  12.0000  14.7500 Du        
     46 ****        -7.7500  12.0000  15.0000 Du        
     47 ****        -7.7500  12.0000  15.2500 Du        
     48 ****        -7.7500  12.0000  15.5000 Du        
     49 ****        -7.7500  12.0000  15.7500 Du        
     50 ****        -7.7500  12.2500  14.7500 Du        
     51 ****        -7.7500  12.2500  15.0000 Du        
     52 ****        -7.7500  12.2500  15.2500 Du        
     53 ****        -7.5000   0.0000  18.0000 Du        
     54 ****        -7.5000   0.0000  18.2500 Du        
     55 ****        -7.5000   0.0000  18.5000 Du        
     56 ****        -7.5000   0.2500  17.7500 Du        
     57 ****        -7.5000   0.2500  18.0000 Du        
     58 ****        -7.5000   0.2500  18.2500 Du        
     59 ****        -7.5000   0.2500  18.5000 Du        
     60 ****        -7.5000   0.2500  18.7500 Du        
     61 ****        -7.5000   0.2500  19.0000 Du        
     62 ****        -7.5000   0.2500  19.2500 Du        
     63 ****        -7.5000   0.5000  17.7500 Du        
     64 ****        -7.5000   0.5000  18.0000 Du        
     65 ****        -7.5000   0.5000  18.2500 Du        
     66 ****        -7.5000   0.5000  18.5000 Du        
     67 ****        -7.5000   0.5000  18.7500 Du        
     68 ****        -7.5000   0.5000  19.0000 Du        
     69 ****        -7.5000   0.5000  19.2500 Du        
     70 ****        -7.5000   0.5000  19.5000 Du        
     71 ****        -7.5000   0.7500  17.5000 Du        
     72 ****        -7.5000   0.7500  17.7500 Du        
     73 ****        -7.5000   0.7500  18.0000 Du        
     74 ****        -7.5000   0.7500  18.2500 Du        
     75 ****        -7.5000   0.7500  18.5000 Du        
     76 ****        -7.5000   0.7500  18.7500 Du        
     77 ****        -7.5000   0.7500  19.0000 Du        
     78 ****        -7.5000   0.7500  19.2500 Du        
     79 ****        -7.5000   0.7500  19.5000 Du        
     80 ****        -7.5000   1.0000  17.7500 Du        
     81 ****        -7.5000  11.7500  14.7500 Du        
     82 ****        -7.5000  11.7500  15.0000 Du        
     83 ****        -7.5000  11.7500  15.2500 Du        
     84 ****        -7.5000  11.7500  15.5000 Du        
     85 ****        -7.5000  12.0000  15.2500 Du        
     86 ****        -7.2500   0.0000  18.0000 Du        
     87 ****        -7.2500   0.0000  18.2500 Du        
     88 ****        -7.2500   0.0000  18.5000 Du        
     89 ****        -7.2500   0.0000  18.7500 Du        
     90 ****        -7.2500   0.0000  19.0000 Du        
     91 ****        -7.2500   0.2500  17.7500 Du        
     92 ****        -7.2500   0.2500  18.0000 Du        
     93 ****        -7.2500   0.2500  18.2500 Du        
     94 ****        -7.2500   0.2500  18.5000 Du        
     95 ****        -7.2500   0.2500  18.7500 Du        
     96 ****        -7.2500   0.2500  19.0000 Du        
     97 ****        -7.2500   0.2500  19.2500 Du        
     98 ****        -7.2500   0.2500  19.5000 Du        
     99 ****        -7.2500   0.5000  17.5000 Du        
    100 ****        -7.2500   0.5000  17.7500 Du        
    101 ****        -7.2500   0.5000  18.0000 Du        
    102 ****        -7.2500   0.5000  18.2500 Du        
    103 ****        -7.2500   0.5000  18.5000 Du        
    104 ****        -7.2500   0.5000  18.7500 Du        
    105 ****        -7.2500   0.5000  19.0000 Du        
    106 ****        -7.2500   0.5000  19.2500 Du        
    107 ****        -7.2500   0.5000  19.5000 Du        
    108 ****        -7.2500   0.5000  19.7500 Du        
    109 ****        -7.2500   0.7500  17.2500 Du        
    110 ****        -7.2500   0.7500  17.5000 Du        
    111 ****        -7.2500   0.7500  17.7500 Du        
    112 ****        -7.2500   0.7500  18.0000 Du        
    113 ****        -7.2500   0.7500  18.2500 Du        
    114 ****        -7.2500   0.7500  18.5000 Du        
    115 ****        -7.2500   0.7500  18.7500 Du        
    116 ****        -7.2500   0.7500  19.0000 Du        
    117 ****        -7.2500   0.7500  19.2500 Du        
    118 ****        -7.2500   0.7500  19.5000 Du        
    119 ****        -7.2500   0.7500  19.7500 Du        
    120 ****        -7.2500   1.0000  17.2500 Du        
    121 ****        -7.2500   1.0000  17.5000 Du        
    122 ****        -7.2500   1.0000  17.7500 Du        
    123 ****        -7.2500   1.0000  18.0000 Du        
    124 ****        -7.2500   1.0000  18.2500 Du        
    125 ****        -7.2500   1.0000  18.5000 Du        
    126 ****        -7.2500   1.0000  18.7500 Du        
    127 ****        -7.2500   1.0000  19.0000 Du        
    128 ****        -7.2500   1.0000  19.2500 Du        
    129 ****        -7.2500   1.0000  19.5000 Du        
    130 ****        -7.0000  -0.2500  18.5000 Du        
    131 ****        -7.0000  -0.2500  18.7500 Du        
    132 ****        -7.0000   0.0000  18.2500 Du        
    133 ****        -7.0000   0.0000  18.5000 Du        
    134 ****        -7.0000   0.0000  18.7500 Du        
    135 ****        -7.0000   0.0000  19.0000 Du        
    136 ****        -7.0000   0.0000  19.2500 Du        
    137 ****        -7.0000   0.2500  18.0000 Du        
    138 ****        -7.0000   0.2500  18.2500 Du        
    139 ****        -7.0000   0.2500  18.5000 Du        
    140 ****        -7.0000   0.2500  18.7500 Du        
    141 ****        -7.0000   0.2500  19.0000 Du        
    142 ****        -7.0000   0.2500  19.2500 Du        
    143 ****        -7.0000   0.2500  19.5000 Du        
    144 ****        -7.0000   0.5000  17.7500 Du        
    145 ****        -7.0000   0.5000  18.0000 Du        
    146 ****        -7.0000   0.5000  18.2500 Du        
    147 ****        -7.0000   0.5000  18.5000 Du        
    148 ****        -7.0000   0.5000  18.7500 Du        
    149 ****        -7.0000   0.5000  19.0000 Du        
    150 ****        -7.0000   0.5000  19.2500 Du        
    151 ****        -7.0000   0.5000  19.5000 Du        
    152 ****        -7.0000   0.5000  19.7500 Du        
    153 ****        -7.0000   0.7500  17.2500 Du        
    154 ****        -7.0000   0.7500  17.5000 Du        
    155 ****        -7.0000   0.7500  17.7500 Du        
    156 ****        -7.0000   0.7500  18.0000 Du        
    157 ****        -7.0000   0.7500  18.2500 Du        
    158 ****        -7.0000   0.7500  18.5000 Du        
    159 ****        -7.0000   0.7500  18.7500 Du        
    160 ****        -7.0000   0.7500  19.0000 Du        
    161 ****        -7.0000   0.7500  19.2500 Du        
    162 ****        -7.0000   0.7500  19.5000 Du        
    163 ****        -7.0000   0.7500  19.7500 Du        
    164 ****        -7.0000   0.7500  20.0000 Du        
    165 ****        -7.0000   1.0000  17.0000 Du        
    166 ****        -7.0000   1.0000  17.2500 Du        
    167 ****        -7.0000   1.0000  17.5000 Du        
    168 ****        -7.0000   1.0000  17.7500 Du        
    169 ****        -7.0000   1.0000  18.0000 Du        
    170 ****        -7.0000   1.0000  18.2500 Du        
    171 ****        -7.0000   1.0000  18.5000 Du        
    172 ****        -7.0000   1.0000  18.7500 Du        
    173 ****        -7.0000   1.0000  19.0000 Du        
    174 ****        -7.0000   1.0000  19.2500 Du        
    175 ****        -7.0000   1.0000  19.5000 Du        
    176 ****        -7.0000   1.0000  19.7500 Du        
    177 ****        -7.0000   1.2500  17.0000 Du        
    178 ****        -7.0000   1.2500  17.2500 Du        
    179 ****        -7.0000   1.2500  17.5000 Du        
    180 ****        -7.0000   1.2500  17.7500 Du        
    181 ****        -7.0000   1.2500  18.0000 Du        
    182 ****        -7.0000   1.2500  18.2500 Du        
    183 ****        -6.7500  -6.2500   7.0000 Du        
    184 ****        -6.7500  -6.0000   7.0000 Du        
    185 ****        -6.7500  -5.7500   7.0000 Du        
    186 ****        -6.7500  -0.2500  18.7500 Du        
    187 ****        -6.7500  -0.2500  19.0000 Du        
    188 ****        -6.7500   0.0000  18.2500 Du        
    189 ****        -6.7500   0.0000  18.5000 Du        
    190 ****        -6.7500   0.0000  18.7500 Du        
    191 ****        -6.7500   0.0000  19.0000 Du        
    192 ****        -6.7500   0.0000  19.2500 Du        
    193 ****        -6.7500   0.2500  18.0000 Du        
    194 ****        -6.7500   0.2500  18.2500 Du        
    195 ****        -6.7500   0.2500  18.5000 Du        
    196 ****        -6.7500   0.2500  18.7500 Du        
    197 ****        -6.7500   0.2500  19.0000 Du        
    198 ****        -6.7500   0.2500  19.2500 Du        
    199 ****        -6.7500   0.2500  19.5000 Du        
    200 ****        -6.7500   0.2500  19.7500 Du        
    201 ****        -6.7500   0.5000  17.7500 Du        
    202 ****        -6.7500   0.5000  18.0000 Du        
    203 ****        -6.7500   0.5000  18.2500 Du        
    204 ****        -6.7500   0.5000  18.5000 Du        
    205 ****        -6.7500   0.5000  18.7500 Du        
    206 ****        -6.7500   0.5000  19.0000 Du        
    207 ****        -6.7500   0.5000  19.2500 Du        
    208 ****        -6.7500   0.5000  19.5000 Du        
    209 ****        -6.7500   0.5000  19.7500 Du        
    210 ****        -6.7500   0.5000  20.0000 Du        
    211 ****        -6.7500   0.7500  17.5000 Du        
    212 ****        -6.7500   0.7500  17.7500 Du        
    213 ****        -6.7500   0.7500  18.0000 Du        
    214 ****        -6.7500   0.7500  18.2500 Du        
    215 ****        -6.7500   0.7500  18.5000 Du        
    216 ****        -6.7500   0.7500  18.7500 Du        
    217 ****        -6.7500   0.7500  19.0000 Du        
    218 ****        -6.7500   0.7500  19.2500 Du        
    219 ****        -6.7500   0.7500  19.5000 Du        
    220 ****        -6.7500   0.7500  19.7500 Du        
    221 ****        -6.7500   0.7500  20.0000 Du        
    222 ****        -6.7500   1.0000  17.0000 Du        
    223 ****        -6.7500   1.0000  17.2500 Du        
    224 ****        -6.7500   1.0000  17.5000 Du        
    225 ****        -6.7500   1.0000  17.7500 Du        
    226 ****        -6.7500   1.0000  18.0000 Du        
    227 ****        -6.7500   1.0000  18.2500 Du        
    228 ****        -6.7500   1.0000  18.5000 Du        
    229 ****        -6.7500   1.0000  18.7500 Du        
    230 ****        -6.7500   1.0000  19.0000 Du        
    231 ****        -6.7500   1.0000  19.2500 Du        
    232 ****        -6.7500   1.0000  19.5000 Du        
    233 ****        -6.7500   1.0000  19.7500 Du        
    234 ****        -6.7500   1.0000  20.0000 Du        
    235 ****        -6.7500   1.2500  16.7500 Du        
    236 ****        -6.7500   1.2500  17.0000 Du        
    237 ****        -6.7500   1.2500  17.2500 Du        
    238 ****        -6.7500   1.2500  17.5000 Du        
    239 ****        -6.7500   1.2500  17.7500 Du        
    240 ****        -6.7500   1.2500  18.0000 Du        
    241 ****        -6.7500   1.2500  18.2500 Du        
    242 ****        -6.7500   1.2500  18.5000 Du        
    243 ****        -6.7500   1.2500  18.7500 Du        
    244 ****        -6.7500   1.2500  19.0000 Du        
    245 ****        -6.7500   1.2500  19.2500 Du        
    246 ****        -6.7500   1.2500  19.5000 Du        
    247 ****        -6.7500   1.2500  19.7500 Du        
    248 ****        -6.7500   1.5000  16.7500 Du        
    249 ****        -6.7500   1.5000  17.0000 Du        
    250 ****        -6.7500   1.5000  17.2500 Du        
    251 ****        -6.7500   1.5000  17.5000 Du        
    252 ****        -6.7500   1.5000  17.7500 Du        
    253 ****        -6.5000  -6.2500   7.0000 Du        
    254 ****        -6.5000  -6.2500   7.2500 Du        
    255 ****        -6.5000  -6.0000   7.0000 Du        
    256 ****        -6.5000  -6.0000   7.2500 Du        
    257 ****        -6.5000  -5.7500   7.0000 Du        
    258 ****        -6.5000  -5.7500   7.2500 Du        
    259 ****        -6.5000  -5.5000   7.0000 Du        
    260 ****        -6.5000  -5.5000   7.2500 Du        
    261 ****        -6.5000  -5.2500   6.5000 Du        
    262 ****        -6.5000  -5.2500   6.7500 Du        
    263 ****        -6.5000  -0.2500  18.7500 Du        
    264 ****        -6.5000  -0.2500  19.0000 Du        
    265 ****        -6.5000   0.0000  18.5000 Du        
    266 ****        -6.5000   0.0000  18.7500 Du        
    267 ****        -6.5000   0.0000  19.0000 Du        
    268 ****        -6.5000   0.0000  19.2500 Du        
    269 ****        -6.5000   0.0000  19.5000 Du        
    270 ****        -6.5000   0.2500  18.0000 Du        
    271 ****        -6.5000   0.2500  18.2500 Du        
    272 ****        -6.5000   0.2500  18.5000 Du        
    273 ****        -6.5000   0.2500  18.7500 Du        
    274 ****        -6.5000   0.2500  19.0000 Du        
    275 ****        -6.5000   0.2500  19.2500 Du        
    276 ****        -6.5000   0.2500  19.5000 Du        
    277 ****        -6.5000   0.2500  19.7500 Du        
    278 ****        -6.5000   0.5000  17.7500 Du        
    279 ****        -6.5000   0.5000  18.0000 Du        
    280 ****        -6.5000   0.5000  18.2500 Du        
    281 ****        -6.5000   0.5000  18.5000 Du        
    282 ****        -6.5000   0.5000  18.7500 Du        
    283 ****        -6.5000   0.5000  19.0000 Du        
    284 ****        -6.5000   0.5000  19.2500 Du        
    285 ****        -6.5000   0.5000  19.5000 Du        
    286 ****        -6.5000   0.5000  19.7500 Du        
    287 ****        -6.5000   0.5000  20.0000 Du        
    288 ****        -6.5000   0.7500  17.5000 Du        
    289 ****        -6.5000   0.7500  17.7500 Du        
    290 ****        -6.5000   0.7500  18.0000 Du        
    291 ****        -6.5000   0.7500  18.2500 Du        
    292 ****        -6.5000   0.7500  18.5000 Du        
    293 ****        -6.5000   0.7500  18.7500 Du        
    294 ****        -6.5000   0.7500  19.0000 Du        
    295 ****        -6.5000   0.7500  19.2500 Du        
    296 ****        -6.5000   0.7500  19.5000 Du        
    297 ****        -6.5000   0.7500  19.7500 Du        
    298 ****        -6.5000   0.7500  20.0000 Du        
    299 ****        -6.5000   0.7500  20.2500 Du        
    300 ****        -6.5000   1.0000  17.0000 Du        
    301 ****        -6.5000   1.0000  17.2500 Du        
    302 ****        -6.5000   1.0000  17.5000 Du        
    303 ****        -6.5000   1.0000  17.7500 Du        
    304 ****        -6.5000   1.0000  18.0000 Du        
    305 ****        -6.5000   1.0000  18.2500 Du        
    306 ****        -6.5000   1.0000  18.5000 Du        
    307 ****        -6.5000   1.0000  18.7500 Du        
    308 ****        -6.5000   1.0000  19.0000 Du        
    309 ****        -6.5000   1.0000  19.2500 Du        
    310 ****        -6.5000   1.0000  19.5000 Du        
    311 ****        -6.5000   1.0000  19.7500 Du        
    312 ****        -6.5000   1.0000  20.0000 Du        
    313 ****        -6.5000   1.0000  20.2500 Du        
    314 ****        -6.5000   1.2500  16.5000 Du        
    315 ****        -6.5000   1.2500  16.7500 Du        
    316 ****        -6.5000   1.2500  17.0000 Du        
    317 ****        -6.5000   1.2500  17.2500 Du        
    318 ****        -6.5000   1.2500  17.5000 Du        
    319 ****        -6.5000   1.2500  17.7500 Du        
    320 ****        -6.5000   1.2500  18.0000 Du        
    321 ****        -6.5000   1.2500  18.2500 Du        
    322 ****        -6.5000   1.2500  18.5000 Du        
    323 ****        -6.5000   1.2500  18.7500 Du        
    324 ****        -6.5000   1.2500  19.0000 Du        
    325 ****        -6.5000   1.2500  19.2500 Du        
    326 ****        -6.5000   1.2500  19.5000 Du        
    327 ****        -6.5000   1.2500  19.7500 Du        
    328 ****        -6.5000   1.2500  20.0000 Du        
    329 ****        -6.5000   1.5000  16.5000 Du        
    330 ****        -6.5000   1.5000  16.7500 Du        
    331 ****        -6.5000   1.5000  17.0000 Du        
    332 ****        -6.5000   1.5000  17.2500 Du        
    333 ****        -6.5000   1.5000  17.5000 Du        
    334 ****        -6.5000   1.5000  17.7500 Du        
    335 ****        -6.5000   1.5000  18.0000 Du        
    336 ****        -6.5000   1.5000  18.2500 Du        
    337 ****        -6.5000   1.5000  18.5000 Du        
    338 ****        -6.5000   1.7500  16.7500 Du        
    339 ****        -6.5000   1.7500  17.0000 Du        
    340 ****        -6.5000   1.7500  17.2500 Du        
    341 ****        -6.2500  -6.2500   7.0000 Du        
    342 ****        -6.2500  -6.2500   7.2500 Du        
    343 ****        -6.2500  -6.2500   7.5000 Du        
    344 ****        -6.2500  -6.0000   7.0000 Du        
    345 ****        -6.2500  -6.0000   7.2500 Du        
    346 ****        -6.2500  -6.0000   7.5000 Du        
    347 ****        -6.2500  -5.7500   6.5000 Du        
    348 ****        -6.2500  -5.7500   6.7500 Du        
    349 ****        -6.2500  -5.7500   7.0000 Du        
    350 ****        -6.2500  -5.7500   7.2500 Du        
    351 ****        -6.2500  -5.7500   7.5000 Du        
    352 ****        -6.2500  -5.5000   6.5000 Du        
    353 ****        -6.2500  -5.5000   6.7500 Du        
    354 ****        -6.2500  -5.5000   7.0000 Du        
    355 ****        -6.2500  -5.5000   7.2500 Du        
    356 ****        -6.2500  -5.5000   7.5000 Du        
    357 ****        -6.2500  -5.2500   6.5000 Du        
    358 ****        -6.2500  -5.2500   6.7500 Du        
    359 ****        -6.2500  -5.2500   7.0000 Du        
    360 ****        -6.2500  -5.2500   7.2500 Du        
    361 ****        -6.2500  -5.0000   6.5000 Du        
    362 ****        -6.2500  -5.0000   6.7500 Du        
    363 ****        -6.2500  -5.0000   7.0000 Du        
    364 ****        -6.2500  -4.7500   6.0000 Du        
    365 ****        -6.2500  -4.7500   6.2500 Du        
    366 ****        -6.2500  -0.2500  19.0000 Du        
    367 ****        -6.2500  -0.2500  19.2500 Du        
    368 ****        -6.2500   0.0000  18.5000 Du        
    369 ****        -6.2500   0.0000  18.7500 Du        
    370 ****        -6.2500   0.0000  19.0000 Du        
    371 ****        -6.2500   0.0000  19.2500 Du        
    372 ****        -6.2500   0.0000  19.5000 Du        
    373 ****        -6.2500   0.2500  18.2500 Du        
    374 ****        -6.2500   0.2500  18.5000 Du        
    375 ****        -6.2500   0.2500  18.7500 Du        
    376 ****        -6.2500   0.2500  19.0000 Du        
    377 ****        -6.2500   0.2500  19.2500 Du        
    378 ****        -6.2500   0.2500  19.5000 Du        
    379 ****        -6.2500   0.2500  19.7500 Du        
    380 ****        -6.2500   0.2500  20.0000 Du        
    381 ****        -6.2500   0.5000  17.7500 Du        
    382 ****        -6.2500   0.5000  18.0000 Du        
    383 ****        -6.2500   0.5000  18.2500 Du        
    384 ****        -6.2500   0.5000  18.5000 Du        
    385 ****        -6.2500   0.5000  18.7500 Du        
    386 ****        -6.2500   0.5000  19.0000 Du        
    387 ****        -6.2500   0.5000  19.2500 Du        
    388 ****        -6.2500   0.5000  19.5000 Du        
    389 ****        -6.2500   0.5000  19.7500 Du        
    390 ****        -6.2500   0.5000  20.0000 Du        
    391 ****        -6.2500   0.5000  20.2500 Du        
    392 ****        -6.2500   0.7500  17.5000 Du        
    393 ****        -6.2500   0.7500  17.7500 Du        
    394 ****        -6.2500   0.7500  18.0000 Du        
    395 ****        -6.2500   0.7500  18.2500 Du        
    396 ****        -6.2500   0.7500  18.5000 Du        
    397 ****        -6.2500   0.7500  18.7500 Du        
    398 ****        -6.2500   0.7500  19.0000 Du        
    399 ****        -6.2500   0.7500  19.2500 Du        
    400 ****        -6.2500   0.7500  19.5000 Du        
    401 ****        -6.2500   0.7500  19.7500 Du        
    402 ****        -6.2500   0.7500  20.0000 Du        
    403 ****        -6.2500   0.7500  20.2500 Du        
    404 ****        -6.2500   1.0000  17.0000 Du        
    405 ****        -6.2500   1.0000  17.2500 Du        
    406 ****        -6.2500   1.0000  17.5000 Du        
    407 ****        -6.2500   1.0000  17.7500 Du        
    408 ****        -6.2500   1.0000  18.0000 Du        
    409 ****        -6.2500   1.0000  18.2500 Du        
    410 ****        -6.2500   1.0000  18.5000 Du        
    411 ****        -6.2500   1.0000  18.7500 Du        
    412 ****        -6.2500   1.0000  19.0000 Du        
    413 ****        -6.2500   1.0000  19.2500 Du        
    414 ****        -6.2500   1.0000  19.5000 Du        
    415 ****        -6.2500   1.0000  19.7500 Du        
    416 ****        -6.2500   1.0000  20.0000 Du        
    417 ****        -6.2500   1.0000  20.2500 Du        
    418 ****        -6.2500   1.2500  16.5000 Du        
    419 ****        -6.2500   1.2500  16.7500 Du        
    420 ****        -6.2500   1.2500  17.0000 Du        
    421 ****        -6.2500   1.2500  17.2500 Du        
    422 ****        -6.2500   1.2500  17.5000 Du        
    423 ****        -6.2500   1.2500  17.7500 Du        
    424 ****        -6.2500   1.2500  18.0000 Du        
    425 ****        -6.2500   1.2500  18.2500 Du        
    426 ****        -6.2500   1.2500  18.5000 Du        
    427 ****        -6.2500   1.2500  18.7500 Du        
    428 ****        -6.2500   1.2500  19.0000 Du        
    429 ****        -6.2500   1.2500  19.2500 Du        
    430 ****        -6.2500   1.2500  19.5000 Du        
    431 ****        -6.2500   1.2500  19.7500 Du        
    432 ****        -6.2500   1.2500  20.0000 Du        
    433 ****        -6.2500   1.2500  20.2500 Du        
    434 ****        -6.2500   1.5000  16.0000 Du        
    435 ****        -6.2500   1.5000  16.2500 Du        
    436 ****        -6.2500   1.5000  16.5000 Du        
    437 ****        -6.2500   1.5000  16.7500 Du        
    438 ****        -6.2500   1.5000  17.0000 Du        
    439 ****        -6.2500   1.5000  17.2500 Du        
    440 ****        -6.2500   1.5000  17.5000 Du        
    441 ****        -6.2500   1.5000  17.7500 Du        
    442 ****        -6.2500   1.5000  18.0000 Du        
    443 ****        -6.2500   1.5000  18.2500 Du        
    444 ****        -6.2500   1.5000  18.5000 Du        
    445 ****        -6.2500   1.5000  18.7500 Du        
    446 ****        -6.2500   1.5000  19.0000 Du        
    447 ****        -6.2500   1.5000  19.2500 Du        
    448 ****        -6.2500   1.5000  19.5000 Du        
    449 ****        -6.2500   1.5000  19.7500 Du        
    450 ****        -6.2500   1.5000  20.0000 Du        
    451 ****        -6.2500   1.7500  16.0000 Du        
    452 ****        -6.2500   1.7500  16.2500 Du        
    453 ****        -6.2500   1.7500  16.5000 Du        
    454 ****        -6.2500   1.7500  16.7500 Du        
    455 ****        -6.2500   1.7500  17.0000 Du        
    456 ****        -6.2500   1.7500  17.2500 Du        
    457 ****        -6.2500   1.7500  17.5000 Du        
    458 ****        -6.2500   1.7500  17.7500 Du        
    459 ****        -6.2500   1.7500  18.0000 Du        
    460 ****        -6.2500   1.7500  18.2500 Du        
    461 ****        -6.2500  10.7500  14.0000 Du        
    462 ****        -6.0000  -6.2500   7.0000 Du        
    463 ****        -6.0000  -6.2500   7.2500 Du        
    464 ****        -6.0000  -6.2500   7.5000 Du        
    465 ****        -6.0000  -6.0000   7.0000 Du        
    466 ****        -6.0000  -6.0000   7.2500 Du        
    467 ****        -6.0000  -6.0000   7.5000 Du        
    468 ****        -6.0000  -6.0000   7.7500 Du        
    469 ****        -6.0000  -5.7500   6.5000 Du        
    470 ****        -6.0000  -5.7500   6.7500 Du        
    471 ****        -6.0000  -5.7500   7.0000 Du        
    472 ****        -6.0000  -5.7500   7.2500 Du        
    473 ****        -6.0000  -5.7500   7.5000 Du        
    474 ****        -6.0000  -5.5000   6.5000 Du        
    475 ****        -6.0000  -5.5000   6.7500 Du        
    476 ****        -6.0000  -5.5000   7.0000 Du        
    477 ****        -6.0000  -5.5000   7.2500 Du        
    478 ****        -6.0000  -5.5000   7.5000 Du        
    479 ****        -6.0000  -5.2500   6.5000 Du        
    480 ****        -6.0000  -5.2500   6.7500 Du        
    481 ****        -6.0000  -5.2500   7.0000 Du        
    482 ****        -6.0000  -5.2500   7.2500 Du        
    483 ****        -6.0000  -5.2500   7.5000 Du        
    484 ****        -6.0000  -5.0000   6.5000 Du        
    485 ****        -6.0000  -5.0000   6.7500 Du        
    486 ****        -6.0000  -5.0000   7.0000 Du        
    487 ****        -6.0000  -5.0000   7.2500 Du        
    488 ****        -6.0000  -5.0000   7.5000 Du        
    489 ****        -6.0000  -4.7500   6.0000 Du        
    490 ****        -6.0000  -4.7500   6.2500 Du        
    491 ****        -6.0000  -4.7500   6.5000 Du        
    492 ****        -6.0000  -4.7500   6.7500 Du        
    493 ****        -6.0000  -4.7500   7.0000 Du        
    494 ****        -6.0000  -4.7500   7.2500 Du        
    495 ****        -6.0000  -0.2500  19.2500 Du        
    496 ****        -6.0000   0.0000  18.5000 Du        
    497 ****        -6.0000   0.0000  18.7500 Du        
    498 ****        -6.0000   0.0000  19.0000 Du        
    499 ****        -6.0000   0.0000  19.2500 Du        
    500 ****        -6.0000   0.0000  19.5000 Du        
    501 ****        -6.0000   0.0000  19.7500 Du        
    502 ****        -6.0000   0.2500  18.2500 Du        
    503 ****        -6.0000   0.2500  18.5000 Du        
    504 ****        -6.0000   0.2500  18.7500 Du        
    505 ****        -6.0000   0.2500  19.0000 Du        
    506 ****        -6.0000   0.2500  19.2500 Du        
    507 ****        -6.0000   0.2500  19.5000 Du        
    508 ****        -6.0000   0.2500  19.7500 Du        
    509 ****        -6.0000   0.2500  20.0000 Du        
    510 ****        -6.0000   0.2500  20.2500 Du        
    511 ****        -6.0000   0.5000  18.0000 Du        
    512 ****        -6.0000   0.5000  18.2500 Du        
    513 ****        -6.0000   0.5000  18.5000 Du        
    514 ****        -6.0000   0.5000  18.7500 Du        
    515 ****        -6.0000   0.5000  19.0000 Du        
    516 ****        -6.0000   0.5000  19.2500 Du        
    517 ****        -6.0000   0.5000  19.5000 Du        
    518 ****        -6.0000   0.5000  19.7500 Du        
    519 ****        -6.0000   0.5000  20.0000 Du        
    520 ****        -6.0000   0.5000  20.2500 Du        
    521 ****        -6.0000   0.7500  17.5000 Du        
    522 ****        -6.0000   0.7500  17.7500 Du        
    523 ****        -6.0000   0.7500  18.0000 Du        
    524 ****        -6.0000   0.7500  18.2500 Du        
    525 ****        -6.0000   0.7500  18.5000 Du        
    526 ****        -6.0000   0.7500  18.7500 Du        
    527 ****        -6.0000   0.7500  19.0000 Du        
    528 ****        -6.0000   0.7500  19.2500 Du        
    529 ****        -6.0000   0.7500  19.5000 Du        
    530 ****        -6.0000   0.7500  19.7500 Du        
    531 ****        -6.0000   0.7500  20.0000 Du        
    532 ****        -6.0000   0.7500  20.2500 Du        
    533 ****        -6.0000   0.7500  20.5000 Du        
    534 ****        -6.0000   1.0000  17.0000 Du        
    535 ****        -6.0000   1.0000  17.2500 Du        
    536 ****        -6.0000   1.0000  17.5000 Du        
    537 ****        -6.0000   1.0000  17.7500 Du        
    538 ****        -6.0000   1.0000  18.0000 Du        
    539 ****        -6.0000   1.0000  18.2500 Du        
    540 ****        -6.0000   1.0000  18.5000 Du        
    541 ****        -6.0000   1.0000  18.7500 Du        
    542 ****        -6.0000   1.0000  19.0000 Du        
    543 ****        -6.0000   1.0000  19.2500 Du        
    544 ****        -6.0000   1.0000  19.5000 Du        
    545 ****        -6.0000   1.0000  19.7500 Du        
    546 ****        -6.0000   1.0000  20.0000 Du        
    547 ****        -6.0000   1.0000  20.2500 Du        
    548 ****        -6.0000   1.0000  20.5000 Du        
    549 ****        -6.0000   1.2500  16.2500 Du        
    550 ****        -6.0000   1.2500  16.5000 Du        
    551 ****        -6.0000   1.2500  16.7500 Du        
    552 ****        -6.0000   1.2500  17.0000 Du        
    553 ****        -6.0000   1.2500  17.2500 Du        
    554 ****        -6.0000   1.2500  17.5000 Du        
    555 ****        -6.0000   1.2500  17.7500 Du        
    556 ****        -6.0000   1.2500  18.0000 Du        
    557 ****        -6.0000   1.2500  18.2500 Du        
    558 ****        -6.0000   1.2500  18.5000 Du        
    559 ****        -6.0000   1.2500  18.7500 Du        
    560 ****        -6.0000   1.2500  19.0000 Du        
    561 ****        -6.0000   1.2500  19.2500 Du        
    562 ****        -6.0000   1.2500  19.5000 Du        
    563 ****        -6.0000   1.2500  19.7500 Du        
    564 ****        -6.0000   1.2500  20.0000 Du        
    565 ****        -6.0000   1.2500  20.2500 Du        
    566 ****        -6.0000   1.5000  15.7500 Du        
    567 ****        -6.0000   1.5000  16.0000 Du        
    568 ****        -6.0000   1.5000  16.2500 Du        
    569 ****        -6.0000   1.5000  16.5000 Du        
    570 ****        -6.0000   1.5000  16.7500 Du        
    571 ****        -6.0000   1.5000  17.0000 Du        
    572 ****        -6.0000   1.5000  17.2500 Du        
    573 ****        -6.0000   1.5000  17.5000 Du        
    574 ****        -6.0000   1.5000  17.7500 Du        
    575 ****        -6.0000   1.5000  18.0000 Du        
    576 ****        -6.0000   1.5000  18.2500 Du        
    577 ****        -6.0000   1.5000  18.5000 Du        
    578 ****        -6.0000   1.5000  18.7500 Du        
    579 ****        -6.0000   1.5000  19.0000 Du        
    580 ****        -6.0000   1.5000  19.2500 Du        
    581 ****        -6.0000   1.5000  19.5000 Du        
    582 ****        -6.0000   1.5000  19.7500 Du        
    583 ****        -6.0000   1.5000  20.0000 Du        
    584 ****        -6.0000   1.5000  20.2500 Du        
    585 ****        -6.0000   1.7500  15.7500 Du        
    586 ****        -6.0000   1.7500  16.0000 Du        
    587 ****        -6.0000   1.7500  16.2500 Du        
    588 ****        -6.0000   1.7500  16.5000 Du        
    589 ****        -6.0000   1.7500  16.7500 Du        
    590 ****        -6.0000   1.7500  17.0000 Du        
    591 ****        -6.0000   1.7500  17.2500 Du        
    592 ****        -6.0000   1.7500  17.5000 Du        
    593 ****        -6.0000   1.7500  17.7500 Du        
    594 ****        -6.0000   1.7500  18.0000 Du        
    595 ****        -6.0000   1.7500  18.2500 Du        
    596 ****        -6.0000   1.7500  18.5000 Du        
    597 ****        -6.0000   1.7500  18.7500 Du        
    598 ****        -6.0000   1.7500  19.0000 Du        
    599 ****        -6.0000   1.7500  19.2500 Du        
    600 ****        -6.0000   1.7500  19.5000 Du        
    601 ****        -6.0000   1.7500  19.7500 Du        
    602 ****        -6.0000   2.0000  16.0000 Du        
    603 ****        -6.0000   2.0000  16.2500 Du        
    604 ****        -6.0000   2.0000  16.5000 Du        
    605 ****        -6.0000   2.0000  16.7500 Du        
    606 ****        -6.0000   2.0000  17.0000 Du        
    607 ****        -6.0000   2.0000  17.2500 Du        
    608 ****        -6.0000   2.0000  17.5000 Du        
    609 ****        -6.0000   2.0000  17.7500 Du        
    610 ****        -6.0000   2.0000  18.0000 Du        
    611 ****        -6.0000   2.0000  18.2500 Du        
    612 ****        -6.0000  10.2500  13.5000 Du        
    613 ****        -6.0000  10.2500  13.7500 Du        
    614 ****        -6.0000  10.2500  14.0000 Du        
    615 ****        -6.0000  10.5000  13.7500 Du        
    616 ****        -6.0000  10.5000  14.0000 Du        
    617 ****        -6.0000  10.5000  14.2500 Du        
    618 ****        -6.0000  10.7500  14.0000 Du        
    619 ****        -6.0000  10.7500  14.2500 Du        
    620 ****        -6.0000  10.7500  14.5000 Du        
    621 ****        -5.7500  -6.5000   7.2500 Du        
    622 ****        -5.7500  -6.5000   7.5000 Du        
    623 ****        -5.7500  -6.2500   7.0000 Du        
    624 ****        -5.7500  -6.2500   7.2500 Du        
    625 ****        -5.7500  -6.2500   7.5000 Du        
    626 ****        -5.7500  -6.2500   7.7500 Du        
    627 ****        -5.7500  -6.0000   7.0000 Du        
    628 ****        -5.7500  -6.0000   7.2500 Du        
    629 ****        -5.7500  -6.0000   7.5000 Du        
    630 ****        -5.7500  -6.0000   7.7500 Du        
    631 ****        -5.7500  -5.7500   7.0000 Du        
    632 ****        -5.7500  -5.7500   7.2500 Du        
    633 ****        -5.7500  -5.7500   7.5000 Du        
    634 ****        -5.7500  -5.7500   7.7500 Du        
    635 ****        -5.7500  -5.5000   6.7500 Du        
    636 ****        -5.7500  -5.5000   7.0000 Du        
    637 ****        -5.7500  -5.5000   7.2500 Du        
    638 ****        -5.7500  -5.5000   7.5000 Du        
    639 ****        -5.7500  -5.5000   7.7500 Du        
    640 ****        -5.7500  -5.2500   6.7500 Du        
    641 ****        -5.7500  -5.2500   7.0000 Du        
    642 ****        -5.7500  -5.2500   7.2500 Du        
    643 ****        -5.7500  -5.2500   7.5000 Du        
    644 ****        -5.7500  -5.2500   7.7500 Du        
    645 ****        -5.7500  -5.0000   6.5000 Du        
    646 ****        -5.7500  -5.0000   6.7500 Du        
    647 ****        -5.7500  -5.0000   7.0000 Du        
    648 ****        -5.7500  -5.0000   7.2500 Du        
    649 ****        -5.7500  -5.0000   7.5000 Du        
    650 ****        -5.7500  -4.7500   6.5000 Du        
    651 ****        -5.7500  -4.7500   6.7500 Du        
    652 ****        -5.7500  -4.7500   7.0000 Du        
    653 ****        -5.7500  -4.7500   7.2500 Du        
    654 ****        -5.7500  -4.7500   7.5000 Du        
    655 ****        -5.7500  -4.5000   6.5000 Du        
    656 ****        -5.7500  -4.5000   6.7500 Du        
    657 ****        -5.7500  -4.5000   7.0000 Du        
    658 ****        -5.7500  -4.5000   7.2500 Du        
    659 ****        -5.7500   0.0000  18.7500 Du        
    660 ****        -5.7500   0.0000  19.0000 Du        
    661 ****        -5.7500   0.0000  19.2500 Du        
    662 ****        -5.7500   0.0000  19.5000 Du        
    663 ****        -5.7500   0.0000  19.7500 Du        
    664 ****        -5.7500   0.0000  20.0000 Du        
    665 ****        -5.7500   0.2500  18.2500 Du        
    666 ****        -5.7500   0.2500  18.5000 Du        
    667 ****        -5.7500   0.2500  18.7500 Du        
    668 ****        -5.7500   0.2500  19.0000 Du        
    669 ****        -5.7500   0.2500  19.2500 Du        
    670 ****        -5.7500   0.2500  19.5000 Du        
    671 ****        -5.7500   0.2500  19.7500 Du        
    672 ****        -5.7500   0.2500  20.0000 Du        
    673 ****        -5.7500   0.2500  20.2500 Du        
    674 ****        -5.7500   0.5000  18.0000 Du        
    675 ****        -5.7500   0.5000  18.2500 Du        
    676 ****        -5.7500   0.5000  18.5000 Du        
    677 ****        -5.7500   0.5000  18.7500 Du        
    678 ****        -5.7500   0.5000  19.0000 Du        
    679 ****        -5.7500   0.5000  19.2500 Du        
    680 ****        -5.7500   0.5000  19.5000 Du        
    681 ****        -5.7500   0.5000  19.7500 Du        
    682 ****        -5.7500   0.5000  20.0000 Du        
    683 ****        -5.7500   0.5000  20.2500 Du        
    684 ****        -5.7500   0.5000  20.5000 Du        
    685 ****        -5.7500   0.7500  17.5000 Du        
    686 ****        -5.7500   0.7500  17.7500 Du        
    687 ****        -5.7500   0.7500  18.0000 Du        
    688 ****        -5.7500   0.7500  18.2500 Du        
    689 ****        -5.7500   0.7500  18.5000 Du        
    690 ****        -5.7500   0.7500  18.7500 Du        
    691 ****        -5.7500   0.7500  19.0000 Du        
    692 ****        -5.7500   0.7500  19.2500 Du        
    693 ****        -5.7500   0.7500  19.5000 Du        
    694 ****        -5.7500   0.7500  19.7500 Du        
    695 ****        -5.7500   0.7500  20.0000 Du        
    696 ****        -5.7500   0.7500  20.2500 Du        
    697 ****        -5.7500   0.7500  20.5000 Du        
    698 ****        -5.7500   0.7500  20.7500 Du        
    699 ****        -5.7500   1.0000  17.0000 Du        
    700 ****        -5.7500   1.0000  17.2500 Du        
    701 ****        -5.7500   1.0000  17.5000 Du        
    702 ****        -5.7500   1.0000  17.7500 Du        
    703 ****        -5.7500   1.0000  18.0000 Du        
    704 ****        -5.7500   1.0000  18.2500 Du        
    705 ****        -5.7500   1.0000  18.5000 Du        
    706 ****        -5.7500   1.0000  18.7500 Du        
    707 ****        -5.7500   1.0000  19.0000 Du        
    708 ****        -5.7500   1.0000  19.2500 Du        
    709 ****        -5.7500   1.0000  19.5000 Du        
    710 ****        -5.7500   1.0000  19.7500 Du        
    711 ****        -5.7500   1.0000  20.0000 Du        
    712 ****        -5.7500   1.0000  20.2500 Du        
    713 ****        -5.7500   1.0000  20.5000 Du        
    714 ****        -5.7500   1.0000  20.7500 Du        
    715 ****        -5.7500   1.2500  16.2500 Du        
    716 ****        -5.7500   1.2500  16.5000 Du        
    717 ****        -5.7500   1.2500  16.7500 Du        
    718 ****        -5.7500   1.2500  17.0000 Du        
    719 ****        -5.7500   1.2500  17.2500 Du        
    720 ****        -5.7500   1.2500  17.5000 Du        
    721 ****        -5.7500   1.2500  17.7500 Du        
    722 ****        -5.7500   1.2500  18.0000 Du        
    723 ****        -5.7500   1.2500  18.2500 Du        
    724 ****        -5.7500   1.2500  18.5000 Du        
    725 ****        -5.7500   1.2500  18.7500 Du        
    726 ****        -5.7500   1.2500  19.0000 Du        
    727 ****        -5.7500   1.2500  19.2500 Du        
    728 ****        -5.7500   1.2500  19.5000 Du        
    729 ****        -5.7500   1.2500  19.7500 Du        
    730 ****        -5.7500   1.2500  20.0000 Du        
    731 ****        -5.7500   1.2500  20.2500 Du        
    732 ****        -5.7500   1.2500  20.5000 Du        
    733 ****        -5.7500   1.5000  15.7500 Du        
    734 ****        -5.7500   1.5000  16.0000 Du        
    735 ****        -5.7500   1.5000  16.2500 Du        
    736 ****        -5.7500   1.5000  16.5000 Du        
    737 ****        -5.7500   1.5000  16.7500 Du        
    738 ****        -5.7500   1.5000  17.0000 Du        
    739 ****        -5.7500   1.5000  17.2500 Du        
    740 ****        -5.7500   1.5000  17.5000 Du        
    741 ****        -5.7500   1.5000  17.7500 Du        
    742 ****        -5.7500   1.5000  18.0000 Du        
    743 ****        -5.7500   1.5000  18.2500 Du        
    744 ****        -5.7500   1.5000  18.5000 Du        
    745 ****        -5.7500   1.5000  18.7500 Du        
    746 ****        -5.7500   1.5000  19.0000 Du        
    747 ****        -5.7500   1.5000  19.2500 Du        
    748 ****        -5.7500   1.5000  19.5000 Du        
    749 ****        -5.7500   1.5000  19.7500 Du        
    750 ****        -5.7500   1.5000  20.0000 Du        
    751 ****        -5.7500   1.5000  20.2500 Du        
    752 ****        -5.7500   1.7500  15.5000 Du        
    753 ****        -5.7500   1.7500  15.7500 Du        
    754 ****        -5.7500   1.7500  16.0000 Du        
    755 ****        -5.7500   1.7500  16.2500 Du        
    756 ****        -5.7500   1.7500  16.5000 Du        
    757 ****        -5.7500   1.7500  16.7500 Du        
    758 ****        -5.7500   1.7500  17.0000 Du        
    759 ****        -5.7500   1.7500  17.2500 Du        
    760 ****        -5.7500   1.7500  17.5000 Du        
    761 ****        -5.7500   1.7500  17.7500 Du        
    762 ****        -5.7500   1.7500  18.0000 Du        
    763 ****        -5.7500   1.7500  18.2500 Du        
    764 ****        -5.7500   1.7500  18.5000 Du        
    765 ****        -5.7500   1.7500  18.7500 Du        
    766 ****        -5.7500   1.7500  19.0000 Du        
    767 ****        -5.7500   1.7500  19.2500 Du        
    768 ****        -5.7500   1.7500  19.5000 Du        
    769 ****        -5.7500   1.7500  19.7500 Du        
    770 ****        -5.7500   1.7500  20.0000 Du        
    771 ****        -5.7500   1.7500  20.2500 Du        
    772 ****        -5.7500   2.0000  15.7500 Du        
    773 ****        -5.7500   2.0000  16.0000 Du        
    774 ****        -5.7500   2.0000  16.2500 Du        
    775 ****        -5.7500   2.0000  16.5000 Du        
    776 ****        -5.7500   2.0000  16.7500 Du        
    777 ****        -5.7500   2.0000  17.0000 Du        
    778 ****        -5.7500   2.0000  17.2500 Du        
    779 ****        -5.7500   2.0000  17.5000 Du        
    780 ****        -5.7500   2.0000  17.7500 Du        
    781 ****        -5.7500   2.0000  18.0000 Du        
    782 ****        -5.7500   2.0000  18.2500 Du        
    783 ****        -5.7500   2.0000  18.5000 Du        
    784 ****        -5.7500   2.0000  18.7500 Du        
    785 ****        -5.7500   2.0000  19.0000 Du        
    786 ****        -5.7500   2.0000  19.2500 Du        
    787 ****        -5.7500   2.0000  19.5000 Du        
    788 ****        -5.7500   2.0000  19.7500 Du        
    789 ****        -5.7500   6.7500  24.0000 Du        
    790 ****        -5.7500   7.0000  23.7500 Du        
    791 ****        -5.7500   7.0000  24.0000 Du        
    792 ****        -5.7500   7.0000  24.2500 Du        
    793 ****        -5.7500   7.2500  21.5000 Du        
    794 ****        -5.7500   7.2500  21.7500 Du        
    795 ****        -5.7500   7.2500  22.0000 Du        
    796 ****        -5.7500   7.2500  22.2500 Du        
    797 ****        -5.7500   7.2500  22.7500 Du        
    798 ****        -5.7500   7.2500  23.0000 Du        
    799 ****        -5.7500   7.2500  23.2500 Du        
    800 ****        -5.7500   7.2500  23.5000 Du        
    801 ****        -5.7500   7.2500  23.7500 Du        
    802 ****        -5.7500   7.2500  24.0000 Du        
    803 ****        -5.7500   7.2500  24.2500 Du        
    804 ****        -5.7500   7.5000  21.2500 Du        
    805 ****        -5.7500   7.5000  21.5000 Du        
    806 ****        -5.7500   7.5000  21.7500 Du        
    807 ****        -5.7500   7.5000  22.0000 Du        
    808 ****        -5.7500   7.5000  22.2500 Du        
    809 ****        -5.7500   7.5000  23.0000 Du        
    810 ****        -5.7500   7.5000  23.2500 Du        
    811 ****        -5.7500   7.5000  23.5000 Du        
    812 ****        -5.7500   7.5000  23.7500 Du        
    813 ****        -5.7500   7.5000  24.0000 Du        
    814 ****        -5.7500   7.7500  21.2500 Du        
    815 ****        -5.7500   7.7500  21.5000 Du        
    816 ****        -5.7500   7.7500  21.7500 Du        
    817 ****        -5.7500   7.7500  22.0000 Du        
    818 ****        -5.7500   8.0000  21.0000 Du        
    819 ****        -5.7500   8.0000  21.2500 Du        
    820 ****        -5.7500   8.0000  21.5000 Du        
    821 ****        -5.7500   8.2500  21.2500 Du        
    822 ****        -5.7500   9.7500  13.5000 Du        
    823 ****        -5.7500  10.0000  13.5000 Du        
    824 ****        -5.7500  10.0000  13.7500 Du        
    825 ****        -5.7500  10.0000  14.0000 Du        
    826 ****        -5.7500  10.2500  13.5000 Du        
    827 ****        -5.7500  10.2500  13.7500 Du        
    828 ****        -5.7500  10.2500  14.0000 Du        
    829 ****        -5.7500  10.2500  14.2500 Du        
    830 ****        -5.7500  10.5000  13.7500 Du        
    831 ****        -5.7500  10.5000  14.0000 Du        
    832 ****        -5.7500  10.5000  14.2500 Du        
    833 ****        -5.7500  10.5000  14.5000 Du        
    834 ****        -5.7500  10.5000  14.7500 Du        
    835 ****        -5.7500  10.7500  14.0000 Du        
    836 ****        -5.7500  10.7500  14.2500 Du        
    837 ****        -5.7500  10.7500  14.5000 Du        
    838 ****        -5.7500  10.7500  14.7500 Du        
    839 ****        -5.7500  10.7500  15.0000 Du        
    840 ****        -5.5000  -6.5000   7.5000 Du        
    841 ****        -5.5000  -6.5000   7.7500 Du        
    842 ****        -5.5000  -6.2500   7.2500 Du        
    843 ****        -5.5000  -6.2500   7.5000 Du        
    844 ****        -5.5000  -6.2500   7.7500 Du        
    845 ****        -5.5000  -6.2500   8.0000 Du        
    846 ****        -5.5000  -6.0000   7.2500 Du        
    847 ****        -5.5000  -6.0000   7.5000 Du        
    848 ****        -5.5000  -6.0000   7.7500 Du        
    849 ****        -5.5000  -6.0000   8.0000 Du        
    850 ****        -5.5000  -5.7500   7.2500 Du        
    851 ****        -5.5000  -5.7500   7.5000 Du        
    852 ****        -5.5000  -5.7500   7.7500 Du        
    853 ****        -5.5000  -5.7500   8.0000 Du        
    854 ****        -5.5000  -5.5000   7.0000 Du        
    855 ****        -5.5000  -5.5000   7.2500 Du        
    856 ****        -5.5000  -5.5000   7.5000 Du        
    857 ****        -5.5000  -5.5000   7.7500 Du        
    858 ****        -5.5000  -5.2500   7.0000 Du        
    859 ****        -5.5000  -5.2500   7.2500 Du        
    860 ****        -5.5000  -5.2500   7.5000 Du        
    861 ****        -5.5000  -5.2500   7.7500 Du        
    862 ****        -5.5000  -5.0000   6.7500 Du        
    863 ****        -5.5000  -5.0000   7.0000 Du        
    864 ****        -5.5000  -5.0000   7.2500 Du        
    865 ****        -5.5000  -5.0000   7.5000 Du        
    866 ****        -5.5000  -5.0000   7.7500 Du        
    867 ****        -5.5000  -4.7500   6.7500 Du        
    868 ****        -5.5000  -4.7500   7.0000 Du        
    869 ****        -5.5000  -4.7500   7.2500 Du        
    870 ****        -5.5000  -4.7500   7.5000 Du        
    871 ****        -5.5000  -4.5000   6.7500 Du        
    872 ****        -5.5000  -4.5000   7.0000 Du        
    873 ****        -5.5000  -4.5000   7.2500 Du        
    874 ****        -5.5000   0.0000  18.7500 Du        
    875 ****        -5.5000   0.0000  19.0000 Du        
    876 ****        -5.5000   0.0000  19.2500 Du        
    877 ****        -5.5000   0.0000  19.5000 Du        
    878 ****        -5.5000   0.0000  19.7500 Du        
    879 ****        -5.5000   0.0000  20.0000 Du        
    880 ****        -5.5000   0.0000  20.2500 Du        
    881 ****        -5.5000   0.2500  18.2500 Du        
    882 ****        -5.5000   0.2500  18.5000 Du        
    883 ****        -5.5000   0.2500  18.7500 Du        
    884 ****        -5.5000   0.2500  19.0000 Du        
    885 ****        -5.5000   0.2500  19.2500 Du        
    886 ****        -5.5000   0.2500  19.5000 Du        
    887 ****        -5.5000   0.2500  19.7500 Du        
    888 ****        -5.5000   0.2500  20.0000 Du        
    889 ****        -5.5000   0.2500  20.2500 Du        
    890 ****        -5.5000   0.2500  20.5000 Du        
    891 ****        -5.5000   0.5000  18.0000 Du        
    892 ****        -5.5000   0.5000  18.2500 Du        
    893 ****        -5.5000   0.5000  18.5000 Du        
    894 ****        -5.5000   0.5000  18.7500 Du        
    895 ****        -5.5000   0.5000  19.0000 Du        
    896 ****        -5.5000   0.5000  19.2500 Du        
    897 ****        -5.5000   0.5000  19.5000 Du        
    898 ****        -5.5000   0.5000  19.7500 Du        
    899 ****        -5.5000   0.5000  20.0000 Du        
    900 ****        -5.5000   0.5000  20.2500 Du        
    901 ****        -5.5000   0.5000  20.5000 Du        
    902 ****        -5.5000   0.5000  20.7500 Du        
    903 ****        -5.5000   0.7500  17.7500 Du        
    904 ****        -5.5000   0.7500  18.0000 Du        
    905 ****        -5.5000   0.7500  18.2500 Du        
    906 ****        -5.5000   0.7500  18.5000 Du        
    907 ****        -5.5000   0.7500  18.7500 Du        
    908 ****        -5.5000   0.7500  19.0000 Du        
    909 ****        -5.5000   0.7500  19.2500 Du        
    910 ****        -5.5000   0.7500  19.5000 Du        
    911 ****        -5.5000   0.7500  19.7500 Du        
    912 ****        -5.5000   0.7500  20.0000 Du        
    913 ****        -5.5000   0.7500  20.2500 Du        
    914 ****        -5.5000   0.7500  20.5000 Du        
    915 ****        -5.5000   0.7500  20.7500 Du        
    916 ****        -5.5000   1.0000  17.0000 Du        
    917 ****        -5.5000   1.0000  17.2500 Du        
    918 ****        -5.5000   1.0000  17.5000 Du        
    919 ****        -5.5000   1.0000  17.7500 Du        
    920 ****        -5.5000   1.0000  18.0000 Du        
    921 ****        -5.5000   1.0000  18.2500 Du        
    922 ****        -5.5000   1.0000  18.5000 Du        
    923 ****        -5.5000   1.0000  18.7500 Du        
    924 ****        -5.5000   1.0000  19.0000 Du        
    925 ****        -5.5000   1.0000  19.2500 Du        
    926 ****        -5.5000   1.0000  19.5000 Du        
    927 ****        -5.5000   1.0000  19.7500 Du        
    928 ****        -5.5000   1.0000  20.0000 Du        
    929 ****        -5.5000   1.0000  20.2500 Du        
    930 ****        -5.5000   1.0000  20.5000 Du        
    931 ****        -5.5000   1.0000  20.7500 Du        
    932 ****        -5.5000   1.2500  16.2500 Du        
    933 ****        -5.5000   1.2500  16.5000 Du        
    934 ****        -5.5000   1.2500  16.7500 Du        
    935 ****        -5.5000   1.2500  17.0000 Du        
    936 ****        -5.5000   1.2500  17.2500 Du        
    937 ****        -5.5000   1.2500  17.5000 Du        
    938 ****        -5.5000   1.2500  17.7500 Du        
    939 ****        -5.5000   1.2500  18.0000 Du        
    940 ****        -5.5000   1.2500  18.2500 Du        
    941 ****        -5.5000   1.2500  18.5000 Du        
    942 ****        -5.5000   1.2500  18.7500 Du        
    943 ****        -5.5000   1.2500  19.0000 Du        
    944 ****        -5.5000   1.2500  19.2500 Du        
    945 ****        -5.5000   1.2500  19.5000 Du        
    946 ****        -5.5000   1.2500  19.7500 Du        
    947 ****        -5.5000   1.2500  20.0000 Du        
    948 ****        -5.5000   1.2500  20.2500 Du        
    949 ****        -5.5000   1.2500  20.5000 Du        
    950 ****        -5.5000   1.2500  20.7500 Du        
    951 ****        -5.5000   1.5000  15.7500 Du        
    952 ****        -5.5000   1.5000  16.0000 Du        
    953 ****        -5.5000   1.5000  16.2500 Du        
    954 ****        -5.5000   1.5000  16.5000 Du        
    955 ****        -5.5000   1.5000  16.7500 Du        
    956 ****        -5.5000   1.5000  17.0000 Du        
    957 ****        -5.5000   1.5000  17.2500 Du        
    958 ****        -5.5000   1.5000  17.5000 Du        
    959 ****        -5.5000   1.5000  17.7500 Du        
    960 ****        -5.5000   1.5000  18.0000 Du        
    961 ****        -5.5000   1.5000  18.2500 Du        
    962 ****        -5.5000   1.5000  18.5000 Du        
    963 ****        -5.5000   1.5000  18.7500 Du        
    964 ****        -5.5000   1.5000  19.0000 Du        
    965 ****        -5.5000   1.5000  19.2500 Du        
    966 ****        -5.5000   1.5000  19.5000 Du        
    967 ****        -5.5000   1.5000  19.7500 Du        
    968 ****        -5.5000   1.5000  20.0000 Du        
    969 ****        -5.5000   1.5000  20.2500 Du        
    970 ****        -5.5000   1.5000  20.5000 Du        
    971 ****        -5.5000   1.7500  15.7500 Du        
    972 ****        -5.5000   1.7500  16.0000 Du        
    973 ****        -5.5000   1.7500  16.2500 Du        
    974 ****        -5.5000   1.7500  16.5000 Du        
    975 ****        -5.5000   1.7500  16.7500 Du        
    976 ****        -5.5000   1.7500  17.0000 Du        
    977 ****        -5.5000   1.7500  17.2500 Du        
    978 ****        -5.5000   1.7500  17.5000 Du        
    979 ****        -5.5000   1.7500  17.7500 Du        
    980 ****        -5.5000   1.7500  18.0000 Du        
    981 ****        -5.5000   1.7500  18.2500 Du        
    982 ****        -5.5000   1.7500  18.5000 Du        
    983 ****        -5.5000   1.7500  18.7500 Du        
    984 ****        -5.5000   1.7500  19.0000 Du        
    985 ****        -5.5000   1.7500  19.2500 Du        
    986 ****        -5.5000   1.7500  19.5000 Du        
    987 ****        -5.5000   1.7500  19.7500 Du        
    988 ****        -5.5000   1.7500  20.0000 Du        
    989 ****        -5.5000   1.7500  20.2500 Du        
    990 ****        -5.5000   2.0000  15.7500 Du        
    991 ****        -5.5000   2.0000  16.0000 Du        
    992 ****        -5.5000   2.0000  16.2500 Du        
    993 ****        -5.5000   2.0000  16.5000 Du        
    994 ****        -5.5000   2.0000  16.7500 Du        
    995 ****        -5.5000   2.0000  17.0000 Du        
    996 ****        -5.5000   2.0000  17.2500 Du        
    997 ****        -5.5000   2.0000  17.5000 Du        
    998 ****        -5.5000   2.0000  17.7500 Du        
    999 ****        -5.5000   2.0000  18.0000 Du        
   1000 ****        -5.5000   2.0000  18.2500 Du        
   1001 ****        -5.5000   2.0000  18.5000 Du        
   1002 ****        -5.5000   2.0000  18.7500 Du        
   1003 ****        -5.5000   2.0000  19.0000 Du        
   1004 ****        -5.5000   2.0000  19.2500 Du        
   1005 ****        -5.5000   2.0000  19.5000 Du        
   1006 ****        -5.5000   2.0000  19.7500 Du        
   1007 ****        -5.5000   2.0000  20.0000 Du        
   1008 ****        -5.5000   6.7500  23.7500 Du        
   1009 ****        -5.5000   6.7500  24.0000 Du        
   1010 ****        -5.5000   6.7500  24.2500 Du        
   1011 ****        -5.5000   7.0000  21.5000 Du        
   1012 ****        -5.5000   7.0000  21.7500 Du        
   1013 ****        -5.5000   7.0000  22.0000 Du        
   1014 ****        -5.5000   7.0000  22.2500 Du        
   1015 ****        -5.5000   7.0000  22.5000 Du        
   1016 ****        -5.5000   7.0000  22.7500 Du        
   1017 ****        -5.5000   7.0000  23.0000 Du        
   1018 ****        -5.5000   7.0000  23.2500 Du        
   1019 ****        -5.5000   7.0000  23.5000 Du        
   1020 ****        -5.5000   7.0000  23.7500 Du        
   1021 ****        -5.5000   7.0000  24.0000 Du        
   1022 ****        -5.5000   7.0000  24.2500 Du        
   1023 ****        -5.5000   7.0000  24.5000 Du        
   1024 ****        -5.5000   7.2500  21.2500 Du        
   1025 ****        -5.5000   7.2500  21.5000 Du        
   1026 ****        -5.5000   7.2500  21.7500 Du        
   1027 ****        -5.5000   7.2500  22.0000 Du        
   1028 ****        -5.5000   7.2500  22.2500 Du        
   1029 ****        -5.5000   7.2500  22.5000 Du        
   1030 ****        -5.5000   7.2500  22.7500 Du        
   1031 ****        -5.5000   7.2500  23.0000 Du        
   1032 ****        -5.5000   7.2500  23.2500 Du        
   1033 ****        -5.5000   7.2500  23.5000 Du        
   1034 ****        -5.5000   7.2500  23.7500 Du        
   1035 ****        -5.5000   7.2500  24.0000 Du        
   1036 ****        -5.5000   7.2500  24.2500 Du        
   1037 ****        -5.5000   7.5000  21.2500 Du        
   1038 ****        -5.5000   7.5000  21.5000 Du        
   1039 ****        -5.5000   7.5000  21.7500 Du        
   1040 ****        -5.5000   7.5000  22.0000 Du        
   1041 ****        -5.5000   7.5000  22.2500 Du        
   1042 ****        -5.5000   7.5000  22.5000 Du        
   1043 ****        -5.5000   7.5000  22.7500 Du        
   1044 ****        -5.5000   7.5000  23.0000 Du        
   1045 ****        -5.5000   7.5000  23.2500 Du        
   1046 ****        -5.5000   7.5000  23.5000 Du        
   1047 ****        -5.5000   7.5000  23.7500 Du        
   1048 ****        -5.5000   7.5000  24.0000 Du        
   1049 ****        -5.5000   7.5000  24.2500 Du        
   1050 ****        -5.5000   7.7500  21.0000 Du        
   1051 ****        -5.5000   7.7500  21.2500 Du        
   1052 ****        -5.5000   7.7500  21.5000 Du        
   1053 ****        -5.5000   7.7500  21.7500 Du        
   1054 ****        -5.5000   7.7500  22.0000 Du        
   1055 ****        -5.5000   7.7500  22.2500 Du        
   1056 ****        -5.5000   7.7500  22.5000 Du        
   1057 ****        -5.5000   7.7500  22.7500 Du        
   1058 ****        -5.5000   7.7500  23.0000 Du        
   1059 ****        -5.5000   7.7500  23.2500 Du        
   1060 ****        -5.5000   7.7500  23.5000 Du        
   1061 ****        -5.5000   7.7500  23.7500 Du        
   1062 ****        -5.5000   7.7500  24.0000 Du        
   1063 ****        -5.5000   8.0000  21.0000 Du        
   1064 ****        -5.5000   8.0000  21.2500 Du        
   1065 ****        -5.5000   8.0000  21.5000 Du        
   1066 ****        -5.5000   8.0000  21.7500 Du        
   1067 ****        -5.5000   8.0000  22.0000 Du        
   1068 ****        -5.5000   8.0000  22.2500 Du        
   1069 ****        -5.5000   8.0000  22.5000 Du        
   1070 ****        -5.5000   8.0000  22.7500 Du        
   1071 ****        -5.5000   8.0000  23.0000 Du        
   1072 ****        -5.5000   8.0000  23.2500 Du        
   1073 ****        -5.5000   8.0000  23.5000 Du        
   1074 ****        -5.5000   8.0000  23.7500 Du        
   1075 ****        -5.5000   8.2500  20.7500 Du        
   1076 ****        -5.5000   8.2500  21.0000 Du        
   1077 ****        -5.5000   8.2500  21.2500 Du        
   1078 ****        -5.5000   8.2500  21.5000 Du        
   1079 ****        -5.5000   8.2500  21.7500 Du        
   1080 ****        -5.5000   8.2500  22.0000 Du        
   1081 ****        -5.5000   8.2500  22.2500 Du        
   1082 ****        -5.5000   8.5000  21.0000 Du        
   1083 ****        -5.5000   8.5000  21.2500 Du        
   1084 ****        -5.5000   8.5000  21.5000 Du        
   1085 ****        -5.5000   8.5000  21.7500 Du        
   1086 ****        -5.5000   9.7500  13.5000 Du        
   1087 ****        -5.5000   9.7500  13.7500 Du        
   1088 ****        -5.5000   9.7500  14.0000 Du        
   1089 ****        -5.5000  10.0000  13.2500 Du        
   1090 ****        -5.5000  10.0000  13.5000 Du        
   1091 ****        -5.5000  10.0000  13.7500 Du        
   1092 ****        -5.5000  10.0000  14.0000 Du        
   1093 ****        -5.5000  10.0000  14.2500 Du        
   1094 ****        -5.5000  10.0000  14.5000 Du        
   1095 ****        -5.5000  10.2500  13.5000 Du        
   1096 ****        -5.5000  10.2500  13.7500 Du        
   1097 ****        -5.5000  10.2500  14.0000 Du        
   1098 ****        -5.5000  10.2500  14.2500 Du        
   1099 ****        -5.5000  10.2500  14.5000 Du        
   1100 ****        -5.5000  10.2500  14.7500 Du        
   1101 ****        -5.5000  10.5000  13.7500 Du        
   1102 ****        -5.5000  10.5000  14.0000 Du        
   1103 ****        -5.5000  10.5000  14.2500 Du        
   1104 ****        -5.5000  10.5000  14.5000 Du        
   1105 ****        -5.5000  10.5000  14.7500 Du        
   1106 ****        -5.5000  10.5000  15.0000 Du        
   1107 ****        -5.5000  10.7500  14.2500 Du        
   1108 ****        -5.5000  10.7500  14.5000 Du        
   1109 ****        -5.5000  10.7500  14.7500 Du        
   1110 ****        -5.2500  -6.5000   7.5000 Du        
   1111 ****        -5.2500  -6.5000   7.7500 Du        
   1112 ****        -5.2500  -6.5000   8.0000 Du        
   1113 ****        -5.2500  -6.2500   7.5000 Du        
   1114 ****        -5.2500  -6.2500   7.7500 Du        
   1115 ****        -5.2500  -6.2500   8.0000 Du        
   1116 ****        -5.2500  -6.2500   8.2500 Du        
   1117 ****        -5.2500  -6.0000   7.5000 Du        
   1118 ****        -5.2500  -6.0000   7.7500 Du        
   1119 ****        -5.2500  -6.0000   8.0000 Du        
   1120 ****        -5.2500  -5.7500   7.2500 Du        
   1121 ****        -5.2500  -5.7500   7.5000 Du        
   1122 ****        -5.2500  -5.7500   7.7500 Du        
   1123 ****        -5.2500  -5.7500   8.0000 Du        
   1124 ****        -5.2500  -5.5000   7.2500 Du        
   1125 ****        -5.2500  -5.5000   7.5000 Du        
   1126 ****        -5.2500  -5.5000   7.7500 Du        
   1127 ****        -5.2500  -5.5000   8.0000 Du        
   1128 ****        -5.2500  -5.2500   7.2500 Du        
   1129 ****        -5.2500  -5.2500   7.5000 Du        
   1130 ****        -5.2500  -5.2500   7.7500 Du        
   1131 ****        -5.2500  -5.2500   8.0000 Du        
   1132 ****        -5.2500  -5.0000   7.0000 Du        
   1133 ****        -5.2500  -5.0000   7.2500 Du        
   1134 ****        -5.2500  -5.0000   7.5000 Du        
   1135 ****        -5.2500  -5.0000   7.7500 Du        
   1136 ****        -5.2500  -4.7500   7.0000 Du        
   1137 ****        -5.2500  -4.7500   7.2500 Du        
   1138 ****        -5.2500  -4.7500   7.5000 Du        
   1139 ****        -5.2500  -4.7500   7.7500 Du        
   1140 ****        -5.2500  -4.5000   7.0000 Du        
   1141 ****        -5.2500  -4.5000   7.2500 Du        
   1142 ****        -5.2500  -4.5000   7.5000 Du        
   1143 ****        -5.2500  -0.7500  24.2500 Du        
   1144 ****        -5.2500  -0.7500  24.5000 Du        
   1145 ****        -5.2500  -0.7500  24.7500 Du        
   1146 ****        -5.2500  -0.2500  19.5000 Du        
   1147 ****        -5.2500  -0.2500  19.7500 Du        
   1148 ****        -5.2500  -0.2500  20.0000 Du        
   1149 ****        -5.2500  -0.2500  20.2500 Du        
   1150 ****        -5.2500   0.0000  19.0000 Du        
   1151 ****        -5.2500   0.0000  19.2500 Du        
   1152 ****        -5.2500   0.0000  19.5000 Du        
   1153 ****        -5.2500   0.0000  19.7500 Du        
   1154 ****        -5.2500   0.0000  20.0000 Du        
   1155 ****        -5.2500   0.0000  20.2500 Du        
   1156 ****        -5.2500   0.0000  20.5000 Du        
   1157 ****        -5.2500   0.0000  20.7500 Du        
   1158 ****        -5.2500   0.2500  18.5000 Du        
   1159 ****        -5.2500   0.2500  18.7500 Du        
   1160 ****        -5.2500   0.2500  19.0000 Du        
   1161 ****        -5.2500   0.2500  19.2500 Du        
   1162 ****        -5.2500   0.2500  19.5000 Du        
   1163 ****        -5.2500   0.2500  19.7500 Du        
   1164 ****        -5.2500   0.2500  20.0000 Du        
   1165 ****        -5.2500   0.2500  20.2500 Du        
   1166 ****        -5.2500   0.2500  20.5000 Du        
   1167 ****        -5.2500   0.2500  20.7500 Du        
   1168 ****        -5.2500   0.5000  18.0000 Du        
   1169 ****        -5.2500   0.5000  18.2500 Du        
   1170 ****        -5.2500   0.5000  18.5000 Du        
   1171 ****        -5.2500   0.5000  18.7500 Du        
   1172 ****        -5.2500   0.5000  19.0000 Du        
   1173 ****        -5.2500   0.5000  19.2500 Du        
   1174 ****        -5.2500   0.5000  19.5000 Du        
   1175 ****        -5.2500   0.5000  19.7500 Du        
   1176 ****        -5.2500   0.5000  20.0000 Du        
   1177 ****        -5.2500   0.5000  20.2500 Du        
   1178 ****        -5.2500   0.5000  20.5000 Du        
   1179 ****        -5.2500   0.5000  20.7500 Du        
   1180 ****        -5.2500   0.5000  21.0000 Du        
   1181 ****        -5.2500   0.7500  17.7500 Du        
   1182 ****        -5.2500   0.7500  18.0000 Du        
   1183 ****        -5.2500   0.7500  18.2500 Du        
   1184 ****        -5.2500   0.7500  18.5000 Du        
   1185 ****        -5.2500   0.7500  18.7500 Du        
   1186 ****        -5.2500   0.7500  19.0000 Du        
   1187 ****        -5.2500   0.7500  19.2500 Du        
   1188 ****        -5.2500   0.7500  19.5000 Du        
   1189 ****        -5.2500   0.7500  19.7500 Du        
   1190 ****        -5.2500   0.7500  20.0000 Du        
   1191 ****        -5.2500   0.7500  20.2500 Du        
   1192 ****        -5.2500   0.7500  20.5000 Du        
   1193 ****        -5.2500   0.7500  20.7500 Du        
   1194 ****        -5.2500   0.7500  21.0000 Du        
   1195 ****        -5.2500   1.0000  17.0000 Du        
   1196 ****        -5.2500   1.0000  17.2500 Du        
   1197 ****        -5.2500   1.0000  17.5000 Du        
   1198 ****        -5.2500   1.0000  17.7500 Du        
   1199 ****        -5.2500   1.0000  18.0000 Du        
   1200 ****        -5.2500   1.0000  18.2500 Du        
   1201 ****        -5.2500   1.0000  18.5000 Du        
   1202 ****        -5.2500   1.0000  18.7500 Du        
   1203 ****        -5.2500   1.0000  19.0000 Du        
   1204 ****        -5.2500   1.0000  19.2500 Du        
   1205 ****        -5.2500   1.0000  19.5000 Du        
   1206 ****        -5.2500   1.0000  19.7500 Du        
   1207 ****        -5.2500   1.0000  20.0000 Du        
   1208 ****        -5.2500   1.0000  20.2500 Du        
   1209 ****        -5.2500   1.0000  20.5000 Du        
   1210 ****        -5.2500   1.0000  20.7500 Du        
   1211 ****        -5.2500   1.0000  21.0000 Du        
   1212 ****        -5.2500   1.2500  16.2500 Du        
   1213 ****        -5.2500   1.2500  16.5000 Du        
   1214 ****        -5.2500   1.2500  16.7500 Du        
   1215 ****        -5.2500   1.2500  17.0000 Du        
   1216 ****        -5.2500   1.2500  17.2500 Du        
   1217 ****        -5.2500   1.2500  17.5000 Du        
   1218 ****        -5.2500   1.2500  17.7500 Du        
   1219 ****        -5.2500   1.2500  18.0000 Du        
   1220 ****        -5.2500   1.2500  18.2500 Du        
   1221 ****        -5.2500   1.2500  18.5000 Du        
   1222 ****        -5.2500   1.2500  18.7500 Du        
   1223 ****        -5.2500   1.2500  19.0000 Du        
   1224 ****        -5.2500   1.2500  19.2500 Du        
   1225 ****        -5.2500   1.2500  19.5000 Du        
   1226 ****        -5.2500   1.2500  19.7500 Du        
   1227 ****        -5.2500   1.2500  20.0000 Du        
   1228 ****        -5.2500   1.2500  20.2500 Du        
   1229 ****        -5.2500   1.2500  20.5000 Du        
   1230 ****        -5.2500   1.2500  20.7500 Du        
   1231 ****        -5.2500   1.2500  21.0000 Du        
   1232 ****        -5.2500   1.5000  15.7500 Du        
   1233 ****        -5.2500   1.5000  16.0000 Du        
   1234 ****        -5.2500   1.5000  16.2500 Du        
   1235 ****        -5.2500   1.5000  16.5000 Du        
   1236 ****        -5.2500   1.5000  16.7500 Du        
   1237 ****        -5.2500   1.5000  17.0000 Du        
   1238 ****        -5.2500   1.5000  17.2500 Du        
   1239 ****        -5.2500   1.5000  17.5000 Du        
   1240 ****        -5.2500   1.5000  17.7500 Du        
   1241 ****        -5.2500   1.5000  18.0000 Du        
   1242 ****        -5.2500   1.5000  18.2500 Du        
   1243 ****        -5.2500   1.5000  18.5000 Du        
   1244 ****        -5.2500   1.5000  18.7500 Du        
   1245 ****        -5.2500   1.5000  19.0000 Du        
   1246 ****        -5.2500   1.5000  19.2500 Du        
   1247 ****        -5.2500   1.5000  19.5000 Du        
   1248 ****        -5.2500   1.5000  19.7500 Du        
   1249 ****        -5.2500   1.5000  20.0000 Du        
   1250 ****        -5.2500   1.5000  20.2500 Du        
   1251 ****        -5.2500   1.5000  20.5000 Du        
   1252 ****        -5.2500   1.5000  20.7500 Du        
   1253 ****        -5.2500   1.7500  15.7500 Du        
   1254 ****        -5.2500   1.7500  16.0000 Du        
   1255 ****        -5.2500   1.7500  16.2500 Du        
   1256 ****        -5.2500   1.7500  16.5000 Du        
   1257 ****        -5.2500   1.7500  16.7500 Du        
   1258 ****        -5.2500   1.7500  17.0000 Du        
   1259 ****        -5.2500   1.7500  17.2500 Du        
   1260 ****        -5.2500   1.7500  17.5000 Du        
   1261 ****        -5.2500   1.7500  17.7500 Du        
   1262 ****        -5.2500   1.7500  18.0000 Du        
   1263 ****        -5.2500   1.7500  18.2500 Du        
   1264 ****        -5.2500   1.7500  18.5000 Du        
   1265 ****        -5.2500   1.7500  18.7500 Du        
   1266 ****        -5.2500   1.7500  19.0000 Du        
   1267 ****        -5.2500   1.7500  19.2500 Du        
   1268 ****        -5.2500   1.7500  19.5000 Du        
   1269 ****        -5.2500   1.7500  19.7500 Du        
   1270 ****        -5.2500   1.7500  20.0000 Du        
   1271 ****        -5.2500   1.7500  20.2500 Du        
   1272 ****        -5.2500   1.7500  20.5000 Du        
   1273 ****        -5.2500   2.0000  15.7500 Du        
   1274 ****        -5.2500   2.0000  16.0000 Du        
   1275 ****        -5.2500   2.0000  16.2500 Du        
   1276 ****        -5.2500   2.0000  16.5000 Du        
   1277 ****        -5.2500   2.0000  16.7500 Du        
   1278 ****        -5.2500   2.0000  17.0000 Du        
   1279 ****        -5.2500   2.0000  17.2500 Du        
   1280 ****        -5.2500   2.0000  17.5000 Du        
   1281 ****        -5.2500   2.0000  17.7500 Du        
   1282 ****        -5.2500   2.0000  18.0000 Du        
   1283 ****        -5.2500   2.0000  18.2500 Du        
   1284 ****        -5.2500   2.0000  18.5000 Du        
   1285 ****        -5.2500   2.0000  18.7500 Du        
   1286 ****        -5.2500   2.0000  19.0000 Du        
   1287 ****        -5.2500   2.0000  19.2500 Du        
   1288 ****        -5.2500   2.0000  19.5000 Du        
   1289 ****        -5.2500   2.0000  19.7500 Du        
   1290 ****        -5.2500   2.0000  20.0000 Du        
   1291 ****        -5.2500   2.0000  20.2500 Du        
   1292 ****        -5.2500   2.2500  16.0000 Du        
   1293 ****        -5.2500   2.2500  16.2500 Du        
   1294 ****        -5.2500   2.2500  18.0000 Du        
   1295 ****        -5.2500   2.2500  18.2500 Du        
   1296 ****        -5.2500   2.2500  18.5000 Du        
   1297 ****        -5.2500   2.2500  18.7500 Du        
   1298 ****        -5.2500   2.2500  19.0000 Du        
   1299 ****        -5.2500   2.2500  19.2500 Du        
   1300 ****        -5.2500   2.2500  19.5000 Du        
   1301 ****        -5.2500   2.2500  19.7500 Du        
   1302 ****        -5.2500   2.2500  20.0000 Du        
   1303 ****        -5.2500   6.0000  24.2500 Du        
   1304 ****        -5.2500   6.0000  24.5000 Du        
   1305 ****        -5.2500   6.0000  24.7500 Du        
   1306 ****        -5.2500   6.2500  24.0000 Du        
   1307 ****        -5.2500   6.2500  24.2500 Du        
   1308 ****        -5.2500   6.2500  24.5000 Du        
   1309 ****        -5.2500   6.2500  24.7500 Du        
   1310 ****        -5.2500   6.5000  23.7500 Du        
   1311 ****        -5.2500   6.5000  24.0000 Du        
   1312 ****        -5.2500   6.5000  24.2500 Du        
   1313 ****        -5.2500   6.5000  24.5000 Du        
   1314 ****        -5.2500   6.5000  24.7500 Du        
   1315 ****        -5.2500   6.7500  21.5000 Du        
   1316 ****        -5.2500   6.7500  21.7500 Du        
   1317 ****        -5.2500   6.7500  22.0000 Du        
   1318 ****        -5.2500   6.7500  23.0000 Du        
   1319 ****        -5.2500   6.7500  23.2500 Du        
   1320 ****        -5.2500   6.7500  23.5000 Du        
   1321 ****        -5.2500   6.7500  23.7500 Du        
   1322 ****        -5.2500   6.7500  24.0000 Du        
   1323 ****        -5.2500   6.7500  24.2500 Du        
   1324 ****        -5.2500   6.7500  24.5000 Du        
   1325 ****        -5.2500   6.7500  24.7500 Du        
   1326 ****        -5.2500   7.0000  21.2500 Du        
   1327 ****        -5.2500   7.0000  21.5000 Du        
   1328 ****        -5.2500   7.0000  21.7500 Du        
   1329 ****        -5.2500   7.0000  22.0000 Du        
   1330 ****        -5.2500   7.0000  22.2500 Du        
   1331 ****        -5.2500   7.0000  22.5000 Du        
   1332 ****        -5.2500   7.0000  22.7500 Du        
   1333 ****        -5.2500   7.0000  23.0000 Du        
   1334 ****        -5.2500   7.0000  23.2500 Du        
   1335 ****        -5.2500   7.0000  23.5000 Du        
   1336 ****        -5.2500   7.0000  23.7500 Du        
   1337 ****        -5.2500   7.0000  24.0000 Du        
   1338 ****        -5.2500   7.0000  24.2500 Du        
   1339 ****        -5.2500   7.0000  24.5000 Du        
   1340 ****        -5.2500   7.0000  24.7500 Du        
   1341 ****        -5.2500   7.2500  21.2500 Du        
   1342 ****        -5.2500   7.2500  21.5000 Du        
   1343 ****        -5.2500   7.2500  21.7500 Du        
   1344 ****        -5.2500   7.2500  22.0000 Du        
   1345 ****        -5.2500   7.2500  22.2500 Du        
   1346 ****        -5.2500   7.2500  22.5000 Du        
   1347 ****        -5.2500   7.2500  22.7500 Du        
   1348 ****        -5.2500   7.2500  23.0000 Du        
   1349 ****        -5.2500   7.2500  23.2500 Du        
   1350 ****        -5.2500   7.2500  23.5000 Du        
   1351 ****        -5.2500   7.2500  23.7500 Du        
   1352 ****        -5.2500   7.2500  24.0000 Du        
   1353 ****        -5.2500   7.2500  24.2500 Du        
   1354 ****        -5.2500   7.2500  24.5000 Du        
   1355 ****        -5.2500   7.2500  24.7500 Du        
   1356 ****        -5.2500   7.5000  21.0000 Du        
   1357 ****        -5.2500   7.5000  21.2500 Du        
   1358 ****        -5.2500   7.5000  21.5000 Du        
   1359 ****        -5.2500   7.5000  21.7500 Du        
   1360 ****        -5.2500   7.5000  22.0000 Du        
   1361 ****        -5.2500   7.5000  22.2500 Du        
   1362 ****        -5.2500   7.5000  22.5000 Du        
   1363 ****        -5.2500   7.5000  22.7500 Du        
   1364 ****        -5.2500   7.5000  23.0000 Du        
   1365 ****        -5.2500   7.5000  23.2500 Du        
   1366 ****        -5.2500   7.5000  23.5000 Du        
   1367 ****        -5.2500   7.5000  23.7500 Du        
   1368 ****        -5.2500   7.5000  24.0000 Du        
   1369 ****        -5.2500   7.5000  24.2500 Du        
   1370 ****        -5.2500   7.5000  24.5000 Du        
   1371 ****        -5.2500   7.7500  20.7500 Du        
   1372 ****        -5.2500   7.7500  21.0000 Du        
   1373 ****        -5.2500   7.7500  21.2500 Du        
   1374 ****        -5.2500   7.7500  21.5000 Du        
   1375 ****        -5.2500   7.7500  21.7500 Du        
   1376 ****        -5.2500   7.7500  22.0000 Du        
   1377 ****        -5.2500   7.7500  22.2500 Du        
   1378 ****        -5.2500   7.7500  22.5000 Du        
   1379 ****        -5.2500   7.7500  22.7500 Du        
   1380 ****        -5.2500   7.7500  23.0000 Du        
   1381 ****        -5.2500   7.7500  23.2500 Du        
   1382 ****        -5.2500   7.7500  23.5000 Du        
   1383 ****        -5.2500   7.7500  23.7500 Du        
   1384 ****        -5.2500   7.7500  24.0000 Du        
   1385 ****        -5.2500   7.7500  24.2500 Du        
   1386 ****        -5.2500   7.7500  24.5000 Du        
   1387 ****        -5.2500   8.0000  20.7500 Du        
   1388 ****        -5.2500   8.0000  21.0000 Du        
   1389 ****        -5.2500   8.0000  21.2500 Du        
   1390 ****        -5.2500   8.0000  21.5000 Du        
   1391 ****        -5.2500   8.0000  21.7500 Du        
   1392 ****        -5.2500   8.0000  22.0000 Du        
   1393 ****        -5.2500   8.0000  22.2500 Du        
   1394 ****        -5.2500   8.0000  22.5000 Du        
   1395 ****        -5.2500   8.0000  22.7500 Du        
   1396 ****        -5.2500   8.0000  23.0000 Du        
   1397 ****        -5.2500   8.0000  23.2500 Du        
   1398 ****        -5.2500   8.0000  23.5000 Du        
   1399 ****        -5.2500   8.0000  23.7500 Du        
   1400 ****        -5.2500   8.0000  24.0000 Du        
   1401 ****        -5.2500   8.0000  24.2500 Du        
   1402 ****        -5.2500   8.2500  20.7500 Du        
   1403 ****        -5.2500   8.2500  21.0000 Du        
   1404 ****        -5.2500   8.2500  21.2500 Du        
   1405 ****        -5.2500   8.2500  21.5000 Du        
   1406 ****        -5.2500   8.2500  21.7500 Du        
   1407 ****        -5.2500   8.2500  22.0000 Du        
   1408 ****        -5.2500   8.2500  22.2500 Du        
   1409 ****        -5.2500   8.2500  22.5000 Du        
   1410 ****        -5.2500   8.2500  22.7500 Du        
   1411 ****        -5.2500   8.2500  23.0000 Du        
   1412 ****        -5.2500   8.2500  23.2500 Du        
   1413 ****        -5.2500   8.2500  23.5000 Du        
   1414 ****        -5.2500   8.2500  23.7500 Du        
   1415 ****        -5.2500   8.2500  24.0000 Du        
   1416 ****        -5.2500   8.5000  20.7500 Du        
   1417 ****        -5.2500   8.5000  21.0000 Du        
   1418 ****        -5.2500   8.5000  21.2500 Du        
   1419 ****        -5.2500   8.5000  21.5000 Du        
   1420 ****        -5.2500   8.5000  21.7500 Du        
   1421 ****        -5.2500   8.5000  22.0000 Du        
   1422 ****        -5.2500   8.5000  22.2500 Du        
   1423 ****        -5.2500   8.5000  22.5000 Du        
   1424 ****        -5.2500   8.5000  22.7500 Du        
   1425 ****        -5.2500   8.5000  23.0000 Du        
   1426 ****        -5.2500   8.5000  23.2500 Du        
   1427 ****        -5.2500   8.5000  23.5000 Du        
   1428 ****        -5.2500   8.7500  21.2500 Du        
   1429 ****        -5.2500   8.7500  21.5000 Du        
   1430 ****        -5.2500   8.7500  21.7500 Du        
   1431 ****        -5.2500   8.7500  22.0000 Du        
   1432 ****        -5.2500   8.7500  22.2500 Du        
   1433 ****        -5.2500   8.7500  22.5000 Du        
   1434 ****        -5.2500   8.7500  22.7500 Du        
   1435 ****        -5.2500   8.7500  23.0000 Du        
   1436 ****        -5.2500   8.7500  23.2500 Du        
   1437 ****        -5.2500   9.0000  21.7500 Du        
   1438 ****        -5.2500   9.0000  22.0000 Du        
   1439 ****        -5.2500   9.0000  22.2500 Du        
   1440 ****        -5.2500   9.0000  22.5000 Du        
   1441 ****        -5.2500   9.0000  22.7500 Du        
   1442 ****        -5.2500   9.2500  22.0000 Du        
   1443 ****        -5.2500   9.2500  22.2500 Du        
   1444 ****        -5.2500   9.2500  22.5000 Du        
   1445 ****        -5.2500   9.7500  13.7500 Du        
   1446 ****        -5.2500   9.7500  14.0000 Du        
   1447 ****        -5.2500   9.7500  14.2500 Du        
   1448 ****        -5.2500  10.0000  13.2500 Du        
   1449 ****        -5.2500  10.0000  13.5000 Du        
   1450 ****        -5.2500  10.0000  13.7500 Du        
   1451 ****        -5.2500  10.0000  14.0000 Du        
   1452 ****        -5.2500  10.0000  14.2500 Du        
   1453 ****        -5.2500  10.0000  14.5000 Du        
   1454 ****        -5.2500  10.0000  14.7500 Du        
   1455 ****        -5.2500  10.2500  13.7500 Du        
   1456 ****        -5.2500  10.2500  14.0000 Du        
   1457 ****        -5.2500  10.2500  14.2500 Du        
   1458 ****        -5.2500  10.2500  14.5000 Du        
   1459 ****        -5.2500  10.2500  14.7500 Du        
   1460 ****        -5.2500  10.5000  14.0000 Du        
   1461 ****        -5.2500  10.5000  14.2500 Du        
   1462 ****        -5.2500  10.5000  14.5000 Du        
   1463 ****        -5.2500  10.5000  14.7500 Du        
   1464 ****        -5.0000  -6.7500   8.0000 Du        
   1465 ****        -5.0000  -6.7500   8.2500 Du        
   1466 ****        -5.0000  -6.5000   7.7500 Du        
   1467 ****        -5.0000  -6.5000   8.0000 Du        
   1468 ****        -5.0000  -6.5000   8.2500 Du        
   1469 ****        -5.0000  -6.5000   8.5000 Du        
   1470 ****        -5.0000  -6.2500   7.7500 Du        
   1471 ****        -5.0000  -6.2500   8.0000 Du        
   1472 ****        -5.0000  -6.2500   8.2500 Du        
   1473 ****        -5.0000  -6.2500   8.5000 Du        
   1474 ****        -5.0000  -6.0000   7.5000 Du        
   1475 ****        -5.0000  -6.0000   7.7500 Du        
   1476 ****        -5.0000  -6.0000   8.0000 Du        
   1477 ****        -5.0000  -6.0000   8.2500 Du        
   1478 ****        -5.0000  -5.7500   7.5000 Du        
   1479 ****        -5.0000  -5.7500   7.7500 Du        
   1480 ****        -5.0000  -5.7500   8.0000 Du        
   1481 ****        -5.0000  -5.7500   8.2500 Du        
   1482 ****        -5.0000  -5.5000   7.5000 Du        
   1483 ****        -5.0000  -5.5000   7.7500 Du        
   1484 ****        -5.0000  -5.5000   8.0000 Du        
   1485 ****        -5.0000  -5.2500   7.2500 Du        
   1486 ****        -5.0000  -5.2500   7.5000 Du        
   1487 ****        -5.0000  -5.2500   7.7500 Du        
   1488 ****        -5.0000  -5.2500   8.0000 Du        
   1489 ****        -5.0000  -5.0000   7.2500 Du        
   1490 ****        -5.0000  -5.0000   7.5000 Du        
   1491 ****        -5.0000  -5.0000   7.7500 Du        
   1492 ****        -5.0000  -4.7500   7.2500 Du        
   1493 ****        -5.0000  -4.7500   7.5000 Du        
   1494 ****        -5.0000  -4.7500   7.7500 Du        
   1495 ****        -5.0000  -4.5000   7.2500 Du        
   1496 ****        -5.0000  -4.5000   7.5000 Du        
   1497 ****        -5.0000  -1.0000  24.0000 Du        
   1498 ****        -5.0000  -1.0000  24.2500 Du        
   1499 ****        -5.0000  -1.0000  24.5000 Du        
   1500 ****        -5.0000  -1.0000  24.7500 Du        
   1501 ****        -5.0000  -1.0000  25.0000 Du        
   1502 ****        -5.0000  -1.0000  25.2500 Du        
   1503 ****        -5.0000  -1.0000  25.5000 Du        
   1504 ****        -5.0000  -0.7500  23.7500 Du        
   1505 ****        -5.0000  -0.7500  24.0000 Du        
   1506 ****        -5.0000  -0.7500  24.2500 Du        
   1507 ****        -5.0000  -0.7500  24.5000 Du        
   1508 ****        -5.0000  -0.7500  24.7500 Du        
   1509 ****        -5.0000  -0.7500  25.0000 Du        
   1510 ****        -5.0000  -0.7500  25.2500 Du        
   1511 ****        -5.0000  -0.5000  20.0000 Du        
   1512 ****        -5.0000  -0.5000  24.0000 Du        
   1513 ****        -5.0000  -0.5000  24.2500 Du        
   1514 ****        -5.0000  -0.5000  24.5000 Du        
   1515 ****        -5.0000  -0.5000  24.7500 Du        
   1516 ****        -5.0000  -0.5000  25.0000 Du        
   1517 ****        -5.0000  -0.2500  19.5000 Du        
   1518 ****        -5.0000  -0.2500  19.7500 Du        
   1519 ****        -5.0000  -0.2500  20.0000 Du        
   1520 ****        -5.0000  -0.2500  20.2500 Du        
   1521 ****        -5.0000  -0.2500  20.5000 Du        
   1522 ****        -5.0000  -0.2500  20.7500 Du        
   1523 ****        -5.0000  -0.2500  24.7500 Du        
   1524 ****        -5.0000   0.0000  19.0000 Du        
   1525 ****        -5.0000   0.0000  19.2500 Du        
   1526 ****        -5.0000   0.0000  19.5000 Du        
   1527 ****        -5.0000   0.0000  19.7500 Du        
   1528 ****        -5.0000   0.0000  20.0000 Du        
   1529 ****        -5.0000   0.0000  20.2500 Du        
   1530 ****        -5.0000   0.0000  20.5000 Du        
   1531 ****        -5.0000   0.0000  20.7500 Du        
   1532 ****        -5.0000   0.0000  21.0000 Du        
   1533 ****        -5.0000   0.0000  21.2500 Du        
   1534 ****        -5.0000   0.2500  18.5000 Du        
   1535 ****        -5.0000   0.2500  18.7500 Du        
   1536 ****        -5.0000   0.2500  19.0000 Du        
   1537 ****        -5.0000   0.2500  19.2500 Du        
   1538 ****        -5.0000   0.2500  19.5000 Du        
   1539 ****        -5.0000   0.2500  19.7500 Du        
   1540 ****        -5.0000   0.2500  20.0000 Du        
   1541 ****        -5.0000   0.2500  20.2500 Du        
   1542 ****        -5.0000   0.2500  20.5000 Du        
   1543 ****        -5.0000   0.2500  20.7500 Du        
   1544 ****        -5.0000   0.2500  21.0000 Du        
   1545 ****        -5.0000   0.2500  21.2500 Du        
   1546 ****        -5.0000   0.5000  18.0000 Du        
   1547 ****        -5.0000   0.5000  18.2500 Du        
   1548 ****        -5.0000   0.5000  18.5000 Du        
   1549 ****        -5.0000   0.5000  18.7500 Du        
   1550 ****        -5.0000   0.5000  19.0000 Du        
   1551 ****        -5.0000   0.5000  19.2500 Du        
   1552 ****        -5.0000   0.5000  19.5000 Du        
   1553 ****        -5.0000   0.5000  19.7500 Du        
   1554 ****        -5.0000   0.5000  20.0000 Du        
   1555 ****        -5.0000   0.5000  20.2500 Du        
   1556 ****        -5.0000   0.5000  20.5000 Du        
   1557 ****        -5.0000   0.5000  20.7500 Du        
   1558 ****        -5.0000   0.5000  21.0000 Du        
   1559 ****        -5.0000   0.5000  21.2500 Du        
   1560 ****        -5.0000   0.7500  17.7500 Du        
   1561 ****        -5.0000   0.7500  18.0000 Du        
   1562 ****        -5.0000   0.7500  18.2500 Du        
   1563 ****        -5.0000   0.7500  18.5000 Du        
   1564 ****        -5.0000   0.7500  18.7500 Du        
   1565 ****        -5.0000   0.7500  19.0000 Du        
   1566 ****        -5.0000   0.7500  19.2500 Du        
   1567 ****        -5.0000   0.7500  19.5000 Du        
   1568 ****        -5.0000   0.7500  19.7500 Du        
   1569 ****        -5.0000   0.7500  20.0000 Du        
   1570 ****        -5.0000   0.7500  20.2500 Du        
   1571 ****        -5.0000   0.7500  20.5000 Du        
   1572 ****        -5.0000   0.7500  20.7500 Du        
   1573 ****        -5.0000   0.7500  21.0000 Du        
   1574 ****        -5.0000   0.7500  21.2500 Du        
   1575 ****        -5.0000   1.0000  17.0000 Du        
   1576 ****        -5.0000   1.0000  17.2500 Du        
   1577 ****        -5.0000   1.0000  17.5000 Du        
   1578 ****        -5.0000   1.0000  17.7500 Du        
   1579 ****        -5.0000   1.0000  18.0000 Du        
   1580 ****        -5.0000   1.0000  18.2500 Du        
   1581 ****        -5.0000   1.0000  18.5000 Du        
   1582 ****        -5.0000   1.0000  18.7500 Du        
   1583 ****        -5.0000   1.0000  19.0000 Du        
   1584 ****        -5.0000   1.0000  19.2500 Du        
   1585 ****        -5.0000   1.0000  19.5000 Du        
   1586 ****        -5.0000   1.0000  19.7500 Du        
   1587 ****        -5.0000   1.0000  20.0000 Du        
   1588 ****        -5.0000   1.0000  20.2500 Du        
   1589 ****        -5.0000   1.0000  20.5000 Du        
   1590 ****        -5.0000   1.0000  20.7500 Du        
   1591 ****        -5.0000   1.0000  21.0000 Du        
   1592 ****        -5.0000   1.0000  21.2500 Du        
   1593 ****        -5.0000   1.2500  16.2500 Du        
   1594 ****        -5.0000   1.2500  16.5000 Du        
   1595 ****        -5.0000   1.2500  16.7500 Du        
   1596 ****        -5.0000   1.2500  17.0000 Du        
   1597 ****        -5.0000   1.2500  17.2500 Du        
   1598 ****        -5.0000   1.2500  17.5000 Du        
   1599 ****        -5.0000   1.2500  17.7500 Du        
   1600 ****        -5.0000   1.2500  18.0000 Du        
   1601 ****        -5.0000   1.2500  18.2500 Du        
   1602 ****        -5.0000   1.2500  18.5000 Du        
   1603 ****        -5.0000   1.2500  18.7500 Du        
   1604 ****        -5.0000   1.2500  19.0000 Du        
   1605 ****        -5.0000   1.2500  19.2500 Du        
   1606 ****        -5.0000   1.2500  19.5000 Du        
   1607 ****        -5.0000   1.2500  19.7500 Du        
   1608 ****        -5.0000   1.2500  20.0000 Du        
   1609 ****        -5.0000   1.2500  20.2500 Du        
   1610 ****        -5.0000   1.2500  20.5000 Du        
   1611 ****        -5.0000   1.2500  20.7500 Du        
   1612 ****        -5.0000   1.2500  21.0000 Du        
   1613 ****        -5.0000   1.5000  15.7500 Du        
   1614 ****        -5.0000   1.5000  16.0000 Du        
   1615 ****        -5.0000   1.5000  16.2500 Du        
   1616 ****        -5.0000   1.5000  16.5000 Du        
   1617 ****        -5.0000   1.5000  16.7500 Du        
   1618 ****        -5.0000   1.5000  17.0000 Du        
   1619 ****        -5.0000   1.5000  17.2500 Du        
   1620 ****        -5.0000   1.5000  17.5000 Du        
   1621 ****        -5.0000   1.5000  17.7500 Du        
   1622 ****        -5.0000   1.5000  18.0000 Du        
   1623 ****        -5.0000   1.5000  18.2500 Du        
   1624 ****        -5.0000   1.5000  18.5000 Du        
   1625 ****        -5.0000   1.5000  18.7500 Du        
   1626 ****        -5.0000   1.5000  19.0000 Du        
   1627 ****        -5.0000   1.5000  19.2500 Du        
   1628 ****        -5.0000   1.5000  19.5000 Du        
   1629 ****        -5.0000   1.5000  19.7500 Du        
   1630 ****        -5.0000   1.5000  20.0000 Du        
   1631 ****        -5.0000   1.5000  20.2500 Du        
   1632 ****        -5.0000   1.5000  20.5000 Du        
   1633 ****        -5.0000   1.5000  20.7500 Du        
   1634 ****        -5.0000   1.5000  21.0000 Du        
   1635 ****        -5.0000   1.7500  15.7500 Du        
   1636 ****        -5.0000   1.7500  16.0000 Du        
   1637 ****        -5.0000   1.7500  16.2500 Du        
   1638 ****        -5.0000   1.7500  16.5000 Du        
   1639 ****        -5.0000   1.7500  16.7500 Du        
   1640 ****        -5.0000   1.7500  17.0000 Du        
   1641 ****        -5.0000   1.7500  17.2500 Du        
   1642 ****        -5.0000   1.7500  17.5000 Du        
   1643 ****        -5.0000   1.7500  17.7500 Du        
   1644 ****        -5.0000   1.7500  18.0000 Du        
   1645 ****        -5.0000   1.7500  18.2500 Du        
   1646 ****        -5.0000   1.7500  18.5000 Du        
   1647 ****        -5.0000   1.7500  18.7500 Du        
   1648 ****        -5.0000   1.7500  19.0000 Du        
   1649 ****        -5.0000   1.7500  19.2500 Du        
   1650 ****        -5.0000   1.7500  19.5000 Du        
   1651 ****        -5.0000   1.7500  19.7500 Du        
   1652 ****        -5.0000   1.7500  20.0000 Du        
   1653 ****        -5.0000   1.7500  20.2500 Du        
   1654 ****        -5.0000   1.7500  20.5000 Du        
   1655 ****        -5.0000   1.7500  20.7500 Du        
   1656 ****        -5.0000   2.0000  15.7500 Du        
   1657 ****        -5.0000   2.0000  16.0000 Du        
   1658 ****        -5.0000   2.0000  16.2500 Du        
   1659 ****        -5.0000   2.0000  16.5000 Du        
   1660 ****        -5.0000   2.0000  16.7500 Du        
   1661 ****        -5.0000   2.0000  17.0000 Du        
   1662 ****        -5.0000   2.0000  17.2500 Du        
   1663 ****        -5.0000   2.0000  17.5000 Du        
   1664 ****        -5.0000   2.0000  17.7500 Du        
   1665 ****        -5.0000   2.0000  18.0000 Du        
   1666 ****        -5.0000   2.0000  18.2500 Du        
   1667 ****        -5.0000   2.0000  18.5000 Du        
   1668 ****        -5.0000   2.0000  18.7500 Du        
   1669 ****        -5.0000   2.0000  19.0000 Du        
   1670 ****        -5.0000   2.0000  19.2500 Du        
   1671 ****        -5.0000   2.0000  19.5000 Du        
   1672 ****        -5.0000   2.0000  19.7500 Du        
   1673 ****        -5.0000   2.0000  20.0000 Du        
   1674 ****        -5.0000   2.0000  20.2500 Du        
   1675 ****        -5.0000   2.0000  20.5000 Du        
   1676 ****        -5.0000   2.2500  15.7500 Du        
   1677 ****        -5.0000   2.2500  16.0000 Du        
   1678 ****        -5.0000   2.2500  16.2500 Du        
   1679 ****        -5.0000   2.2500  16.5000 Du        
   1680 ****        -5.0000   2.2500  16.7500 Du        
   1681 ****        -5.0000   2.2500  17.0000 Du        
   1682 ****        -5.0000   2.2500  17.2500 Du        
   1683 ****        -5.0000   2.2500  17.5000 Du        
   1684 ****        -5.0000   2.2500  17.7500 Du        
   1685 ****        -5.0000   2.2500  18.0000 Du        
   1686 ****        -5.0000   2.2500  18.2500 Du        
   1687 ****        -5.0000   2.2500  18.5000 Du        
   1688 ****        -5.0000   2.2500  18.7500 Du        
   1689 ****        -5.0000   2.2500  19.0000 Du        
   1690 ****        -5.0000   2.2500  19.2500 Du        
   1691 ****        -5.0000   2.2500  19.5000 Du        
   1692 ****        -5.0000   2.2500  19.7500 Du        
   1693 ****        -5.0000   2.2500  20.0000 Du        
   1694 ****        -5.0000   2.2500  20.2500 Du        
   1695 ****        -5.0000   2.5000  18.7500 Du        
   1696 ****        -5.0000   2.5000  19.0000 Du        
   1697 ****        -5.0000   2.5000  19.2500 Du        
   1698 ****        -5.0000   2.5000  19.5000 Du        
   1699 ****        -5.0000   2.5000  19.7500 Du        
   1700 ****        -5.0000   2.5000  20.0000 Du        
   1701 ****        -5.0000   4.7500  25.2500 Du        
   1702 ****        -5.0000   5.0000  25.0000 Du        
   1703 ****        -5.0000   5.0000  25.2500 Du        
   1704 ****        -5.0000   5.2500  24.7500 Du        
   1705 ****        -5.0000   5.2500  25.0000 Du        
   1706 ****        -5.0000   5.2500  25.2500 Du        
   1707 ****        -5.0000   5.5000  24.7500 Du        
   1708 ****        -5.0000   5.5000  25.0000 Du        
   1709 ****        -5.0000   5.7500  24.2500 Du        
   1710 ****        -5.0000   5.7500  24.5000 Du        
   1711 ****        -5.0000   5.7500  24.7500 Du        
   1712 ****        -5.0000   5.7500  25.0000 Du        
   1713 ****        -5.0000   6.0000  24.0000 Du        
   1714 ****        -5.0000   6.0000  24.2500 Du        
   1715 ****        -5.0000   6.0000  24.5000 Du        
   1716 ****        -5.0000   6.0000  24.7500 Du        
   1717 ****        -5.0000   6.0000  25.0000 Du        
   1718 ****        -5.0000   6.2500  23.7500 Du        
   1719 ****        -5.0000   6.2500  24.0000 Du        
   1720 ****        -5.0000   6.2500  24.2500 Du        
   1721 ****        -5.0000   6.2500  24.5000 Du        
   1722 ****        -5.0000   6.2500  24.7500 Du        
   1723 ****        -5.0000   6.2500  25.0000 Du        
   1724 ****        -5.0000   6.5000  21.7500 Du        
   1725 ****        -5.0000   6.5000  23.2500 Du        
   1726 ****        -5.0000   6.5000  23.5000 Du        
   1727 ****        -5.0000   6.5000  23.7500 Du        
   1728 ****        -5.0000   6.5000  24.0000 Du        
   1729 ****        -5.0000   6.5000  24.2500 Du        
   1730 ****        -5.0000   6.5000  24.5000 Du        
   1731 ****        -5.0000   6.5000  24.7500 Du        
   1732 ****        -5.0000   6.5000  25.0000 Du        
   1733 ****        -5.0000   6.7500  21.2500 Du        
   1734 ****        -5.0000   6.7500  21.5000 Du        
   1735 ****        -5.0000   6.7500  21.7500 Du        
   1736 ****        -5.0000   6.7500  22.0000 Du        
   1737 ****        -5.0000   6.7500  22.2500 Du        
   1738 ****        -5.0000   6.7500  22.5000 Du        
   1739 ****        -5.0000   6.7500  22.7500 Du        
   1740 ****        -5.0000   6.7500  23.0000 Du        
   1741 ****        -5.0000   6.7500  23.2500 Du        
   1742 ****        -5.0000   6.7500  23.5000 Du        
   1743 ****        -5.0000   6.7500  23.7500 Du        
   1744 ****        -5.0000   6.7500  24.0000 Du        
   1745 ****        -5.0000   6.7500  24.2500 Du        
   1746 ****        -5.0000   6.7500  24.5000 Du        
   1747 ****        -5.0000   6.7500  24.7500 Du        
   1748 ****        -5.0000   6.7500  25.0000 Du        
   1749 ****        -5.0000   7.0000  21.0000 Du        
   1750 ****        -5.0000   7.0000  21.2500 Du        
   1751 ****        -5.0000   7.0000  21.5000 Du        
   1752 ****        -5.0000   7.0000  21.7500 Du        
   1753 ****        -5.0000   7.0000  22.0000 Du        
   1754 ****        -5.0000   7.0000  22.2500 Du        
   1755 ****        -5.0000   7.0000  22.5000 Du        
   1756 ****        -5.0000   7.0000  22.7500 Du        
   1757 ****        -5.0000   7.0000  23.0000 Du        
   1758 ****        -5.0000   7.0000  23.2500 Du        
   1759 ****        -5.0000   7.0000  23.5000 Du        
   1760 ****        -5.0000   7.0000  23.7500 Du        
   1761 ****        -5.0000   7.0000  24.0000 Du        
   1762 ****        -5.0000   7.0000  24.2500 Du        
   1763 ****        -5.0000   7.0000  24.5000 Du        
   1764 ****        -5.0000   7.0000  24.7500 Du        
   1765 ****        -5.0000   7.0000  25.0000 Du        
   1766 ****        -5.0000   7.2500  21.0000 Du        
   1767 ****        -5.0000   7.2500  21.2500 Du        
   1768 ****        -5.0000   7.2500  21.5000 Du        
   1769 ****        -5.0000   7.2500  21.7500 Du        
   1770 ****        -5.0000   7.2500  22.0000 Du        
   1771 ****        -5.0000   7.2500  22.2500 Du        
   1772 ****        -5.0000   7.2500  22.5000 Du        
   1773 ****        -5.0000   7.2500  22.7500 Du        
   1774 ****        -5.0000   7.2500  23.0000 Du        
   1775 ****        -5.0000   7.2500  23.2500 Du        
   1776 ****        -5.0000   7.2500  23.5000 Du        
   1777 ****        -5.0000   7.2500  23.7500 Du        
   1778 ****        -5.0000   7.2500  24.0000 Du        
   1779 ****        -5.0000   7.2500  24.2500 Du        
   1780 ****        -5.0000   7.2500  24.5000 Du        
   1781 ****        -5.0000   7.2500  24.7500 Du        
   1782 ****        -5.0000   7.2500  25.0000 Du        
   1783 ****        -5.0000   7.5000  20.7500 Du        
   1784 ****        -5.0000   7.5000  21.0000 Du        
   1785 ****        -5.0000   7.5000  21.2500 Du        
   1786 ****        -5.0000   7.5000  21.5000 Du        
   1787 ****        -5.0000   7.5000  21.7500 Du        
   1788 ****        -5.0000   7.5000  22.0000 Du        
   1789 ****        -5.0000   7.5000  22.2500 Du        
   1790 ****        -5.0000   7.5000  22.5000 Du        
   1791 ****        -5.0000   7.5000  22.7500 Du        
   1792 ****        -5.0000   7.5000  23.0000 Du        
   1793 ****        -5.0000   7.5000  23.2500 Du        
   1794 ****        -5.0000   7.5000  23.5000 Du        
   1795 ****        -5.0000   7.5000  23.7500 Du        
   1796 ****        -5.0000   7.5000  24.0000 Du        
   1797 ****        -5.0000   7.5000  24.2500 Du        
   1798 ****        -5.0000   7.5000  24.5000 Du        
   1799 ****        -5.0000   7.5000  24.7500 Du        
   1800 ****        -5.0000   7.7500  20.7500 Du        
   1801 ****        -5.0000   7.7500  21.0000 Du        
   1802 ****        -5.0000   7.7500  21.2500 Du        
   1803 ****        -5.0000   7.7500  21.5000 Du        
   1804 ****        -5.0000   7.7500  21.7500 Du        
   1805 ****        -5.0000   7.7500  22.0000 Du        
   1806 ****        -5.0000   7.7500  22.2500 Du        
   1807 ****        -5.0000   7.7500  22.5000 Du        
   1808 ****        -5.0000   7.7500  22.7500 Du        
   1809 ****        -5.0000   7.7500  23.0000 Du        
   1810 ****        -5.0000   7.7500  23.2500 Du        
   1811 ****        -5.0000   7.7500  23.5000 Du        
   1812 ****        -5.0000   7.7500  23.7500 Du        
   1813 ****        -5.0000   7.7500  24.0000 Du        
   1814 ****        -5.0000   7.7500  24.2500 Du        
   1815 ****        -5.0000   7.7500  24.5000 Du        
   1816 ****        -5.0000   7.7500  24.7500 Du        
   1817 ****        -5.0000   8.0000  20.5000 Du        
   1818 ****        -5.0000   8.0000  20.7500 Du        
   1819 ****        -5.0000   8.0000  21.0000 Du        
   1820 ****        -5.0000   8.0000  21.2500 Du        
   1821 ****        -5.0000   8.0000  21.5000 Du        
   1822 ****        -5.0000   8.0000  21.7500 Du        
   1823 ****        -5.0000   8.0000  22.0000 Du        
   1824 ****        -5.0000   8.0000  22.2500 Du        
   1825 ****        -5.0000   8.0000  22.5000 Du        
   1826 ****        -5.0000   8.0000  22.7500 Du        
   1827 ****        -5.0000   8.0000  23.0000 Du        
   1828 ****        -5.0000   8.0000  23.2500 Du        
   1829 ****        -5.0000   8.0000  23.5000 Du        
   1830 ****        -5.0000   8.0000  23.7500 Du        
   1831 ****        -5.0000   8.0000  24.0000 Du        
   1832 ****        -5.0000   8.0000  24.2500 Du        
   1833 ****        -5.0000   8.0000  24.5000 Du        
   1834 ****        -5.0000   8.2500  20.5000 Du        
   1835 ****        -5.0000   8.2500  20.7500 Du        
   1836 ****        -5.0000   8.2500  21.0000 Du        
   1837 ****        -5.0000   8.2500  21.2500 Du        
   1838 ****        -5.0000   8.2500  21.5000 Du        
   1839 ****        -5.0000   8.2500  21.7500 Du        
   1840 ****        -5.0000   8.2500  22.0000 Du        
   1841 ****        -5.0000   8.2500  22.2500 Du        
   1842 ****        -5.0000   8.2500  22.5000 Du        
   1843 ****        -5.0000   8.2500  22.7500 Du        
   1844 ****        -5.0000   8.2500  23.0000 Du        
   1845 ****        -5.0000   8.2500  23.2500 Du        
   1846 ****        -5.0000   8.2500  23.5000 Du        
   1847 ****        -5.0000   8.2500  23.7500 Du        
   1848 ****        -5.0000   8.2500  24.0000 Du        
   1849 ****        -5.0000   8.2500  24.2500 Du        
   1850 ****        -5.0000   8.5000  20.7500 Du        
   1851 ****        -5.0000   8.5000  21.0000 Du        
   1852 ****        -5.0000   8.5000  21.2500 Du        
   1853 ****        -5.0000   8.5000  21.5000 Du        
   1854 ****        -5.0000   8.5000  21.7500 Du        
   1855 ****        -5.0000   8.5000  22.0000 Du        
   1856 ****        -5.0000   8.5000  22.2500 Du        
   1857 ****        -5.0000   8.5000  22.5000 Du        
   1858 ****        -5.0000   8.5000  22.7500 Du        
   1859 ****        -5.0000   8.5000  23.0000 Du        
   1860 ****        -5.0000   8.5000  23.2500 Du        
   1861 ****        -5.0000   8.5000  23.5000 Du        
   1862 ****        -5.0000   8.5000  23.7500 Du        
   1863 ****        -5.0000   8.5000  24.0000 Du        
   1864 ****        -5.0000   8.7500  21.2500 Du        
   1865 ****        -5.0000   8.7500  21.5000 Du        
   1866 ****        -5.0000   8.7500  21.7500 Du        
   1867 ****        -5.0000   8.7500  22.0000 Du        
   1868 ****        -5.0000   8.7500  22.2500 Du        
   1869 ****        -5.0000   8.7500  22.5000 Du        
   1870 ****        -5.0000   8.7500  22.7500 Du        
   1871 ****        -5.0000   8.7500  23.0000 Du        
   1872 ****        -5.0000   8.7500  23.2500 Du        
   1873 ****        -5.0000   8.7500  23.5000 Du        
   1874 ****        -5.0000   8.7500  23.7500 Du        
   1875 ****        -5.0000   9.0000  21.5000 Du        
   1876 ****        -5.0000   9.0000  21.7500 Du        
   1877 ****        -5.0000   9.0000  22.0000 Du        
   1878 ****        -5.0000   9.0000  22.2500 Du        
   1879 ****        -5.0000   9.0000  22.5000 Du        
   1880 ****        -5.0000   9.0000  22.7500 Du        
   1881 ****        -5.0000   9.0000  23.0000 Du        
   1882 ****        -5.0000   9.0000  23.2500 Du        
   1883 ****        -5.0000   9.0000  23.5000 Du        
   1884 ****        -5.0000   9.2500  21.7500 Du        
   1885 ****        -5.0000   9.2500  22.0000 Du        
   1886 ****        -5.0000   9.2500  22.2500 Du        
   1887 ****        -5.0000   9.2500  22.5000 Du        
   1888 ****        -5.0000   9.2500  22.7500 Du        
   1889 ****        -5.0000   9.2500  23.0000 Du        
   1890 ****        -5.0000   9.2500  23.2500 Du        
   1891 ****        -5.0000   9.5000  22.0000 Du        
   1892 ****        -5.0000   9.5000  22.2500 Du        
   1893 ****        -5.0000   9.5000  22.5000 Du        
   1894 ****        -5.0000   9.5000  22.7500 Du        
   1895 ****        -5.0000   9.5000  23.0000 Du        
   1896 ****        -5.0000   9.7500  14.0000 Du        
   1897 ****        -5.0000   9.7500  14.2500 Du        
   1898 ****        -5.0000   9.7500  14.5000 Du        
   1899 ****        -5.0000   9.7500  14.7500 Du        
   1900 ****        -5.0000   9.7500  22.2500 Du        
   1901 ****        -5.0000   9.7500  22.5000 Du        
   1902 ****        -5.0000   9.7500  22.7500 Du        
   1903 ****        -5.0000  10.0000  13.5000 Du        
   1904 ****        -5.0000  10.0000  13.7500 Du        
   1905 ****        -5.0000  10.0000  14.0000 Du        
   1906 ****        -5.0000  10.0000  14.2500 Du        
   1907 ****        -5.0000  10.0000  14.5000 Du        
   1908 ****        -5.0000  10.0000  14.7500 Du        
   1909 ****        -5.0000  10.2500  13.7500 Du        
   1910 ****        -5.0000  10.2500  14.0000 Du        
   1911 ****        -5.0000  10.2500  14.2500 Du        
   1912 ****        -5.0000  10.2500  14.5000 Du        
   1913 ****        -5.0000  10.2500  14.7500 Du        
   1914 ****        -5.0000  10.5000  14.2500 Du        
   1915 ****        -5.0000  10.5000  14.5000 Du        
   1916 ****        -4.7500  -6.7500   7.7500 Du        
   1917 ****        -4.7500  -6.7500   8.0000 Du        
   1918 ****        -4.7500  -6.7500   8.2500 Du        
   1919 ****        -4.7500  -6.7500   8.5000 Du        
   1920 ****        -4.7500  -6.7500   8.7500 Du        
   1921 ****        -4.7500  -6.5000   7.7500 Du        
   1922 ****        -4.7500  -6.5000   8.0000 Du        
   1923 ****        -4.7500  -6.5000   8.2500 Du        
   1924 ****        -4.7500  -6.5000   8.5000 Du        
   1925 ****        -4.7500  -6.5000   8.7500 Du        
   1926 ****        -4.7500  -6.2500   7.7500 Du        
   1927 ****        -4.7500  -6.2500   8.0000 Du        
   1928 ****        -4.7500  -6.2500   8.2500 Du        
   1929 ****        -4.7500  -6.2500   8.5000 Du        
   1930 ****        -4.7500  -6.0000   7.7500 Du        
   1931 ****        -4.7500  -6.0000   8.0000 Du        
   1932 ****        -4.7500  -6.0000   8.2500 Du        
   1933 ****        -4.7500  -5.7500   7.7500 Du        
   1934 ****        -4.7500  -5.7500   8.0000 Du        
   1935 ****        -4.7500  -5.7500   8.2500 Du        
   1936 ****        -4.7500  -5.5000   7.5000 Du        
   1937 ****        -4.7500  -5.5000   7.7500 Du        
   1938 ****        -4.7500  -5.5000   8.0000 Du        
   1939 ****        -4.7500  -5.2500   7.5000 Du        
   1940 ****        -4.7500  -5.2500   7.7500 Du        
   1941 ****        -4.7500  -5.2500   8.0000 Du        
   1942 ****        -4.7500  -5.0000   7.5000 Du        
   1943 ****        -4.7500  -5.0000   7.7500 Du        
   1944 ****        -4.7500  -4.7500   7.2500 Du        
   1945 ****        -4.7500  -4.7500   7.5000 Du        
   1946 ****        -4.7500  -4.7500   7.7500 Du        
   1947 ****        -4.7500  -4.5000   7.2500 Du        
   1948 ****        -4.7500  -4.5000   7.5000 Du        
   1949 ****        -4.7500  -1.7500  27.2500 Du        
   1950 ****        -4.7500  -1.2500  25.0000 Du        
   1951 ****        -4.7500  -1.2500  25.2500 Du        
   1952 ****        -4.7500  -1.2500  25.5000 Du        
   1953 ****        -4.7500  -1.2500  25.7500 Du        
   1954 ****        -4.7500  -1.2500  26.0000 Du        
   1955 ****        -4.7500  -1.2500  26.2500 Du        
   1956 ****        -4.7500  -1.0000  23.0000 Du        
   1957 ****        -4.7500  -1.0000  23.2500 Du        
   1958 ****        -4.7500  -1.0000  23.5000 Du        
   1959 ****        -4.7500  -1.0000  23.7500 Du        
   1960 ****        -4.7500  -1.0000  24.0000 Du        
   1961 ****        -4.7500  -1.0000  24.2500 Du        
   1962 ****        -4.7500  -1.0000  24.5000 Du        
   1963 ****        -4.7500  -1.0000  24.7500 Du        
   1964 ****        -4.7500  -1.0000  25.0000 Du        
   1965 ****        -4.7500  -1.0000  25.2500 Du        
   1966 ****        -4.7500  -1.0000  25.5000 Du        
   1967 ****        -4.7500  -1.0000  25.7500 Du        
   1968 ****        -4.7500  -1.0000  26.0000 Du        
   1969 ****        -4.7500  -1.0000  26.2500 Du        
   1970 ****        -4.7500  -0.7500  20.2500 Du        
   1971 ****        -4.7500  -0.7500  20.5000 Du        
   1972 ****        -4.7500  -0.7500  22.7500 Du        
   1973 ****        -4.7500  -0.7500  23.0000 Du        
   1974 ****        -4.7500  -0.7500  23.2500 Du        
   1975 ****        -4.7500  -0.7500  23.5000 Du        
   1976 ****        -4.7500  -0.7500  23.7500 Du        
   1977 ****        -4.7500  -0.7500  24.0000 Du        
   1978 ****        -4.7500  -0.7500  24.2500 Du        
   1979 ****        -4.7500  -0.7500  24.5000 Du        
   1980 ****        -4.7500  -0.7500  24.7500 Du        
   1981 ****        -4.7500  -0.7500  25.0000 Du        
   1982 ****        -4.7500  -0.7500  25.2500 Du        
   1983 ****        -4.7500  -0.7500  25.5000 Du        
   1984 ****        -4.7500  -0.7500  25.7500 Du        
   1985 ****        -4.7500  -0.7500  26.0000 Du        
   1986 ****        -4.7500  -0.5000  19.7500 Du        
   1987 ****        -4.7500  -0.5000  20.0000 Du        
   1988 ****        -4.7500  -0.5000  20.2500 Du        
   1989 ****        -4.7500  -0.5000  20.5000 Du        
   1990 ****        -4.7500  -0.5000  20.7500 Du        
   1991 ****        -4.7500  -0.5000  21.0000 Du        
   1992 ****        -4.7500  -0.5000  21.2500 Du        
   1993 ****        -4.7500  -0.5000  22.7500 Du        
   1994 ****        -4.7500  -0.5000  23.0000 Du        
   1995 ****        -4.7500  -0.5000  23.2500 Du        
   1996 ****        -4.7500  -0.5000  23.5000 Du        
   1997 ****        -4.7500  -0.5000  23.7500 Du        
   1998 ****        -4.7500  -0.5000  24.0000 Du        
   1999 ****        -4.7500  -0.5000  24.2500 Du        
   2000 ****        -4.7500  -0.5000  24.5000 Du        
   2001 ****        -4.7500  -0.5000  24.7500 Du        
   2002 ****        -4.7500  -0.5000  25.0000 Du        
   2003 ****        -4.7500  -0.5000  25.2500 Du        
   2004 ****        -4.7500  -0.2500  19.5000 Du        
   2005 ****        -4.7500  -0.2500  19.7500 Du        
   2006 ****        -4.7500  -0.2500  20.0000 Du        
   2007 ****        -4.7500  -0.2500  20.2500 Du        
   2008 ****        -4.7500  -0.2500  20.5000 Du        
   2009 ****        -4.7500  -0.2500  20.7500 Du        
   2010 ****        -4.7500  -0.2500  21.0000 Du        
   2011 ****        -4.7500  -0.2500  21.2500 Du        
   2012 ****        -4.7500  -0.2500  21.5000 Du        
   2013 ****        -4.7500  -0.2500  21.7500 Du        
   2014 ****        -4.7500  -0.2500  22.0000 Du        
   2015 ****        -4.7500  -0.2500  24.0000 Du        
   2016 ****        -4.7500  -0.2500  24.2500 Du        
   2017 ****        -4.7500  -0.2500  24.5000 Du        
   2018 ****        -4.7500  -0.2500  24.7500 Du        
   2019 ****        -4.7500  -0.2500  25.0000 Du        
   2020 ****        -4.7500  -0.2500  25.2500 Du        
   2021 ****        -4.7500   0.0000  19.0000 Du        
   2022 ****        -4.7500   0.0000  19.2500 Du        
   2023 ****        -4.7500   0.0000  19.5000 Du        
   2024 ****        -4.7500   0.0000  19.7500 Du        
   2025 ****        -4.7500   0.0000  20.0000 Du        
   2026 ****        -4.7500   0.0000  20.2500 Du        
   2027 ****        -4.7500   0.0000  20.5000 Du        
   2028 ****        -4.7500   0.0000  20.7500 Du        
   2029 ****        -4.7500   0.0000  21.0000 Du        
   2030 ****        -4.7500   0.0000  21.2500 Du        
   2031 ****        -4.7500   0.0000  21.5000 Du        
   2032 ****        -4.7500   0.0000  21.7500 Du        
   2033 ****        -4.7500   0.0000  24.5000 Du        
   2034 ****        -4.7500   0.0000  24.7500 Du        
   2035 ****        -4.7500   0.0000  25.0000 Du        
   2036 ****        -4.7500   0.2500  18.5000 Du        
   2037 ****        -4.7500   0.2500  18.7500 Du        
   2038 ****        -4.7500   0.2500  19.0000 Du        
   2039 ****        -4.7500   0.2500  19.2500 Du        
   2040 ****        -4.7500   0.2500  19.5000 Du        
   2041 ****        -4.7500   0.2500  19.7500 Du        
   2042 ****        -4.7500   0.2500  20.0000 Du        
   2043 ****        -4.7500   0.2500  20.2500 Du        
   2044 ****        -4.7500   0.2500  20.5000 Du        
   2045 ****        -4.7500   0.2500  20.7500 Du        
   2046 ****        -4.7500   0.2500  21.0000 Du        
   2047 ****        -4.7500   0.2500  21.2500 Du        
   2048 ****        -4.7500   0.2500  21.5000 Du        
   2049 ****        -4.7500   0.2500  21.7500 Du        
   2050 ****        -4.7500   0.5000  18.0000 Du        
   2051 ****        -4.7500   0.5000  18.2500 Du        
   2052 ****        -4.7500   0.5000  18.5000 Du        
   2053 ****        -4.7500   0.5000  18.7500 Du        
   2054 ****        -4.7500   0.5000  19.0000 Du        
   2055 ****        -4.7500   0.5000  19.2500 Du        
   2056 ****        -4.7500   0.5000  19.5000 Du        
   2057 ****        -4.7500   0.5000  19.7500 Du        
   2058 ****        -4.7500   0.5000  20.0000 Du        
   2059 ****        -4.7500   0.5000  20.2500 Du        
   2060 ****        -4.7500   0.5000  20.5000 Du        
   2061 ****        -4.7500   0.5000  20.7500 Du        
   2062 ****        -4.7500   0.5000  21.0000 Du        
   2063 ****        -4.7500   0.5000  21.2500 Du        
   2064 ****        -4.7500   0.7500  17.7500 Du        
   2065 ****        -4.7500   0.7500  18.0000 Du        
   2066 ****        -4.7500   0.7500  18.2500 Du        
   2067 ****        -4.7500   0.7500  18.5000 Du        
   2068 ****        -4.7500   0.7500  18.7500 Du        
   2069 ****        -4.7500   0.7500  19.0000 Du        
   2070 ****        -4.7500   0.7500  19.2500 Du        
   2071 ****        -4.7500   0.7500  19.5000 Du        
   2072 ****        -4.7500   0.7500  19.7500 Du        
   2073 ****        -4.7500   0.7500  20.0000 Du        
   2074 ****        -4.7500   0.7500  20.2500 Du        
   2075 ****        -4.7500   0.7500  20.5000 Du        
   2076 ****        -4.7500   0.7500  20.7500 Du        
   2077 ****        -4.7500   0.7500  21.0000 Du        
   2078 ****        -4.7500   0.7500  21.2500 Du        
   2079 ****        -4.7500   1.0000  17.0000 Du        
   2080 ****        -4.7500   1.0000  17.2500 Du        
   2081 ****        -4.7500   1.0000  17.5000 Du        
   2082 ****        -4.7500   1.0000  17.7500 Du        
   2083 ****        -4.7500   1.0000  18.0000 Du        
   2084 ****        -4.7500   1.0000  18.2500 Du        
   2085 ****        -4.7500   1.0000  18.5000 Du        
   2086 ****        -4.7500   1.0000  18.7500 Du        
   2087 ****        -4.7500   1.0000  19.0000 Du        
   2088 ****        -4.7500   1.0000  19.2500 Du        
   2089 ****        -4.7500   1.0000  19.5000 Du        
   2090 ****        -4.7500   1.0000  19.7500 Du        
   2091 ****        -4.7500   1.0000  20.0000 Du        
   2092 ****        -4.7500   1.0000  20.2500 Du        
   2093 ****        -4.7500   1.0000  20.5000 Du        
   2094 ****        -4.7500   1.0000  20.7500 Du        
   2095 ****        -4.7500   1.0000  21.0000 Du        
   2096 ****        -4.7500   1.0000  21.2500 Du        
   2097 ****        -4.7500   1.2500  16.2500 Du        
   2098 ****        -4.7500   1.2500  16.5000 Du        
   2099 ****        -4.7500   1.2500  16.7500 Du        
   2100 ****        -4.7500   1.2500  17.0000 Du        
   2101 ****        -4.7500   1.2500  17.2500 Du        
   2102 ****        -4.7500   1.2500  17.5000 Du        
   2103 ****        -4.7500   1.2500  17.7500 Du        
   2104 ****        -4.7500   1.2500  18.0000 Du        
   2105 ****        -4.7500   1.2500  18.2500 Du        
   2106 ****        -4.7500   1.2500  18.5000 Du        
   2107 ****        -4.7500   1.2500  18.7500 Du        
   2108 ****        -4.7500   1.2500  19.0000 Du        
   2109 ****        -4.7500   1.2500  19.2500 Du        
   2110 ****        -4.7500   1.2500  19.5000 Du        
   2111 ****        -4.7500   1.2500  19.7500 Du        
   2112 ****        -4.7500   1.2500  20.0000 Du        
   2113 ****        -4.7500   1.2500  20.2500 Du        
   2114 ****        -4.7500   1.2500  20.5000 Du        
   2115 ****        -4.7500   1.2500  20.7500 Du        
   2116 ****        -4.7500   1.2500  21.0000 Du        
   2117 ****        -4.7500   1.2500  21.2500 Du        
   2118 ****        -4.7500   1.5000  15.7500 Du        
   2119 ****        -4.7500   1.5000  16.0000 Du        
   2120 ****        -4.7500   1.5000  16.2500 Du        
   2121 ****        -4.7500   1.5000  16.5000 Du        
   2122 ****        -4.7500   1.5000  16.7500 Du        
   2123 ****        -4.7500   1.5000  17.0000 Du        
   2124 ****        -4.7500   1.5000  17.2500 Du        
   2125 ****        -4.7500   1.5000  17.5000 Du        
   2126 ****        -4.7500   1.5000  17.7500 Du        
   2127 ****        -4.7500   1.5000  18.0000 Du        
   2128 ****        -4.7500   1.5000  18.2500 Du        
   2129 ****        -4.7500   1.5000  18.5000 Du        
   2130 ****        -4.7500   1.5000  18.7500 Du        
   2131 ****        -4.7500   1.5000  19.0000 Du        
   2132 ****        -4.7500   1.5000  19.2500 Du        
   2133 ****        -4.7500   1.5000  19.5000 Du        
   2134 ****        -4.7500   1.5000  19.7500 Du        
   2135 ****        -4.7500   1.5000  20.0000 Du        
   2136 ****        -4.7500   1.5000  20.2500 Du        
   2137 ****        -4.7500   1.5000  20.5000 Du        
   2138 ****        -4.7500   1.5000  20.7500 Du        
   2139 ****        -4.7500   1.5000  21.0000 Du        
   2140 ****        -4.7500   1.7500  15.7500 Du        
   2141 ****        -4.7500   1.7500  16.0000 Du        
   2142 ****        -4.7500   1.7500  16.2500 Du        
   2143 ****        -4.7500   1.7500  16.5000 Du        
   2144 ****        -4.7500   1.7500  16.7500 Du        
   2145 ****        -4.7500   1.7500  17.0000 Du        
   2146 ****        -4.7500   1.7500  17.2500 Du        
   2147 ****        -4.7500   1.7500  17.5000 Du        
   2148 ****        -4.7500   1.7500  17.7500 Du        
   2149 ****        -4.7500   1.7500  18.0000 Du        
   2150 ****        -4.7500   1.7500  18.2500 Du        
   2151 ****        -4.7500   1.7500  18.5000 Du        
   2152 ****        -4.7500   1.7500  18.7500 Du        
   2153 ****        -4.7500   1.7500  19.0000 Du        
   2154 ****        -4.7500   1.7500  19.2500 Du        
   2155 ****        -4.7500   1.7500  19.5000 Du        
   2156 ****        -4.7500   1.7500  19.7500 Du        
   2157 ****        -4.7500   1.7500  20.0000 Du        
   2158 ****        -4.7500   1.7500  20.2500 Du        
   2159 ****        -4.7500   1.7500  20.5000 Du        
   2160 ****        -4.7500   1.7500  20.7500 Du        
   2161 ****        -4.7500   1.7500  21.0000 Du        
   2162 ****        -4.7500   2.0000  15.7500 Du        
   2163 ****        -4.7500   2.0000  16.0000 Du        
   2164 ****        -4.7500   2.0000  16.2500 Du        
   2165 ****        -4.7500   2.0000  16.5000 Du        
   2166 ****        -4.7500   2.0000  16.7500 Du        
   2167 ****        -4.7500   2.0000  17.0000 Du        
   2168 ****        -4.7500   2.0000  17.2500 Du        
   2169 ****        -4.7500   2.0000  17.5000 Du        
   2170 ****        -4.7500   2.0000  17.7500 Du        
   2171 ****        -4.7500   2.0000  18.0000 Du        
   2172 ****        -4.7500   2.0000  18.2500 Du        
   2173 ****        -4.7500   2.0000  18.5000 Du        
   2174 ****        -4.7500   2.0000  18.7500 Du        
   2175 ****        -4.7500   2.0000  19.0000 Du        
   2176 ****        -4.7500   2.0000  19.2500 Du        
   2177 ****        -4.7500   2.0000  19.5000 Du        
   2178 ****        -4.7500   2.0000  19.7500 Du        
   2179 ****        -4.7500   2.0000  20.0000 Du        
   2180 ****        -4.7500   2.0000  20.2500 Du        
   2181 ****        -4.7500   2.0000  20.5000 Du        
   2182 ****        -4.7500   2.0000  20.7500 Du        
   2183 ****        -4.7500   2.2500  16.0000 Du        
   2184 ****        -4.7500   2.2500  16.2500 Du        
   2185 ****        -4.7500   2.2500  16.5000 Du        
   2186 ****        -4.7500   2.2500  16.7500 Du        
   2187 ****        -4.7500   2.2500  17.0000 Du        
   2188 ****        -4.7500   2.2500  17.2500 Du        
   2189 ****        -4.7500   2.2500  17.5000 Du        
   2190 ****        -4.7500   2.2500  17.7500 Du        
   2191 ****        -4.7500   2.2500  18.0000 Du        
   2192 ****        -4.7500   2.2500  18.2500 Du        
   2193 ****        -4.7500   2.2500  18.5000 Du        
   2194 ****        -4.7500   2.2500  18.7500 Du        
   2195 ****        -4.7500   2.2500  19.0000 Du        
   2196 ****        -4.7500   2.2500  19.2500 Du        
   2197 ****        -4.7500   2.2500  19.5000 Du        
   2198 ****        -4.7500   2.2500  19.7500 Du        
   2199 ****        -4.7500   2.2500  20.0000 Du        
   2200 ****        -4.7500   2.2500  20.2500 Du        
   2201 ****        -4.7500   2.2500  20.5000 Du        
   2202 ****        -4.7500   2.5000  18.2500 Du        
   2203 ****        -4.7500   2.5000  18.5000 Du        
   2204 ****        -4.7500   2.5000  18.7500 Du        
   2205 ****        -4.7500   2.5000  19.0000 Du        
   2206 ****        -4.7500   2.5000  19.2500 Du        
   2207 ****        -4.7500   2.5000  19.5000 Du        
   2208 ****        -4.7500   2.5000  19.7500 Du        
   2209 ****        -4.7500   2.5000  20.0000 Du        
   2210 ****        -4.7500   2.5000  20.2500 Du        
   2211 ****        -4.7500   2.7500  19.5000 Du        
   2212 ****        -4.7500   2.7500  19.7500 Du        
   2213 ****        -4.7500   2.7500  20.0000 Du        
   2214 ****        -4.7500   3.2500  25.2500 Du        
   2215 ****        -4.7500   3.2500  25.5000 Du        
   2216 ****        -4.7500   3.2500  25.7500 Du        
   2217 ****        -4.7500   3.5000  25.2500 Du        
   2218 ****        -4.7500   3.5000  25.5000 Du        
   2219 ****        -4.7500   3.5000  25.7500 Du        
   2220 ****        -4.7500   3.5000  26.0000 Du        
   2221 ****        -4.7500   3.7500  25.2500 Du        
   2222 ****        -4.7500   3.7500  25.5000 Du        
   2223 ****        -4.7500   3.7500  25.7500 Du        
   2224 ****        -4.7500   4.0000  25.0000 Du        
   2225 ****        -4.7500   4.0000  25.2500 Du        
   2226 ****        -4.7500   4.0000  25.5000 Du        
   2227 ****        -4.7500   4.0000  25.7500 Du        
   2228 ****        -4.7500   4.2500  25.0000 Du        
   2229 ****        -4.7500   4.2500  25.2500 Du        
   2230 ****        -4.7500   4.2500  25.5000 Du        
   2231 ****        -4.7500   4.2500  25.7500 Du        
   2232 ****        -4.7500   4.5000  25.0000 Du        
   2233 ****        -4.7500   4.5000  25.2500 Du        
   2234 ****        -4.7500   4.5000  25.5000 Du        
   2235 ****        -4.7500   4.7500  24.7500 Du        
   2236 ****        -4.7500   4.7500  25.0000 Du        
   2237 ****        -4.7500   4.7500  25.2500 Du        
   2238 ****        -4.7500   4.7500  25.5000 Du        
   2239 ****        -4.7500   5.0000  24.7500 Du        
   2240 ****        -4.7500   5.0000  25.0000 Du        
   2241 ****        -4.7500   5.0000  25.2500 Du        
   2242 ****        -4.7500   5.0000  25.5000 Du        
   2243 ****        -4.7500   5.2500  24.5000 Du        
   2244 ****        -4.7500   5.2500  24.7500 Du        
   2245 ****        -4.7500   5.2500  25.0000 Du        
   2246 ****        -4.7500   5.2500  25.2500 Du        
   2247 ****        -4.7500   5.5000  24.2500 Du        
   2248 ****        -4.7500   5.5000  24.5000 Du        
   2249 ****        -4.7500   5.5000  24.7500 Du        
   2250 ****        -4.7500   5.5000  25.0000 Du        
   2251 ****        -4.7500   5.5000  25.2500 Du        
   2252 ****        -4.7500   5.7500  24.0000 Du        
   2253 ****        -4.7500   5.7500  24.2500 Du        
   2254 ****        -4.7500   5.7500  24.5000 Du        
   2255 ****        -4.7500   5.7500  24.7500 Du        
   2256 ****        -4.7500   5.7500  25.0000 Du        
   2257 ****        -4.7500   5.7500  25.2500 Du        
   2258 ****        -4.7500   6.0000  23.7500 Du        
   2259 ****        -4.7500   6.0000  24.0000 Du        
   2260 ****        -4.7500   6.0000  24.2500 Du        
   2261 ****        -4.7500   6.0000  24.5000 Du        
   2262 ****        -4.7500   6.0000  24.7500 Du        
   2263 ****        -4.7500   6.0000  25.0000 Du        
   2264 ****        -4.7500   6.0000  25.2500 Du        
   2265 ****        -4.7500   6.2500  21.5000 Du        
   2266 ****        -4.7500   6.2500  23.5000 Du        
   2267 ****        -4.7500   6.2500  23.7500 Du        
   2268 ****        -4.7500   6.2500  24.0000 Du        
   2269 ****        -4.7500   6.2500  24.2500 Du        
   2270 ****        -4.7500   6.2500  24.5000 Du        
   2271 ****        -4.7500   6.2500  24.7500 Du        
   2272 ****        -4.7500   6.2500  25.0000 Du        
   2273 ****        -4.7500   6.2500  25.2500 Du        
   2274 ****        -4.7500   6.5000  21.2500 Du        
   2275 ****        -4.7500   6.5000  21.5000 Du        
   2276 ****        -4.7500   6.5000  21.7500 Du        
   2277 ****        -4.7500   6.5000  22.0000 Du        
   2278 ****        -4.7500   6.5000  22.2500 Du        
   2279 ****        -4.7500   6.5000  22.5000 Du        
   2280 ****        -4.7500   6.5000  22.7500 Du        
   2281 ****        -4.7500   6.5000  23.0000 Du        
   2282 ****        -4.7500   6.5000  23.2500 Du        
   2283 ****        -4.7500   6.5000  23.5000 Du        
   2284 ****        -4.7500   6.5000  23.7500 Du        
   2285 ****        -4.7500   6.5000  24.0000 Du        
   2286 ****        -4.7500   6.5000  24.2500 Du        
   2287 ****        -4.7500   6.5000  24.5000 Du        
   2288 ****        -4.7500   6.5000  24.7500 Du        
   2289 ****        -4.7500   6.5000  25.0000 Du        
   2290 ****        -4.7500   6.5000  25.2500 Du        
   2291 ****        -4.7500   6.7500  21.0000 Du        
   2292 ****        -4.7500   6.7500  21.2500 Du        
   2293 ****        -4.7500   6.7500  21.5000 Du        
   2294 ****        -4.7500   6.7500  21.7500 Du        
   2295 ****        -4.7500   6.7500  22.0000 Du        
   2296 ****        -4.7500   6.7500  22.2500 Du        
   2297 ****        -4.7500   6.7500  22.5000 Du        
   2298 ****        -4.7500   6.7500  22.7500 Du        
   2299 ****        -4.7500   6.7500  23.0000 Du        
   2300 ****        -4.7500   6.7500  23.2500 Du        
   2301 ****        -4.7500   6.7500  23.5000 Du        
   2302 ****        -4.7500   6.7500  23.7500 Du        
   2303 ****        -4.7500   6.7500  24.0000 Du        
   2304 ****        -4.7500   6.7500  24.2500 Du        
   2305 ****        -4.7500   6.7500  24.5000 Du        
   2306 ****        -4.7500   6.7500  24.7500 Du        
   2307 ****        -4.7500   6.7500  25.0000 Du        
   2308 ****        -4.7500   6.7500  25.2500 Du        
   2309 ****        -4.7500   7.0000  21.0000 Du        
   2310 ****        -4.7500   7.0000  21.2500 Du        
   2311 ****        -4.7500   7.0000  21.5000 Du        
   2312 ****        -4.7500   7.0000  21.7500 Du        
   2313 ****        -4.7500   7.0000  22.0000 Du        
   2314 ****        -4.7500   7.0000  22.2500 Du        
   2315 ****        -4.7500   7.0000  22.5000 Du        
   2316 ****        -4.7500   7.0000  22.7500 Du        
   2317 ****        -4.7500   7.0000  23.0000 Du        
   2318 ****        -4.7500   7.0000  23.2500 Du        
   2319 ****        -4.7500   7.0000  23.5000 Du        
   2320 ****        -4.7500   7.0000  23.7500 Du        
   2321 ****        -4.7500   7.0000  24.0000 Du        
   2322 ****        -4.7500   7.0000  24.2500 Du        
   2323 ****        -4.7500   7.0000  24.5000 Du        
   2324 ****        -4.7500   7.0000  24.7500 Du        
   2325 ****        -4.7500   7.0000  25.0000 Du        
   2326 ****        -4.7500   7.0000  25.2500 Du        
   2327 ****        -4.7500   7.2500  20.7500 Du        
   2328 ****        -4.7500   7.2500  21.0000 Du        
   2329 ****        -4.7500   7.2500  21.2500 Du        
   2330 ****        -4.7500   7.2500  21.5000 Du        
   2331 ****        -4.7500   7.2500  21.7500 Du        
   2332 ****        -4.7500   7.2500  22.0000 Du        
   2333 ****        -4.7500   7.2500  22.2500 Du        
   2334 ****        -4.7500   7.2500  22.5000 Du        
   2335 ****        -4.7500   7.2500  22.7500 Du        
   2336 ****        -4.7500   7.2500  23.0000 Du        
   2337 ****        -4.7500   7.2500  23.2500 Du        
   2338 ****        -4.7500   7.2500  23.5000 Du        
   2339 ****        -4.7500   7.2500  23.7500 Du        
   2340 ****        -4.7500   7.2500  24.0000 Du        
   2341 ****        -4.7500   7.2500  24.2500 Du        
   2342 ****        -4.7500   7.2500  24.5000 Du        
   2343 ****        -4.7500   7.2500  24.7500 Du        
   2344 ****        -4.7500   7.2500  25.0000 Du        
   2345 ****        -4.7500   7.2500  25.2500 Du        
   2346 ****        -4.7500   7.5000  20.7500 Du        
   2347 ****        -4.7500   7.5000  21.0000 Du        
   2348 ****        -4.7500   7.5000  21.2500 Du        
   2349 ****        -4.7500   7.5000  21.5000 Du        
   2350 ****        -4.7500   7.5000  21.7500 Du        
   2351 ****        -4.7500   7.5000  22.0000 Du        
   2352 ****        -4.7500   7.5000  22.2500 Du        
   2353 ****        -4.7500   7.5000  22.5000 Du        
   2354 ****        -4.7500   7.5000  22.7500 Du        
   2355 ****        -4.7500   7.5000  23.0000 Du        
   2356 ****        -4.7500   7.5000  23.2500 Du        
   2357 ****        -4.7500   7.5000  23.5000 Du        
   2358 ****        -4.7500   7.5000  23.7500 Du        
   2359 ****        -4.7500   7.5000  24.0000 Du        
   2360 ****        -4.7500   7.5000  24.2500 Du        
   2361 ****        -4.7500   7.5000  24.5000 Du        
   2362 ****        -4.7500   7.5000  24.7500 Du        
   2363 ****        -4.7500   7.5000  25.0000 Du        
   2364 ****        -4.7500   7.7500  20.5000 Du        
   2365 ****        -4.7500   7.7500  20.7500 Du        
   2366 ****        -4.7500   7.7500  21.0000 Du        
   2367 ****        -4.7500   7.7500  21.2500 Du        
   2368 ****        -4.7500   7.7500  21.5000 Du        
   2369 ****        -4.7500   7.7500  21.7500 Du        
   2370 ****        -4.7500   7.7500  22.0000 Du        
   2371 ****        -4.7500   7.7500  22.2500 Du        
   2372 ****        -4.7500   7.7500  22.5000 Du        
   2373 ****        -4.7500   7.7500  22.7500 Du        
   2374 ****        -4.7500   7.7500  23.0000 Du        
   2375 ****        -4.7500   7.7500  23.2500 Du        
   2376 ****        -4.7500   7.7500  23.5000 Du        
   2377 ****        -4.7500   7.7500  23.7500 Du        
   2378 ****        -4.7500   7.7500  24.0000 Du        
   2379 ****        -4.7500   7.7500  24.2500 Du        
   2380 ****        -4.7500   7.7500  24.5000 Du        
   2381 ****        -4.7500   7.7500  24.7500 Du        
   2382 ****        -4.7500   7.7500  25.0000 Du        
   2383 ****        -4.7500   8.0000  20.5000 Du        
   2384 ****        -4.7500   8.0000  20.7500 Du        
   2385 ****        -4.7500   8.0000  21.0000 Du        
   2386 ****        -4.7500   8.0000  21.2500 Du        
   2387 ****        -4.7500   8.0000  21.5000 Du        
   2388 ****        -4.7500   8.0000  21.7500 Du        
   2389 ****        -4.7500   8.0000  22.0000 Du        
   2390 ****        -4.7500   8.0000  22.2500 Du        
   2391 ****        -4.7500   8.0000  22.5000 Du        
   2392 ****        -4.7500   8.0000  22.7500 Du        
   2393 ****        -4.7500   8.0000  23.0000 Du        
   2394 ****        -4.7500   8.0000  23.2500 Du        
   2395 ****        -4.7500   8.0000  23.5000 Du        
   2396 ****        -4.7500   8.0000  23.7500 Du        
   2397 ****        -4.7500   8.0000  24.0000 Du        
   2398 ****        -4.7500   8.0000  24.2500 Du        
   2399 ****        -4.7500   8.0000  24.5000 Du        
   2400 ****        -4.7500   8.0000  24.7500 Du        
   2401 ****        -4.7500   8.2500  20.5000 Du        
   2402 ****        -4.7500   8.2500  20.7500 Du        
   2403 ****        -4.7500   8.2500  21.0000 Du        
   2404 ****        -4.7500   8.2500  21.2500 Du        
   2405 ****        -4.7500   8.2500  21.5000 Du        
   2406 ****        -4.7500   8.2500  21.7500 Du        
   2407 ****        -4.7500   8.2500  22.0000 Du        
   2408 ****        -4.7500   8.2500  22.2500 Du        
   2409 ****        -4.7500   8.2500  22.5000 Du        
   2410 ****        -4.7500   8.2500  22.7500 Du        
   2411 ****        -4.7500   8.2500  23.0000 Du        
   2412 ****        -4.7500   8.2500  23.2500 Du        
   2413 ****        -4.7500   8.2500  23.5000 Du        
   2414 ****        -4.7500   8.2500  23.7500 Du        
   2415 ****        -4.7500   8.2500  24.0000 Du        
   2416 ****        -4.7500   8.2500  24.2500 Du        
   2417 ****        -4.7500   8.2500  24.5000 Du        
   2418 ****        -4.7500   8.5000  20.7500 Du        
   2419 ****        -4.7500   8.5000  21.0000 Du        
   2420 ****        -4.7500   8.5000  21.2500 Du        
   2421 ****        -4.7500   8.5000  21.5000 Du        
   2422 ****        -4.7500   8.5000  21.7500 Du        
   2423 ****        -4.7500   8.5000  22.0000 Du        
   2424 ****        -4.7500   8.5000  22.2500 Du        
   2425 ****        -4.7500   8.5000  22.5000 Du        
   2426 ****        -4.7500   8.5000  22.7500 Du        
   2427 ****        -4.7500   8.5000  23.0000 Du        
   2428 ****        -4.7500   8.5000  23.2500 Du        
   2429 ****        -4.7500   8.5000  23.5000 Du        
   2430 ****        -4.7500   8.5000  23.7500 Du        
   2431 ****        -4.7500   8.5000  24.0000 Du        
   2432 ****        -4.7500   8.5000  24.2500 Du        
   2433 ****        -4.7500   8.7500  21.2500 Du        
   2434 ****        -4.7500   8.7500  21.5000 Du        
   2435 ****        -4.7500   8.7500  21.7500 Du        
   2436 ****        -4.7500   8.7500  22.0000 Du        
   2437 ****        -4.7500   8.7500  22.2500 Du        
   2438 ****        -4.7500   8.7500  22.5000 Du        
   2439 ****        -4.7500   8.7500  22.7500 Du        
   2440 ****        -4.7500   8.7500  23.0000 Du        
   2441 ****        -4.7500   8.7500  23.2500 Du        
   2442 ****        -4.7500   8.7500  23.5000 Du        
   2443 ****        -4.7500   8.7500  23.7500 Du        
   2444 ****        -4.7500   8.7500  24.0000 Du        
   2445 ****        -4.7500   9.0000  21.5000 Du        
   2446 ****        -4.7500   9.0000  21.7500 Du        
   2447 ****        -4.7500   9.0000  22.0000 Du        
   2448 ****        -4.7500   9.0000  22.2500 Du        
   2449 ****        -4.7500   9.0000  22.5000 Du        
   2450 ****        -4.7500   9.0000  22.7500 Du        
   2451 ****        -4.7500   9.0000  23.0000 Du        
   2452 ****        -4.7500   9.0000  23.2500 Du        
   2453 ****        -4.7500   9.0000  23.5000 Du        
   2454 ****        -4.7500   9.0000  23.7500 Du        
   2455 ****        -4.7500   9.2500  21.7500 Du        
   2456 ****        -4.7500   9.2500  22.0000 Du        
   2457 ****        -4.7500   9.2500  22.2500 Du        
   2458 ****        -4.7500   9.2500  22.5000 Du        
   2459 ****        -4.7500   9.2500  22.7500 Du        
   2460 ****        -4.7500   9.2500  23.0000 Du        
   2461 ****        -4.7500   9.2500  23.2500 Du        
   2462 ****        -4.7500   9.5000  22.0000 Du        
   2463 ****        -4.7500   9.5000  22.2500 Du        
   2464 ****        -4.7500   9.5000  22.5000 Du        
   2465 ****        -4.7500   9.5000  22.7500 Du        
   2466 ****        -4.7500   9.5000  23.0000 Du        
   2467 ****        -4.7500   9.5000  23.2500 Du        
   2468 ****        -4.7500   9.7500  14.0000 Du        
   2469 ****        -4.7500   9.7500  14.2500 Du        
   2470 ****        -4.7500   9.7500  14.5000 Du        
   2471 ****        -4.7500   9.7500  22.2500 Du        
   2472 ****        -4.7500   9.7500  22.5000 Du        
   2473 ****        -4.7500   9.7500  22.7500 Du        
   2474 ****        -4.7500   9.7500  23.0000 Du        
   2475 ****        -4.7500  10.0000  13.7500 Du        
   2476 ****        -4.7500  10.0000  14.0000 Du        
   2477 ****        -4.7500  10.0000  14.2500 Du        
   2478 ****        -4.7500  10.0000  14.5000 Du        
   2479 ****        -4.7500  10.0000  14.7500 Du        
   2480 ****        -4.7500  10.0000  22.5000 Du        
   2481 ****        -4.7500  10.0000  22.7500 Du        
   2482 ****        -4.7500  10.2500  14.0000 Du        
   2483 ****        -4.7500  10.2500  14.2500 Du        
   2484 ****        -4.7500  10.2500  14.5000 Du        
   2485 ****        -4.5000  -8.0000  11.2500 Du        
   2486 ****        -4.5000  -7.7500  11.0000 Du        
   2487 ****        -4.5000  -7.7500  11.2500 Du        
   2488 ****        -4.5000  -7.0000   8.2500 Du        
   2489 ****        -4.5000  -7.0000   8.5000 Du        
   2490 ****        -4.5000  -7.0000   8.7500 Du        
   2491 ****        -4.5000  -7.0000   9.0000 Du        
   2492 ****        -4.5000  -7.0000   9.2500 Du        
   2493 ****        -4.5000  -6.7500   8.0000 Du        
   2494 ****        -4.5000  -6.7500   8.2500 Du        
   2495 ****        -4.5000  -6.7500   8.5000 Du        
   2496 ****        -4.5000  -6.7500   8.7500 Du        
   2497 ****        -4.5000  -6.7500   9.0000 Du        
   2498 ****        -4.5000  -6.5000   8.0000 Du        
   2499 ****        -4.5000  -6.5000   8.2500 Du        
   2500 ****        -4.5000  -6.5000   8.5000 Du        
   2501 ****        -4.5000  -6.5000   8.7500 Du        
   2502 ****        -4.5000  -6.5000   9.0000 Du        
   2503 ****        -4.5000  -6.2500   8.0000 Du        
   2504 ****        -4.5000  -6.2500   8.2500 Du        
   2505 ****        -4.5000  -6.2500   8.5000 Du        
   2506 ****        -4.5000  -6.2500   8.7500 Du        
   2507 ****        -4.5000  -6.0000   7.7500 Du        
   2508 ****        -4.5000  -6.0000   8.0000 Du        
   2509 ****        -4.5000  -6.0000   8.2500 Du        
   2510 ****        -4.5000  -6.0000   8.5000 Du        
   2511 ****        -4.5000  -5.7500   7.7500 Du        
   2512 ****        -4.5000  -5.7500   8.0000 Du        
   2513 ****        -4.5000  -5.7500   8.2500 Du        
   2514 ****        -4.5000  -5.5000   7.7500 Du        
   2515 ****        -4.5000  -5.5000   8.0000 Du        
   2516 ****        -4.5000  -5.2500   7.7500 Du        
   2517 ****        -4.5000  -5.2500   8.0000 Du        
   2518 ****        -4.5000  -5.0000   7.5000 Du        
   2519 ****        -4.5000  -5.0000   7.7500 Du        
   2520 ****        -4.5000  -4.7500   7.5000 Du        
   2521 ****        -4.5000  -4.7500   7.7500 Du        
   2522 ****        -4.5000  -4.5000   7.5000 Du        
   2523 ****        -4.5000  -1.7500  27.0000 Du        
   2524 ****        -4.5000  -1.7500  27.2500 Du        
   2525 ****        -4.5000  -1.5000  25.7500 Du        
   2526 ****        -4.5000  -1.5000  26.0000 Du        
   2527 ****        -4.5000  -1.5000  26.2500 Du        
   2528 ****        -4.5000  -1.5000  26.7500 Du        
   2529 ****        -4.5000  -1.5000  27.0000 Du        
   2530 ****        -4.5000  -1.5000  27.2500 Du        
   2531 ****        -4.5000  -1.2500  20.7500 Du        
   2532 ****        -4.5000  -1.2500  21.0000 Du        
   2533 ****        -4.5000  -1.2500  21.2500 Du        
   2534 ****        -4.5000  -1.2500  21.7500 Du        
   2535 ****        -4.5000  -1.2500  22.0000 Du        
   2536 ****        -4.5000  -1.2500  22.2500 Du        
   2537 ****        -4.5000  -1.2500  22.5000 Du        
   2538 ****        -4.5000  -1.2500  22.7500 Du        
   2539 ****        -4.5000  -1.2500  23.0000 Du        
   2540 ****        -4.5000  -1.2500  23.2500 Du        
   2541 ****        -4.5000  -1.2500  23.5000 Du        
   2542 ****        -4.5000  -1.2500  23.7500 Du        
   2543 ****        -4.5000  -1.2500  24.0000 Du        
   2544 ****        -4.5000  -1.2500  24.2500 Du        
   2545 ****        -4.5000  -1.2500  24.5000 Du        
   2546 ****        -4.5000  -1.2500  24.7500 Du        
   2547 ****        -4.5000  -1.2500  25.0000 Du        
   2548 ****        -4.5000  -1.2500  25.2500 Du        
   2549 ****        -4.5000  -1.2500  25.5000 Du        
   2550 ****        -4.5000  -1.2500  25.7500 Du        
   2551 ****        -4.5000  -1.2500  26.0000 Du        
   2552 ****        -4.5000  -1.2500  26.2500 Du        
   2553 ****        -4.5000  -1.2500  26.5000 Du        
   2554 ****        -4.5000  -1.2500  26.7500 Du        
   2555 ****        -4.5000  -1.2500  27.0000 Du        
   2556 ****        -4.5000  -1.0000  20.2500 Du        
   2557 ****        -4.5000  -1.0000  20.5000 Du        
   2558 ****        -4.5000  -1.0000  20.7500 Du        
   2559 ****        -4.5000  -1.0000  21.0000 Du        
   2560 ****        -4.5000  -1.0000  21.2500 Du        
   2561 ****        -4.5000  -1.0000  21.5000 Du        
   2562 ****        -4.5000  -1.0000  21.7500 Du        
   2563 ****        -4.5000  -1.0000  22.0000 Du        
   2564 ****        -4.5000  -1.0000  22.2500 Du        
   2565 ****        -4.5000  -1.0000  22.5000 Du        
   2566 ****        -4.5000  -1.0000  22.7500 Du        
   2567 ****        -4.5000  -1.0000  23.0000 Du        
   2568 ****        -4.5000  -1.0000  23.2500 Du        
   2569 ****        -4.5000  -1.0000  23.5000 Du        
   2570 ****        -4.5000  -1.0000  23.7500 Du        
   2571 ****        -4.5000  -1.0000  24.0000 Du        
   2572 ****        -4.5000  -1.0000  24.2500 Du        
   2573 ****        -4.5000  -1.0000  24.5000 Du        
   2574 ****        -4.5000  -1.0000  24.7500 Du        
   2575 ****        -4.5000  -1.0000  25.0000 Du        
   2576 ****        -4.5000  -1.0000  25.2500 Du        
   2577 ****        -4.5000  -1.0000  25.5000 Du        
   2578 ****        -4.5000  -1.0000  25.7500 Du        
   2579 ****        -4.5000  -1.0000  26.0000 Du        
   2580 ****        -4.5000  -1.0000  26.2500 Du        
   2581 ****        -4.5000  -1.0000  26.5000 Du        
   2582 ****        -4.5000  -1.0000  26.7500 Du        
   2583 ****        -4.5000  -0.7500  20.0000 Du        
   2584 ****        -4.5000  -0.7500  20.2500 Du        
   2585 ****        -4.5000  -0.7500  20.5000 Du        
   2586 ****        -4.5000  -0.7500  20.7500 Du        
   2587 ****        -4.5000  -0.7500  21.0000 Du        
   2588 ****        -4.5000  -0.7500  21.2500 Du        
   2589 ****        -4.5000  -0.7500  21.5000 Du        
   2590 ****        -4.5000  -0.7500  21.7500 Du        
   2591 ****        -4.5000  -0.7500  22.0000 Du        
   2592 ****        -4.5000  -0.7500  22.2500 Du        
   2593 ****        -4.5000  -0.7500  22.5000 Du        
   2594 ****        -4.5000  -0.7500  22.7500 Du        
   2595 ****        -4.5000  -0.7500  23.0000 Du        
   2596 ****        -4.5000  -0.7500  23.2500 Du        
   2597 ****        -4.5000  -0.7500  23.5000 Du        
   2598 ****        -4.5000  -0.7500  23.7500 Du        
   2599 ****        -4.5000  -0.7500  24.0000 Du        
   2600 ****        -4.5000  -0.7500  24.2500 Du        
   2601 ****        -4.5000  -0.7500  24.5000 Du        
   2602 ****        -4.5000  -0.7500  24.7500 Du        
   2603 ****        -4.5000  -0.7500  25.0000 Du        
   2604 ****        -4.5000  -0.7500  25.2500 Du        
   2605 ****        -4.5000  -0.7500  25.5000 Du        
   2606 ****        -4.5000  -0.7500  25.7500 Du        
   2607 ****        -4.5000  -0.7500  26.0000 Du        
   2608 ****        -4.5000  -0.7500  26.2500 Du        
   2609 ****        -4.5000  -0.5000  19.7500 Du        
   2610 ****        -4.5000  -0.5000  20.0000 Du        
   2611 ****        -4.5000  -0.5000  20.2500 Du        
   2612 ****        -4.5000  -0.5000  20.5000 Du        
   2613 ****        -4.5000  -0.5000  20.7500 Du        
   2614 ****        -4.5000  -0.5000  21.0000 Du        
   2615 ****        -4.5000  -0.5000  21.2500 Du        
   2616 ****        -4.5000  -0.5000  21.5000 Du        
   2617 ****        -4.5000  -0.5000  21.7500 Du        
   2618 ****        -4.5000  -0.5000  22.0000 Du        
   2619 ****        -4.5000  -0.5000  22.2500 Du        
   2620 ****        -4.5000  -0.5000  22.5000 Du        
   2621 ****        -4.5000  -0.5000  22.7500 Du        
   2622 ****        -4.5000  -0.5000  23.0000 Du        
   2623 ****        -4.5000  -0.5000  23.2500 Du        
   2624 ****        -4.5000  -0.5000  23.5000 Du        
   2625 ****        -4.5000  -0.5000  23.7500 Du        
   2626 ****        -4.5000  -0.5000  24.0000 Du        
   2627 ****        -4.5000  -0.5000  24.2500 Du        
   2628 ****        -4.5000  -0.5000  24.5000 Du        
   2629 ****        -4.5000  -0.5000  24.7500 Du        
   2630 ****        -4.5000  -0.5000  25.0000 Du        
   2631 ****        -4.5000  -0.5000  25.2500 Du        
   2632 ****        -4.5000  -0.5000  25.5000 Du        
   2633 ****        -4.5000  -0.5000  25.7500 Du        
   2634 ****        -4.5000  -0.5000  26.0000 Du        
   2635 ****        -4.5000  -0.2500  19.5000 Du        
   2636 ****        -4.5000  -0.2500  19.7500 Du        
   2637 ****        -4.5000  -0.2500  20.0000 Du        
   2638 ****        -4.5000  -0.2500  20.2500 Du        
   2639 ****        -4.5000  -0.2500  20.5000 Du        
   2640 ****        -4.5000  -0.2500  20.7500 Du        
   2641 ****        -4.5000  -0.2500  21.0000 Du        
   2642 ****        -4.5000  -0.2500  21.2500 Du        
   2643 ****        -4.5000  -0.2500  21.5000 Du        
   2644 ****        -4.5000  -0.2500  21.7500 Du        
   2645 ****        -4.5000  -0.2500  22.0000 Du        
   2646 ****        -4.5000  -0.2500  22.2500 Du        
   2647 ****        -4.5000  -0.2500  22.5000 Du        
   2648 ****        -4.5000  -0.2500  22.7500 Du        
   2649 ****        -4.5000  -0.2500  23.0000 Du        
   2650 ****        -4.5000  -0.2500  23.2500 Du        
   2651 ****        -4.5000  -0.2500  23.5000 Du        
   2652 ****        -4.5000  -0.2500  23.7500 Du        
   2653 ****        -4.5000  -0.2500  24.0000 Du        
   2654 ****        -4.5000  -0.2500  24.2500 Du        
   2655 ****        -4.5000  -0.2500  24.5000 Du        
   2656 ****        -4.5000  -0.2500  24.7500 Du        
   2657 ****        -4.5000  -0.2500  25.0000 Du        
   2658 ****        -4.5000  -0.2500  25.2500 Du        
   2659 ****        -4.5000  -0.2500  25.5000 Du        
   2660 ****        -4.5000  -0.2500  25.7500 Du        
   2661 ****        -4.5000  -0.2500  26.0000 Du        
   2662 ****        -4.5000   0.0000  19.0000 Du        
   2663 ****        -4.5000   0.0000  19.2500 Du        
   2664 ****        -4.5000   0.0000  19.5000 Du        
   2665 ****        -4.5000   0.0000  19.7500 Du        
   2666 ****        -4.5000   0.0000  20.0000 Du        
   2667 ****        -4.5000   0.0000  20.2500 Du        
   2668 ****        -4.5000   0.0000  20.5000 Du        
   2669 ****        -4.5000   0.0000  20.7500 Du        
   2670 ****        -4.5000   0.0000  21.0000 Du        
   2671 ****        -4.5000   0.0000  21.2500 Du        
   2672 ****        -4.5000   0.0000  21.5000 Du        
   2673 ****        -4.5000   0.0000  21.7500 Du        
   2674 ****        -4.5000   0.0000  22.0000 Du        
   2675 ****        -4.5000   0.0000  23.7500 Du        
   2676 ****        -4.5000   0.0000  24.0000 Du        
   2677 ****        -4.5000   0.0000  24.2500 Du        
   2678 ****        -4.5000   0.0000  24.5000 Du        
   2679 ****        -4.5000   0.0000  24.7500 Du        
   2680 ****        -4.5000   0.0000  25.0000 Du        
   2681 ****        -4.5000   0.0000  25.2500 Du        
   2682 ****        -4.5000   0.0000  25.5000 Du        
   2683 ****        -4.5000   0.0000  25.7500 Du        
   2684 ****        -4.5000   0.2500  18.7500 Du        
   2685 ****        -4.5000   0.2500  19.0000 Du        
   2686 ****        -4.5000   0.2500  19.2500 Du        
   2687 ****        -4.5000   0.2500  19.5000 Du        
   2688 ****        -4.5000   0.2500  19.7500 Du        
   2689 ****        -4.5000   0.2500  20.0000 Du        
   2690 ****        -4.5000   0.2500  20.2500 Du        
   2691 ****        -4.5000   0.2500  20.5000 Du        
   2692 ****        -4.5000   0.2500  20.7500 Du        
   2693 ****        -4.5000   0.2500  21.0000 Du        
   2694 ****        -4.5000   0.2500  21.2500 Du        
   2695 ****        -4.5000   0.2500  21.5000 Du        
   2696 ****        -4.5000   0.2500  24.5000 Du        
   2697 ****        -4.5000   0.2500  24.7500 Du        
   2698 ****        -4.5000   0.2500  25.0000 Du        
   2699 ****        -4.5000   0.2500  25.2500 Du        
   2700 ****        -4.5000   0.5000  18.2500 Du        
   2701 ****        -4.5000   0.5000  18.5000 Du        
   2702 ****        -4.5000   0.5000  18.7500 Du        
   2703 ****        -4.5000   0.5000  19.0000 Du        
   2704 ****        -4.5000   0.5000  19.2500 Du        
   2705 ****        -4.5000   0.5000  19.5000 Du        
   2706 ****        -4.5000   0.5000  19.7500 Du        
   2707 ****        -4.5000   0.5000  20.0000 Du        
   2708 ****        -4.5000   0.5000  20.2500 Du        
   2709 ****        -4.5000   0.5000  20.5000 Du        
   2710 ****        -4.5000   0.5000  20.7500 Du        
   2711 ****        -4.5000   0.5000  21.0000 Du        
   2712 ****        -4.5000   0.5000  21.2500 Du        
   2713 ****        -4.5000   0.5000  21.5000 Du        
   2714 ****        -4.5000   0.7500  17.7500 Du        
   2715 ****        -4.5000   0.7500  18.0000 Du        
   2716 ****        -4.5000   0.7500  18.2500 Du        
   2717 ****        -4.5000   0.7500  18.5000 Du        
   2718 ****        -4.5000   0.7500  18.7500 Du        
   2719 ****        -4.5000   0.7500  19.0000 Du        
   2720 ****        -4.5000   0.7500  19.2500 Du        
   2721 ****        -4.5000   0.7500  19.5000 Du        
   2722 ****        -4.5000   0.7500  19.7500 Du        
   2723 ****        -4.5000   0.7500  20.0000 Du        
   2724 ****        -4.5000   0.7500  20.2500 Du        
   2725 ****        -4.5000   0.7500  20.5000 Du        
   2726 ****        -4.5000   0.7500  20.7500 Du        
   2727 ****        -4.5000   0.7500  21.0000 Du        
   2728 ****        -4.5000   0.7500  21.2500 Du        
   2729 ****        -4.5000   1.0000  17.2500 Du        
   2730 ****        -4.5000   1.0000  17.5000 Du        
   2731 ****        -4.5000   1.0000  17.7500 Du        
   2732 ****        -4.5000   1.0000  18.0000 Du        
   2733 ****        -4.5000   1.0000  18.2500 Du        
   2734 ****        -4.5000   1.0000  18.5000 Du        
   2735 ****        -4.5000   1.0000  18.7500 Du        
   2736 ****        -4.5000   1.0000  19.0000 Du        
   2737 ****        -4.5000   1.0000  19.2500 Du        
   2738 ****        -4.5000   1.0000  19.5000 Du        
   2739 ****        -4.5000   1.0000  19.7500 Du        
   2740 ****        -4.5000   1.0000  20.0000 Du        
   2741 ****        -4.5000   1.0000  20.2500 Du        
   2742 ****        -4.5000   1.0000  20.5000 Du        
   2743 ****        -4.5000   1.0000  20.7500 Du        
   2744 ****        -4.5000   1.0000  21.0000 Du        
   2745 ****        -4.5000   1.0000  21.2500 Du        
   2746 ****        -4.5000   1.2500  16.2500 Du        
   2747 ****        -4.5000   1.2500  16.5000 Du        
   2748 ****        -4.5000   1.2500  16.7500 Du        
   2749 ****        -4.5000   1.2500  17.0000 Du        
   2750 ****        -4.5000   1.2500  17.2500 Du        
   2751 ****        -4.5000   1.2500  17.5000 Du        
   2752 ****        -4.5000   1.2500  17.7500 Du        
   2753 ****        -4.5000   1.2500  18.0000 Du        
   2754 ****        -4.5000   1.2500  18.2500 Du        
   2755 ****        -4.5000   1.2500  18.5000 Du        
   2756 ****        -4.5000   1.2500  18.7500 Du        
   2757 ****        -4.5000   1.2500  19.0000 Du        
   2758 ****        -4.5000   1.2500  19.2500 Du        
   2759 ****        -4.5000   1.2500  19.5000 Du        
   2760 ****        -4.5000   1.2500  19.7500 Du        
   2761 ****        -4.5000   1.2500  20.0000 Du        
   2762 ****        -4.5000   1.2500  20.2500 Du        
   2763 ****        -4.5000   1.2500  20.5000 Du        
   2764 ****        -4.5000   1.2500  20.7500 Du        
   2765 ****        -4.5000   1.2500  21.0000 Du        
   2766 ****        -4.5000   1.2500  21.2500 Du        
   2767 ****        -4.5000   1.5000  16.0000 Du        
   2768 ****        -4.5000   1.5000  16.2500 Du        
   2769 ****        -4.5000   1.5000  16.5000 Du        
   2770 ****        -4.5000   1.5000  16.7500 Du        
   2771 ****        -4.5000   1.5000  17.0000 Du        
   2772 ****        -4.5000   1.5000  17.2500 Du        
   2773 ****        -4.5000   1.5000  17.5000 Du        
   2774 ****        -4.5000   1.5000  17.7500 Du        
   2775 ****        -4.5000   1.5000  18.0000 Du        
   2776 ****        -4.5000   1.5000  18.2500 Du        
   2777 ****        -4.5000   1.5000  18.5000 Du        
   2778 ****        -4.5000   1.5000  18.7500 Du        
   2779 ****        -4.5000   1.5000  19.0000 Du        
   2780 ****        -4.5000   1.5000  19.2500 Du        
   2781 ****        -4.5000   1.5000  19.5000 Du        
   2782 ****        -4.5000   1.5000  19.7500 Du        
   2783 ****        -4.5000   1.5000  20.0000 Du        
   2784 ****        -4.5000   1.5000  20.2500 Du        
   2785 ****        -4.5000   1.5000  20.5000 Du        
   2786 ****        -4.5000   1.5000  20.7500 Du        
   2787 ****        -4.5000   1.5000  21.0000 Du        
   2788 ****        -4.5000   1.7500  16.0000 Du        
   2789 ****        -4.5000   1.7500  16.2500 Du        
   2790 ****        -4.5000   1.7500  16.5000 Du        
   2791 ****        -4.5000   1.7500  16.7500 Du        
   2792 ****        -4.5000   1.7500  17.0000 Du        
   2793 ****        -4.5000   1.7500  17.2500 Du        
   2794 ****        -4.5000   1.7500  17.5000 Du        
   2795 ****        -4.5000   1.7500  17.7500 Du        
   2796 ****        -4.5000   1.7500  18.0000 Du        
   2797 ****        -4.5000   1.7500  18.2500 Du        
   2798 ****        -4.5000   1.7500  18.5000 Du        
   2799 ****        -4.5000   1.7500  18.7500 Du        
   2800 ****        -4.5000   1.7500  19.0000 Du        
   2801 ****        -4.5000   1.7500  19.2500 Du        
   2802 ****        -4.5000   1.7500  19.5000 Du        
   2803 ****        -4.5000   1.7500  19.7500 Du        
   2804 ****        -4.5000   1.7500  20.0000 Du        
   2805 ****        -4.5000   1.7500  20.2500 Du        
   2806 ****        -4.5000   1.7500  20.5000 Du        
   2807 ****        -4.5000   1.7500  20.7500 Du        
   2808 ****        -4.5000   1.7500  21.0000 Du        
   2809 ****        -4.5000   2.0000  16.0000 Du        
   2810 ****        -4.5000   2.0000  16.2500 Du        
   2811 ****        -4.5000   2.0000  16.5000 Du        
   2812 ****        -4.5000   2.0000  16.7500 Du        
   2813 ****        -4.5000   2.0000  17.0000 Du        
   2814 ****        -4.5000   2.0000  17.2500 Du        
   2815 ****        -4.5000   2.0000  17.5000 Du        
   2816 ****        -4.5000   2.0000  17.7500 Du        
   2817 ****        -4.5000   2.0000  18.0000 Du        
   2818 ****        -4.5000   2.0000  18.2500 Du        
   2819 ****        -4.5000   2.0000  18.5000 Du        
   2820 ****        -4.5000   2.0000  18.7500 Du        
   2821 ****        -4.5000   2.0000  19.0000 Du        
   2822 ****        -4.5000   2.0000  19.2500 Du        
   2823 ****        -4.5000   2.0000  19.5000 Du        
   2824 ****        -4.5000   2.0000  19.7500 Du        
   2825 ****        -4.5000   2.0000  20.0000 Du        
   2826 ****        -4.5000   2.0000  20.2500 Du        
   2827 ****        -4.5000   2.0000  20.5000 Du        
   2828 ****        -4.5000   2.0000  20.7500 Du        
   2829 ****        -4.5000   2.2500  16.0000 Du        
   2830 ****        -4.5000   2.2500  16.2500 Du        
   2831 ****        -4.5000   2.2500  16.5000 Du        
   2832 ****        -4.5000   2.2500  16.7500 Du        
   2833 ****        -4.5000   2.2500  17.0000 Du        
   2834 ****        -4.5000   2.2500  17.2500 Du        
   2835 ****        -4.5000   2.2500  17.5000 Du        
   2836 ****        -4.5000   2.2500  17.7500 Du        
   2837 ****        -4.5000   2.2500  18.0000 Du        
   2838 ****        -4.5000   2.2500  18.2500 Du        
   2839 ****        -4.5000   2.2500  18.5000 Du        
   2840 ****        -4.5000   2.2500  18.7500 Du        
   2841 ****        -4.5000   2.2500  19.0000 Du        
   2842 ****        -4.5000   2.2500  19.2500 Du        
   2843 ****        -4.5000   2.2500  19.5000 Du        
   2844 ****        -4.5000   2.2500  19.7500 Du        
   2845 ****        -4.5000   2.2500  20.0000 Du        
   2846 ****        -4.5000   2.2500  20.2500 Du        
   2847 ****        -4.5000   2.2500  20.5000 Du        
   2848 ****        -4.5000   2.5000  16.2500 Du        
   2849 ****        -4.5000   2.5000  16.5000 Du        
   2850 ****        -4.5000   2.5000  16.7500 Du        
   2851 ****        -4.5000   2.5000  17.0000 Du        
   2852 ****        -4.5000   2.5000  17.2500 Du        
   2853 ****        -4.5000   2.5000  17.7500 Du        
   2854 ****        -4.5000   2.5000  18.0000 Du        
   2855 ****        -4.5000   2.5000  18.2500 Du        
   2856 ****        -4.5000   2.5000  18.5000 Du        
   2857 ****        -4.5000   2.5000  18.7500 Du        
   2858 ****        -4.5000   2.5000  19.0000 Du        
   2859 ****        -4.5000   2.5000  19.2500 Du        
   2860 ****        -4.5000   2.5000  19.5000 Du        
   2861 ****        -4.5000   2.5000  19.7500 Du        
   2862 ****        -4.5000   2.5000  20.0000 Du        
   2863 ****        -4.5000   2.5000  20.2500 Du        
   2864 ****        -4.5000   2.5000  20.5000 Du        
   2865 ****        -4.5000   2.7500  18.7500 Du        
   2866 ****        -4.5000   2.7500  19.0000 Du        
   2867 ****        -4.5000   2.7500  19.2500 Du        
   2868 ****        -4.5000   2.7500  19.5000 Du        
   2869 ****        -4.5000   2.7500  19.7500 Du        
   2870 ****        -4.5000   2.7500  20.0000 Du        
   2871 ****        -4.5000   2.7500  20.2500 Du        
   2872 ****        -4.5000   2.7500  25.2500 Du        
   2873 ****        -4.5000   2.7500  25.5000 Du        
   2874 ****        -4.5000   2.7500  25.7500 Du        
   2875 ****        -4.5000   3.0000  19.7500 Du        
   2876 ****        -4.5000   3.0000  20.0000 Du        
   2877 ****        -4.5000   3.0000  25.2500 Du        
   2878 ****        -4.5000   3.0000  25.5000 Du        
   2879 ****        -4.5000   3.0000  25.7500 Du        
   2880 ****        -4.5000   3.0000  26.0000 Du        
   2881 ****        -4.5000   3.2500  25.0000 Du        
   2882 ****        -4.5000   3.2500  25.2500 Du        
   2883 ****        -4.5000   3.2500  25.5000 Du        
   2884 ****        -4.5000   3.2500  25.7500 Du        
   2885 ****        -4.5000   3.2500  26.0000 Du        
   2886 ****        -4.5000   3.5000  25.0000 Du        
   2887 ****        -4.5000   3.5000  25.2500 Du        
   2888 ****        -4.5000   3.5000  25.5000 Du        
   2889 ****        -4.5000   3.5000  25.7500 Du        
   2890 ****        -4.5000   3.5000  26.0000 Du        
   2891 ****        -4.5000   3.7500  25.0000 Du        
   2892 ****        -4.5000   3.7500  25.2500 Du        
   2893 ****        -4.5000   3.7500  25.5000 Du        
   2894 ****        -4.5000   3.7500  25.7500 Du        
   2895 ****        -4.5000   3.7500  26.0000 Du        
   2896 ****        -4.5000   4.0000  25.0000 Du        
   2897 ****        -4.5000   4.0000  25.2500 Du        
   2898 ****        -4.5000   4.0000  25.5000 Du        
   2899 ****        -4.5000   4.0000  25.7500 Du        
   2900 ****        -4.5000   4.2500  24.7500 Du        
   2901 ****        -4.5000   4.2500  25.0000 Du        
   2902 ****        -4.5000   4.2500  25.2500 Du        
   2903 ****        -4.5000   4.2500  25.5000 Du        
   2904 ****        -4.5000   4.2500  25.7500 Du        
   2905 ****        -4.5000   4.5000  24.7500 Du        
   2906 ****        -4.5000   4.5000  25.0000 Du        
   2907 ****        -4.5000   4.5000  25.2500 Du        
   2908 ****        -4.5000   4.5000  25.5000 Du        
   2909 ****        -4.5000   4.7500  24.7500 Du        
   2910 ****        -4.5000   4.7500  25.0000 Du        
   2911 ****        -4.5000   4.7500  25.2500 Du        
   2912 ****        -4.5000   4.7500  25.5000 Du        
   2913 ****        -4.5000   5.0000  24.5000 Du        
   2914 ****        -4.5000   5.0000  24.7500 Du        
   2915 ****        -4.5000   5.0000  25.0000 Du        
   2916 ****        -4.5000   5.0000  25.2500 Du        
   2917 ****        -4.5000   5.0000  25.5000 Du        
   2918 ****        -4.5000   5.2500  24.5000 Du        
   2919 ****        -4.5000   5.2500  24.7500 Du        
   2920 ****        -4.5000   5.2500  25.0000 Du        
   2921 ****        -4.5000   5.2500  25.2500 Du        
   2922 ****        -4.5000   5.2500  25.5000 Du        
   2923 ****        -4.5000   5.5000  24.2500 Du        
   2924 ****        -4.5000   5.5000  24.5000 Du        
   2925 ****        -4.5000   5.5000  24.7500 Du        
   2926 ****        -4.5000   5.5000  25.0000 Du        
   2927 ****        -4.5000   5.5000  25.2500 Du        
   2928 ****        -4.5000   5.7500  24.0000 Du        
   2929 ****        -4.5000   5.7500  24.2500 Du        
   2930 ****        -4.5000   5.7500  24.5000 Du        
   2931 ****        -4.5000   5.7500  24.7500 Du        
   2932 ****        -4.5000   5.7500  25.0000 Du        
   2933 ****        -4.5000   5.7500  25.2500 Du        
   2934 ****        -4.5000   6.0000  21.5000 Du        
   2935 ****        -4.5000   6.0000  21.7500 Du        
   2936 ****        -4.5000   6.0000  23.7500 Du        
   2937 ****        -4.5000   6.0000  24.0000 Du        
   2938 ****        -4.5000   6.0000  24.2500 Du        
   2939 ****        -4.5000   6.0000  24.5000 Du        
   2940 ****        -4.5000   6.0000  24.7500 Du        
   2941 ****        -4.5000   6.0000  25.0000 Du        
   2942 ****        -4.5000   6.0000  25.2500 Du        
   2943 ****        -4.5000   6.2500  21.2500 Du        
   2944 ****        -4.5000   6.2500  21.5000 Du        
   2945 ****        -4.5000   6.2500  21.7500 Du        
   2946 ****        -4.5000   6.2500  22.0000 Du        
   2947 ****        -4.5000   6.2500  22.2500 Du        
   2948 ****        -4.5000   6.2500  22.5000 Du        
   2949 ****        -4.5000   6.2500  22.7500 Du        
   2950 ****        -4.5000   6.2500  23.0000 Du        
   2951 ****        -4.5000   6.2500  23.2500 Du        
   2952 ****        -4.5000   6.2500  23.5000 Du        
   2953 ****        -4.5000   6.2500  23.7500 Du        
   2954 ****        -4.5000   6.2500  24.0000 Du        
   2955 ****        -4.5000   6.2500  24.2500 Du        
   2956 ****        -4.5000   6.2500  24.5000 Du        
   2957 ****        -4.5000   6.2500  24.7500 Du        
   2958 ****        -4.5000   6.2500  25.0000 Du        
   2959 ****        -4.5000   6.2500  25.2500 Du        
   2960 ****        -4.5000   6.5000  21.0000 Du        
   2961 ****        -4.5000   6.5000  21.2500 Du        
   2962 ****        -4.5000   6.5000  21.5000 Du        
   2963 ****        -4.5000   6.5000  21.7500 Du        
   2964 ****        -4.5000   6.5000  22.0000 Du        
   2965 ****        -4.5000   6.5000  22.2500 Du        
   2966 ****        -4.5000   6.5000  22.5000 Du        
   2967 ****        -4.5000   6.5000  22.7500 Du        
   2968 ****        -4.5000   6.5000  23.0000 Du        
   2969 ****        -4.5000   6.5000  23.2500 Du        
   2970 ****        -4.5000   6.5000  23.5000 Du        
   2971 ****        -4.5000   6.5000  23.7500 Du        
   2972 ****        -4.5000   6.5000  24.0000 Du        
   2973 ****        -4.5000   6.5000  24.2500 Du        
   2974 ****        -4.5000   6.5000  24.5000 Du        
   2975 ****        -4.5000   6.5000  24.7500 Du        
   2976 ****        -4.5000   6.5000  25.0000 Du        
   2977 ****        -4.5000   6.5000  25.2500 Du        
   2978 ****        -4.5000   6.7500  21.0000 Du        
   2979 ****        -4.5000   6.7500  21.2500 Du        
   2980 ****        -4.5000   6.7500  21.5000 Du        
   2981 ****        -4.5000   6.7500  21.7500 Du        
   2982 ****        -4.5000   6.7500  22.0000 Du        
   2983 ****        -4.5000   6.7500  22.2500 Du        
   2984 ****        -4.5000   6.7500  22.5000 Du        
   2985 ****        -4.5000   6.7500  22.7500 Du        
   2986 ****        -4.5000   6.7500  23.0000 Du        
   2987 ****        -4.5000   6.7500  23.2500 Du        
   2988 ****        -4.5000   6.7500  23.5000 Du        
   2989 ****        -4.5000   6.7500  23.7500 Du        
   2990 ****        -4.5000   6.7500  24.0000 Du        
   2991 ****        -4.5000   6.7500  24.2500 Du        
   2992 ****        -4.5000   6.7500  24.5000 Du        
   2993 ****        -4.5000   6.7500  24.7500 Du        
   2994 ****        -4.5000   6.7500  25.0000 Du        
   2995 ****        -4.5000   6.7500  25.2500 Du        
   2996 ****        -4.5000   7.0000  20.7500 Du        
   2997 ****        -4.5000   7.0000  21.0000 Du        
   2998 ****        -4.5000   7.0000  21.2500 Du        
   2999 ****        -4.5000   7.0000  21.5000 Du        
   3000 ****        -4.5000   7.0000  21.7500 Du        
   3001 ****        -4.5000   7.0000  22.0000 Du        
   3002 ****        -4.5000   7.0000  22.2500 Du        
   3003 ****        -4.5000   7.0000  22.5000 Du        
   3004 ****        -4.5000   7.0000  22.7500 Du        
   3005 ****        -4.5000   7.0000  23.0000 Du        
   3006 ****        -4.5000   7.0000  23.2500 Du        
   3007 ****        -4.5000   7.0000  23.5000 Du        
   3008 ****        -4.5000   7.0000  23.7500 Du        
   3009 ****        -4.5000   7.0000  24.0000 Du        
   3010 ****        -4.5000   7.0000  24.2500 Du        
   3011 ****        -4.5000   7.0000  24.5000 Du        
   3012 ****        -4.5000   7.0000  24.7500 Du        
   3013 ****        -4.5000   7.0000  25.0000 Du        
   3014 ****        -4.5000   7.0000  25.2500 Du        
   3015 ****        -4.5000   7.2500  20.7500 Du        
   3016 ****        -4.5000   7.2500  21.0000 Du        
   3017 ****        -4.5000   7.2500  21.2500 Du        
   3018 ****        -4.5000   7.2500  21.5000 Du        
   3019 ****        -4.5000   7.2500  21.7500 Du        
   3020 ****        -4.5000   7.2500  22.0000 Du        
   3021 ****        -4.5000   7.2500  22.2500 Du        
   3022 ****        -4.5000   7.2500  22.5000 Du        
   3023 ****        -4.5000   7.2500  22.7500 Du        
   3024 ****        -4.5000   7.2500  23.0000 Du        
   3025 ****        -4.5000   7.2500  23.2500 Du        
   3026 ****        -4.5000   7.2500  23.5000 Du        
   3027 ****        -4.5000   7.2500  23.7500 Du        
   3028 ****        -4.5000   7.2500  24.0000 Du        
   3029 ****        -4.5000   7.2500  24.2500 Du        
   3030 ****        -4.5000   7.2500  24.5000 Du        
   3031 ****        -4.5000   7.2500  24.7500 Du        
   3032 ****        -4.5000   7.2500  25.0000 Du        
   3033 ****        -4.5000   7.2500  25.2500 Du        
   3034 ****        -4.5000   7.5000  20.5000 Du        
   3035 ****        -4.5000   7.5000  20.7500 Du        
   3036 ****        -4.5000   7.5000  21.0000 Du        
   3037 ****        -4.5000   7.5000  21.2500 Du        
   3038 ****        -4.5000   7.5000  21.5000 Du        
   3039 ****        -4.5000   7.5000  21.7500 Du        
   3040 ****        -4.5000   7.5000  22.0000 Du        
   3041 ****        -4.5000   7.5000  22.2500 Du        
   3042 ****        -4.5000   7.5000  22.5000 Du        
   3043 ****        -4.5000   7.5000  22.7500 Du        
   3044 ****        -4.5000   7.5000  23.0000 Du        
   3045 ****        -4.5000   7.5000  23.2500 Du        
   3046 ****        -4.5000   7.5000  23.5000 Du        
   3047 ****        -4.5000   7.5000  23.7500 Du        
   3048 ****        -4.5000   7.5000  24.0000 Du        
   3049 ****        -4.5000   7.5000  24.2500 Du        
   3050 ****        -4.5000   7.5000  24.5000 Du        
   3051 ****        -4.5000   7.5000  24.7500 Du        
   3052 ****        -4.5000   7.5000  25.0000 Du        
   3053 ****        -4.5000   7.7500  20.2500 Du        
   3054 ****        -4.5000   7.7500  20.5000 Du        
   3055 ****        -4.5000   7.7500  20.7500 Du        
   3056 ****        -4.5000   7.7500  21.0000 Du        
   3057 ****        -4.5000   7.7500  21.2500 Du        
   3058 ****        -4.5000   7.7500  21.5000 Du        
   3059 ****        -4.5000   7.7500  21.7500 Du        
   3060 ****        -4.5000   7.7500  22.0000 Du        
   3061 ****        -4.5000   7.7500  22.2500 Du        
   3062 ****        -4.5000   7.7500  22.5000 Du        
   3063 ****        -4.5000   7.7500  22.7500 Du        
   3064 ****        -4.5000   7.7500  23.0000 Du        
   3065 ****        -4.5000   7.7500  23.2500 Du        
   3066 ****        -4.5000   7.7500  23.5000 Du        
   3067 ****        -4.5000   7.7500  23.7500 Du        
   3068 ****        -4.5000   7.7500  24.0000 Du        
   3069 ****        -4.5000   7.7500  24.2500 Du        
   3070 ****        -4.5000   7.7500  24.5000 Du        
   3071 ****        -4.5000   7.7500  24.7500 Du        
   3072 ****        -4.5000   7.7500  25.0000 Du        
   3073 ****        -4.5000   8.0000  20.2500 Du        
   3074 ****        -4.5000   8.0000  20.5000 Du        
   3075 ****        -4.5000   8.0000  20.7500 Du        
   3076 ****        -4.5000   8.0000  21.0000 Du        
   3077 ****        -4.5000   8.0000  21.2500 Du        
   3078 ****        -4.5000   8.0000  21.5000 Du        
   3079 ****        -4.5000   8.0000  21.7500 Du        
   3080 ****        -4.5000   8.0000  22.0000 Du        
   3081 ****        -4.5000   8.0000  22.2500 Du        
   3082 ****        -4.5000   8.0000  22.5000 Du        
   3083 ****        -4.5000   8.0000  22.7500 Du        
   3084 ****        -4.5000   8.0000  23.0000 Du        
   3085 ****        -4.5000   8.0000  23.2500 Du        
   3086 ****        -4.5000   8.0000  23.5000 Du        
   3087 ****        -4.5000   8.0000  23.7500 Du        
   3088 ****        -4.5000   8.0000  24.0000 Du        
   3089 ****        -4.5000   8.0000  24.2500 Du        
   3090 ****        -4.5000   8.0000  24.5000 Du        
   3091 ****        -4.5000   8.0000  24.7500 Du        
   3092 ****        -4.5000   8.2500  20.2500 Du        
   3093 ****        -4.5000   8.2500  20.5000 Du        
   3094 ****        -4.5000   8.2500  20.7500 Du        
   3095 ****        -4.5000   8.2500  21.0000 Du        
   3096 ****        -4.5000   8.2500  21.2500 Du        
   3097 ****        -4.5000   8.2500  21.5000 Du        
   3098 ****        -4.5000   8.2500  21.7500 Du        
   3099 ****        -4.5000   8.2500  22.0000 Du        
   3100 ****        -4.5000   8.2500  22.2500 Du        
   3101 ****        -4.5000   8.2500  22.5000 Du        
   3102 ****        -4.5000   8.2500  22.7500 Du        
   3103 ****        -4.5000   8.2500  23.0000 Du        
   3104 ****        -4.5000   8.2500  23.2500 Du        
   3105 ****        -4.5000   8.2500  23.5000 Du        
   3106 ****        -4.5000   8.2500  23.7500 Du        
   3107 ****        -4.5000   8.2500  24.0000 Du        
   3108 ****        -4.5000   8.2500  24.2500 Du        
   3109 ****        -4.5000   8.5000  20.7500 Du        
   3110 ****        -4.5000   8.5000  21.0000 Du        
   3111 ****        -4.5000   8.5000  21.2500 Du        
   3112 ****        -4.5000   8.5000  21.5000 Du        
   3113 ****        -4.5000   8.5000  21.7500 Du        
   3114 ****        -4.5000   8.5000  22.0000 Du        
   3115 ****        -4.5000   8.5000  22.2500 Du        
   3116 ****        -4.5000   8.5000  22.5000 Du        
   3117 ****        -4.5000   8.5000  22.7500 Du        
   3118 ****        -4.5000   8.5000  23.0000 Du        
   3119 ****        -4.5000   8.5000  23.2500 Du        
   3120 ****        -4.5000   8.5000  23.5000 Du        
   3121 ****        -4.5000   8.5000  23.7500 Du        
   3122 ****        -4.5000   8.5000  24.0000 Du        
   3123 ****        -4.5000   8.5000  24.2500 Du        
   3124 ****        -4.5000   8.7500  21.0000 Du        
   3125 ****        -4.5000   8.7500  21.2500 Du        
   3126 ****        -4.5000   8.7500  21.5000 Du        
   3127 ****        -4.5000   8.7500  21.7500 Du        
   3128 ****        -4.5000   8.7500  22.0000 Du        
   3129 ****        -4.5000   8.7500  22.2500 Du        
   3130 ****        -4.5000   8.7500  22.5000 Du        
   3131 ****        -4.5000   8.7500  22.7500 Du        
   3132 ****        -4.5000   8.7500  23.0000 Du        
   3133 ****        -4.5000   8.7500  23.2500 Du        
   3134 ****        -4.5000   8.7500  23.5000 Du        
   3135 ****        -4.5000   8.7500  23.7500 Du        
   3136 ****        -4.5000   8.7500  24.0000 Du        
   3137 ****        -4.5000   8.7500  24.2500 Du        
   3138 ****        -4.5000   9.0000  21.5000 Du        
   3139 ****        -4.5000   9.0000  21.7500 Du        
   3140 ****        -4.5000   9.0000  22.0000 Du        
   3141 ****        -4.5000   9.0000  22.2500 Du        
   3142 ****        -4.5000   9.0000  22.5000 Du        
   3143 ****        -4.5000   9.0000  22.7500 Du        
   3144 ****        -4.5000   9.0000  23.0000 Du        
   3145 ****        -4.5000   9.0000  23.2500 Du        
   3146 ****        -4.5000   9.0000  23.5000 Du        
   3147 ****        -4.5000   9.0000  23.7500 Du        
   3148 ****        -4.5000   9.2500  21.7500 Du        
   3149 ****        -4.5000   9.2500  22.0000 Du        
   3150 ****        -4.5000   9.2500  22.2500 Du        
   3151 ****        -4.5000   9.2500  22.5000 Du        
   3152 ****        -4.5000   9.2500  22.7500 Du        
   3153 ****        -4.5000   9.2500  23.0000 Du        
   3154 ****        -4.5000   9.2500  23.2500 Du        
   3155 ****        -4.5000   9.2500  23.5000 Du        
   3156 ****        -4.5000   9.5000  22.0000 Du        
   3157 ****        -4.5000   9.5000  22.2500 Du        
   3158 ****        -4.5000   9.5000  22.5000 Du        
   3159 ****        -4.5000   9.5000  22.7500 Du        
   3160 ****        -4.5000   9.5000  23.0000 Du        
   3161 ****        -4.5000   9.5000  23.2500 Du        
   3162 ****        -4.5000   9.7500  22.2500 Du        
   3163 ****        -4.5000   9.7500  22.5000 Du        
   3164 ****        -4.5000   9.7500  22.7500 Du        
   3165 ****        -4.5000   9.7500  23.0000 Du        
   3166 ****        -4.5000   9.7500  23.2500 Du        
   3167 ****        -4.5000  10.0000  14.0000 Du        
   3168 ****        -4.5000  10.0000  14.2500 Du        
   3169 ****        -4.5000  10.0000  14.5000 Du        
   3170 ****        -4.5000  10.0000  22.5000 Du        
   3171 ****        -4.5000  10.0000  22.7500 Du        
   3172 ****        -4.5000  10.0000  23.0000 Du        
   3173 ****        -4.5000  10.2500  14.2500 Du        
   3174 ****        -4.2500  -9.0000  10.7500 Du        
   3175 ****        -4.2500  -9.0000  11.0000 Du        
   3176 ****        -4.2500  -9.0000  11.2500 Du        
   3177 ****        -4.2500  -9.0000  11.5000 Du        
   3178 ****        -4.2500  -9.0000  11.7500 Du        
   3179 ****        -4.2500  -9.0000  12.0000 Du        
   3180 ****        -4.2500  -8.7500  10.7500 Du        
   3181 ****        -4.2500  -8.7500  11.0000 Du        
   3182 ****        -4.2500  -8.7500  11.2500 Du        
   3183 ****        -4.2500  -8.7500  11.5000 Du        
   3184 ****        -4.2500  -8.7500  11.7500 Du        
   3185 ****        -4.2500  -8.7500  12.0000 Du        
   3186 ****        -4.2500  -8.5000  10.7500 Du        
   3187 ****        -4.2500  -8.5000  11.0000 Du        
   3188 ****        -4.2500  -8.5000  11.2500 Du        
   3189 ****        -4.2500  -8.5000  11.5000 Du        
   3190 ****        -4.2500  -8.5000  11.7500 Du        
   3191 ****        -4.2500  -8.5000  12.0000 Du        
   3192 ****        -4.2500  -8.2500  10.5000 Du        
   3193 ****        -4.2500  -8.2500  10.7500 Du        
   3194 ****        -4.2500  -8.2500  11.0000 Du        
   3195 ****        -4.2500  -8.2500  11.2500 Du        
   3196 ****        -4.2500  -8.2500  11.5000 Du        
   3197 ****        -4.2500  -8.2500  11.7500 Du        
   3198 ****        -4.2500  -8.2500  12.0000 Du        
   3199 ****        -4.2500  -8.0000  10.2500 Du        
   3200 ****        -4.2500  -8.0000  10.5000 Du        
   3201 ****        -4.2500  -8.0000  10.7500 Du        
   3202 ****        -4.2500  -8.0000  11.0000 Du        
   3203 ****        -4.2500  -8.0000  11.2500 Du        
   3204 ****        -4.2500  -8.0000  11.5000 Du        
   3205 ****        -4.2500  -8.0000  11.7500 Du        
   3206 ****        -4.2500  -8.0000  12.0000 Du        
   3207 ****        -4.2500  -8.0000  12.2500 Du        
   3208 ****        -4.2500  -7.7500   9.7500 Du        
   3209 ****        -4.2500  -7.7500  10.0000 Du        
   3210 ****        -4.2500  -7.7500  10.2500 Du        
   3211 ****        -4.2500  -7.7500  10.5000 Du        
   3212 ****        -4.2500  -7.7500  10.7500 Du        
   3213 ****        -4.2500  -7.7500  11.0000 Du        
   3214 ****        -4.2500  -7.7500  11.2500 Du        
   3215 ****        -4.2500  -7.7500  11.5000 Du        
   3216 ****        -4.2500  -7.7500  11.7500 Du        
   3217 ****        -4.2500  -7.7500  12.0000 Du        
   3218 ****        -4.2500  -7.5000   8.7500 Du        
   3219 ****        -4.2500  -7.5000   9.0000 Du        
   3220 ****        -4.2500  -7.5000   9.2500 Du        
   3221 ****        -4.2500  -7.5000   9.5000 Du        
   3222 ****        -4.2500  -7.5000   9.7500 Du        
   3223 ****        -4.2500  -7.5000  10.0000 Du        
   3224 ****        -4.2500  -7.5000  10.2500 Du        
   3225 ****        -4.2500  -7.5000  10.5000 Du        
   3226 ****        -4.2500  -7.5000  10.7500 Du        
   3227 ****        -4.2500  -7.5000  11.0000 Du        
   3228 ****        -4.2500  -7.2500   8.2500 Du        
   3229 ****        -4.2500  -7.2500   8.5000 Du        
   3230 ****        -4.2500  -7.2500   8.7500 Du        
   3231 ****        -4.2500  -7.2500   9.0000 Du        
   3232 ****        -4.2500  -7.2500   9.2500 Du        
   3233 ****        -4.2500  -7.2500   9.5000 Du        
   3234 ****        -4.2500  -7.2500   9.7500 Du        
   3235 ****        -4.2500  -7.2500  10.0000 Du        
   3236 ****        -4.2500  -7.2500  10.2500 Du        
   3237 ****        -4.2500  -7.0000   8.2500 Du        
   3238 ****        -4.2500  -7.0000   8.5000 Du        
   3239 ****        -4.2500  -7.0000   8.7500 Du        
   3240 ****        -4.2500  -7.0000   9.0000 Du        
   3241 ****        -4.2500  -7.0000   9.2500 Du        
   3242 ****        -4.2500  -7.0000   9.5000 Du        
   3243 ****        -4.2500  -7.0000   9.7500 Du        
   3244 ****        -4.2500  -6.7500   8.0000 Du        
   3245 ****        -4.2500  -6.7500   8.2500 Du        
   3246 ****        -4.2500  -6.7500   8.5000 Du        
   3247 ****        -4.2500  -6.7500   8.7500 Du        
   3248 ****        -4.2500  -6.7500   9.0000 Du        
   3249 ****        -4.2500  -6.7500   9.2500 Du        
   3250 ****        -4.2500  -6.5000   8.0000 Du        
   3251 ****        -4.2500  -6.5000   8.2500 Du        
   3252 ****        -4.2500  -6.5000   8.5000 Du        
   3253 ****        -4.2500  -6.5000   8.7500 Du        
   3254 ****        -4.2500  -6.5000   9.0000 Du        
   3255 ****        -4.2500  -6.2500   8.0000 Du        
   3256 ****        -4.2500  -6.2500   8.2500 Du        
   3257 ****        -4.2500  -6.2500   8.5000 Du        
   3258 ****        -4.2500  -6.2500   8.7500 Du        
   3259 ****        -4.2500  -6.0000   8.0000 Du        
   3260 ****        -4.2500  -6.0000   8.2500 Du        
   3261 ****        -4.2500  -6.0000   8.5000 Du        
   3262 ****        -4.2500  -5.7500   8.0000 Du        
   3263 ****        -4.2500  -5.7500   8.2500 Du        
   3264 ****        -4.2500  -5.5000   7.7500 Du        
   3265 ****        -4.2500  -5.5000   8.0000 Du        
   3266 ****        -4.2500  -5.2500   7.7500 Du        
   3267 ****        -4.2500  -5.2500   8.0000 Du        
   3268 ****        -4.2500  -5.0000   7.5000 Du        
   3269 ****        -4.2500  -5.0000   7.7500 Du        
   3270 ****        -4.2500  -4.7500   7.5000 Du        
   3271 ****        -4.2500  -4.7500   7.7500 Du        
   3272 ****        -4.2500  -4.5000   7.5000 Du        
   3273 ****        -4.2500  -2.2500  28.0000 Du        
   3274 ****        -4.2500  -2.0000  20.7500 Du        
   3275 ****        -4.2500  -2.0000  21.0000 Du        
   3276 ****        -4.2500  -2.0000  21.2500 Du        
   3277 ****        -4.2500  -2.0000  27.0000 Du        
   3278 ****        -4.2500  -2.0000  27.2500 Du        
   3279 ****        -4.2500  -2.0000  27.5000 Du        
   3280 ****        -4.2500  -2.0000  27.7500 Du        
   3281 ****        -4.2500  -2.0000  28.0000 Du        
   3282 ****        -4.2500  -1.7500  20.5000 Du        
   3283 ****        -4.2500  -1.7500  20.7500 Du        
   3284 ****        -4.2500  -1.7500  21.0000 Du        
   3285 ****        -4.2500  -1.7500  21.2500 Du        
   3286 ****        -4.2500  -1.7500  21.5000 Du        
   3287 ****        -4.2500  -1.7500  21.7500 Du        
   3288 ****        -4.2500  -1.7500  22.0000 Du        
   3289 ****        -4.2500  -1.7500  26.5000 Du        
   3290 ****        -4.2500  -1.7500  26.7500 Du        
   3291 ****        -4.2500  -1.7500  27.0000 Du        
   3292 ****        -4.2500  -1.7500  27.2500 Du        
   3293 ****        -4.2500  -1.7500  27.5000 Du        
   3294 ****        -4.2500  -1.7500  27.7500 Du        
   3295 ****        -4.2500  -1.5000  20.5000 Du        
   3296 ****        -4.2500  -1.5000  20.7500 Du        
   3297 ****        -4.2500  -1.5000  21.0000 Du        
   3298 ****        -4.2500  -1.5000  21.2500 Du        
   3299 ****        -4.2500  -1.5000  21.5000 Du        
   3300 ****        -4.2500  -1.5000  21.7500 Du        
   3301 ****        -4.2500  -1.5000  22.0000 Du        
   3302 ****        -4.2500  -1.5000  22.2500 Du        
   3303 ****        -4.2500  -1.5000  22.5000 Du        
   3304 ****        -4.2500  -1.5000  22.7500 Du        
   3305 ****        -4.2500  -1.5000  23.0000 Du        
   3306 ****        -4.2500  -1.5000  23.2500 Du        
   3307 ****        -4.2500  -1.5000  23.5000 Du        
   3308 ****        -4.2500  -1.5000  23.7500 Du        
   3309 ****        -4.2500  -1.5000  24.0000 Du        
   3310 ****        -4.2500  -1.5000  24.2500 Du        
   3311 ****        -4.2500  -1.5000  24.5000 Du        
   3312 ****        -4.2500  -1.5000  24.7500 Du        
   3313 ****        -4.2500  -1.5000  25.0000 Du        
   3314 ****        -4.2500  -1.5000  25.2500 Du        
   3315 ****        -4.2500  -1.5000  25.5000 Du        
   3316 ****        -4.2500  -1.5000  25.7500 Du        
   3317 ****        -4.2500  -1.5000  26.0000 Du        
   3318 ****        -4.2500  -1.5000  26.2500 Du        
   3319 ****        -4.2500  -1.5000  26.5000 Du        
   3320 ****        -4.2500  -1.5000  26.7500 Du        
   3321 ****        -4.2500  -1.5000  27.0000 Du        
   3322 ****        -4.2500  -1.5000  27.2500 Du        
   3323 ****        -4.2500  -1.2500  20.2500 Du        
   3324 ****        -4.2500  -1.2500  20.5000 Du        
   3325 ****        -4.2500  -1.2500  20.7500 Du        
   3326 ****        -4.2500  -1.2500  21.0000 Du        
   3327 ****        -4.2500  -1.2500  21.2500 Du        
   3328 ****        -4.2500  -1.2500  21.5000 Du        
   3329 ****        -4.2500  -1.2500  21.7500 Du        
   3330 ****        -4.2500  -1.2500  22.0000 Du        
   3331 ****        -4.2500  -1.2500  22.2500 Du        
   3332 ****        -4.2500  -1.2500  22.5000 Du        
   3333 ****        -4.2500  -1.2500  22.7500 Du        
   3334 ****        -4.2500  -1.2500  23.0000 Du        
   3335 ****        -4.2500  -1.2500  23.2500 Du        
   3336 ****        -4.2500  -1.2500  23.5000 Du        
   3337 ****        -4.2500  -1.2500  23.7500 Du        
   3338 ****        -4.2500  -1.2500  24.0000 Du        
   3339 ****        -4.2500  -1.2500  24.2500 Du        
   3340 ****        -4.2500  -1.2500  24.5000 Du        
   3341 ****        -4.2500  -1.2500  24.7500 Du        
   3342 ****        -4.2500  -1.2500  25.0000 Du        
   3343 ****        -4.2500  -1.2500  25.2500 Du        
   3344 ****        -4.2500  -1.2500  25.5000 Du        
   3345 ****        -4.2500  -1.2500  25.7500 Du        
   3346 ****        -4.2500  -1.2500  26.0000 Du        
   3347 ****        -4.2500  -1.2500  26.2500 Du        
   3348 ****        -4.2500  -1.2500  26.5000 Du        
   3349 ****        -4.2500  -1.2500  26.7500 Du        
   3350 ****        -4.2500  -1.2500  27.0000 Du        
   3351 ****        -4.2500  -1.2500  27.2500 Du        
   3352 ****        -4.2500  -1.0000  20.0000 Du        
   3353 ****        -4.2500  -1.0000  20.2500 Du        
   3354 ****        -4.2500  -1.0000  20.5000 Du        
   3355 ****        -4.2500  -1.0000  20.7500 Du        
   3356 ****        -4.2500  -1.0000  21.0000 Du        
   3357 ****        -4.2500  -1.0000  21.2500 Du        
   3358 ****        -4.2500  -1.0000  21.5000 Du        
   3359 ****        -4.2500  -1.0000  21.7500 Du        
   3360 ****        -4.2500  -1.0000  22.0000 Du        
   3361 ****        -4.2500  -1.0000  22.2500 Du        
   3362 ****        -4.2500  -1.0000  22.5000 Du        
   3363 ****        -4.2500  -1.0000  22.7500 Du        
   3364 ****        -4.2500  -1.0000  23.0000 Du        
   3365 ****        -4.2500  -1.0000  23.2500 Du        
   3366 ****        -4.2500  -1.0000  23.5000 Du        
   3367 ****        -4.2500  -1.0000  23.7500 Du        
   3368 ****        -4.2500  -1.0000  24.0000 Du        
   3369 ****        -4.2500  -1.0000  24.2500 Du        
   3370 ****        -4.2500  -1.0000  24.5000 Du        
   3371 ****        -4.2500  -1.0000  24.7500 Du        
   3372 ****        -4.2500  -1.0000  25.0000 Du        
   3373 ****        -4.2500  -1.0000  25.2500 Du        
   3374 ****        -4.2500  -1.0000  25.5000 Du        
   3375 ****        -4.2500  -1.0000  25.7500 Du        
   3376 ****        -4.2500  -1.0000  26.0000 Du        
   3377 ****        -4.2500  -1.0000  26.2500 Du        
   3378 ****        -4.2500  -1.0000  26.5000 Du        
   3379 ****        -4.2500  -1.0000  26.7500 Du        
   3380 ****        -4.2500  -1.0000  27.0000 Du        
   3381 ****        -4.2500  -1.0000  27.2500 Du        
   3382 ****        -4.2500  -0.7500  19.7500 Du        
   3383 ****        -4.2500  -0.7500  20.0000 Du        
   3384 ****        -4.2500  -0.7500  20.2500 Du        
   3385 ****        -4.2500  -0.7500  20.5000 Du        
   3386 ****        -4.2500  -0.7500  20.7500 Du        
   3387 ****        -4.2500  -0.7500  21.0000 Du        
   3388 ****        -4.2500  -0.7500  21.2500 Du        
   3389 ****        -4.2500  -0.7500  21.5000 Du        
   3390 ****        -4.2500  -0.7500  21.7500 Du        
   3391 ****        -4.2500  -0.7500  22.0000 Du        
   3392 ****        -4.2500  -0.7500  22.2500 Du        
   3393 ****        -4.2500  -0.7500  22.5000 Du        
   3394 ****        -4.2500  -0.7500  22.7500 Du        
   3395 ****        -4.2500  -0.7500  23.0000 Du        
   3396 ****        -4.2500  -0.7500  23.2500 Du        
   3397 ****        -4.2500  -0.7500  23.5000 Du        
   3398 ****        -4.2500  -0.7500  23.7500 Du        
   3399 ****        -4.2500  -0.7500  24.0000 Du        
   3400 ****        -4.2500  -0.7500  24.2500 Du        
   3401 ****        -4.2500  -0.7500  24.5000 Du        
   3402 ****        -4.2500  -0.7500  24.7500 Du        
   3403 ****        -4.2500  -0.7500  25.0000 Du        
   3404 ****        -4.2500  -0.7500  25.2500 Du        
   3405 ****        -4.2500  -0.7500  25.5000 Du        
   3406 ****        -4.2500  -0.7500  25.7500 Du        
   3407 ****        -4.2500  -0.7500  26.0000 Du        
   3408 ****        -4.2500  -0.7500  26.2500 Du        
   3409 ****        -4.2500  -0.7500  26.5000 Du        
   3410 ****        -4.2500  -0.7500  26.7500 Du        
   3411 ****        -4.2500  -0.5000  19.7500 Du        
   3412 ****        -4.2500  -0.5000  20.0000 Du        
   3413 ****        -4.2500  -0.5000  20.2500 Du        
   3414 ****        -4.2500  -0.5000  20.5000 Du        
   3415 ****        -4.2500  -0.5000  20.7500 Du        
   3416 ****        -4.2500  -0.5000  21.0000 Du        
   3417 ****        -4.2500  -0.5000  21.2500 Du        
   3418 ****        -4.2500  -0.5000  21.5000 Du        
   3419 ****        -4.2500  -0.5000  21.7500 Du        
   3420 ****        -4.2500  -0.5000  22.0000 Du        
   3421 ****        -4.2500  -0.5000  22.2500 Du        
   3422 ****        -4.2500  -0.5000  22.5000 Du        
   3423 ****        -4.2500  -0.5000  22.7500 Du        
   3424 ****        -4.2500  -0.5000  23.0000 Du        
   3425 ****        -4.2500  -0.5000  23.2500 Du        
   3426 ****        -4.2500  -0.5000  23.5000 Du        
   3427 ****        -4.2500  -0.5000  23.7500 Du        
   3428 ****        -4.2500  -0.5000  24.0000 Du        
   3429 ****        -4.2500  -0.5000  24.2500 Du        
   3430 ****        -4.2500  -0.5000  24.5000 Du        
   3431 ****        -4.2500  -0.5000  24.7500 Du        
   3432 ****        -4.2500  -0.5000  25.0000 Du        
   3433 ****        -4.2500  -0.5000  25.2500 Du        
   3434 ****        -4.2500  -0.5000  25.5000 Du        
   3435 ****        -4.2500  -0.5000  25.7500 Du        
   3436 ****        -4.2500  -0.5000  26.0000 Du        
   3437 ****        -4.2500  -0.5000  26.2500 Du        
   3438 ****        -4.2500  -0.2500  19.5000 Du        
   3439 ****        -4.2500  -0.2500  19.7500 Du        
   3440 ****        -4.2500  -0.2500  20.0000 Du        
   3441 ****        -4.2500  -0.2500  20.2500 Du        
   3442 ****        -4.2500  -0.2500  20.5000 Du        
   3443 ****        -4.2500  -0.2500  20.7500 Du        
   3444 ****        -4.2500  -0.2500  21.0000 Du        
   3445 ****        -4.2500  -0.2500  21.2500 Du        
   3446 ****        -4.2500  -0.2500  21.5000 Du        
   3447 ****        -4.2500  -0.2500  21.7500 Du        
   3448 ****        -4.2500  -0.2500  22.0000 Du        
   3449 ****        -4.2500  -0.2500  23.0000 Du        
   3450 ****        -4.2500  -0.2500  23.2500 Du        
   3451 ****        -4.2500  -0.2500  23.5000 Du        
   3452 ****        -4.2500  -0.2500  23.7500 Du        
   3453 ****        -4.2500  -0.2500  24.0000 Du        
   3454 ****        -4.2500  -0.2500  24.2500 Du        
   3455 ****        -4.2500  -0.2500  24.5000 Du        
   3456 ****        -4.2500  -0.2500  24.7500 Du        
   3457 ****        -4.2500  -0.2500  25.0000 Du        
   3458 ****        -4.2500  -0.2500  25.2500 Du        
   3459 ****        -4.2500  -0.2500  25.5000 Du        
   3460 ****        -4.2500  -0.2500  25.7500 Du        
   3461 ****        -4.2500  -0.2500  26.0000 Du        
   3462 ****        -4.2500  -0.2500  26.2500 Du        
   3463 ****        -4.2500   0.0000  19.0000 Du        
   3464 ****        -4.2500   0.0000  19.2500 Du        
   3465 ****        -4.2500   0.0000  19.5000 Du        
   3466 ****        -4.2500   0.0000  19.7500 Du        
   3467 ****        -4.2500   0.0000  20.0000 Du        
   3468 ****        -4.2500   0.0000  20.2500 Du        
   3469 ****        -4.2500   0.0000  20.5000 Du        
   3470 ****        -4.2500   0.0000  20.7500 Du        
   3471 ****        -4.2500   0.0000  21.0000 Du        
   3472 ****        -4.2500   0.0000  21.2500 Du        
   3473 ****        -4.2500   0.0000  21.5000 Du        
   3474 ****        -4.2500   0.0000  23.7500 Du        
   3475 ****        -4.2500   0.0000  24.0000 Du        
   3476 ****        -4.2500   0.0000  24.2500 Du        
   3477 ****        -4.2500   0.0000  24.5000 Du        
   3478 ****        -4.2500   0.0000  24.7500 Du        
   3479 ****        -4.2500   0.0000  25.0000 Du        
   3480 ****        -4.2500   0.0000  25.2500 Du        
   3481 ****        -4.2500   0.0000  25.5000 Du        
   3482 ****        -4.2500   0.0000  25.7500 Du        
   3483 ****        -4.2500   0.0000  26.0000 Du        
   3484 ****        -4.2500   0.2500  18.7500 Du        
   3485 ****        -4.2500   0.2500  19.0000 Du        
   3486 ****        -4.2500   0.2500  19.2500 Du        
   3487 ****        -4.2500   0.2500  19.5000 Du        
   3488 ****        -4.2500   0.2500  19.7500 Du        
   3489 ****        -4.2500   0.2500  20.0000 Du        
   3490 ****        -4.2500   0.2500  20.2500 Du        
   3491 ****        -4.2500   0.2500  20.5000 Du        
   3492 ****        -4.2500   0.2500  20.7500 Du        
   3493 ****        -4.2500   0.2500  21.0000 Du        
   3494 ****        -4.2500   0.2500  21.2500 Du        
   3495 ****        -4.2500   0.2500  24.0000 Du        
   3496 ****        -4.2500   0.2500  24.2500 Du        
   3497 ****        -4.2500   0.2500  24.5000 Du        
   3498 ****        -4.2500   0.2500  24.7500 Du        
   3499 ****        -4.2500   0.2500  25.0000 Du        
   3500 ****        -4.2500   0.2500  25.2500 Du        
   3501 ****        -4.2500   0.2500  25.5000 Du        
   3502 ****        -4.2500   0.2500  25.7500 Du        
   3503 ****        -4.2500   0.5000  18.5000 Du        
   3504 ****        -4.2500   0.5000  18.7500 Du        
   3505 ****        -4.2500   0.5000  19.0000 Du        
   3506 ****        -4.2500   0.5000  19.2500 Du        
   3507 ****        -4.2500   0.5000  19.5000 Du        
   3508 ****        -4.2500   0.5000  19.7500 Du        
   3509 ****        -4.2500   0.5000  20.0000 Du        
   3510 ****        -4.2500   0.5000  20.2500 Du        
   3511 ****        -4.2500   0.5000  20.5000 Du        
   3512 ****        -4.2500   0.5000  20.7500 Du        
   3513 ****        -4.2500   0.5000  21.0000 Du        
   3514 ****        -4.2500   0.5000  24.5000 Du        
   3515 ****        -4.2500   0.5000  24.7500 Du        
   3516 ****        -4.2500   0.5000  25.0000 Du        
   3517 ****        -4.2500   0.5000  25.2500 Du        
   3518 ****        -4.2500   0.7500  18.0000 Du        
   3519 ****        -4.2500   0.7500  18.2500 Du        
   3520 ****        -4.2500   0.7500  18.5000 Du        
   3521 ****        -4.2500   0.7500  18.7500 Du        
   3522 ****        -4.2500   0.7500  19.0000 Du        
   3523 ****        -4.2500   0.7500  19.2500 Du        
   3524 ****        -4.2500   0.7500  19.5000 Du        
   3525 ****        -4.2500   0.7500  19.7500 Du        
   3526 ****        -4.2500   0.7500  20.0000 Du        
   3527 ****        -4.2500   0.7500  20.2500 Du        
   3528 ****        -4.2500   0.7500  20.5000 Du        
   3529 ****        -4.2500   0.7500  20.7500 Du        
   3530 ****        -4.2500   0.7500  21.0000 Du        
   3531 ****        -4.2500   0.7500  21.2500 Du        
   3532 ****        -4.2500   0.7500  24.7500 Du        
   3533 ****        -4.2500   0.7500  25.0000 Du        
   3534 ****        -4.2500   0.7500  25.2500 Du        
   3535 ****        -4.2500   0.7500  25.5000 Du        
   3536 ****        -4.2500   0.7500  25.7500 Du        
   3537 ****        -4.2500   1.0000  17.2500 Du        
   3538 ****        -4.2500   1.0000  17.5000 Du        
   3539 ****        -4.2500   1.0000  17.7500 Du        
   3540 ****        -4.2500   1.0000  18.0000 Du        
   3541 ****        -4.2500   1.0000  18.2500 Du        
   3542 ****        -4.2500   1.0000  18.5000 Du        
   3543 ****        -4.2500   1.0000  18.7500 Du        
   3544 ****        -4.2500   1.0000  19.0000 Du        
   3545 ****        -4.2500   1.0000  19.2500 Du        
   3546 ****        -4.2500   1.0000  19.5000 Du        
   3547 ****        -4.2500   1.0000  19.7500 Du        
   3548 ****        -4.2500   1.0000  20.0000 Du        
   3549 ****        -4.2500   1.0000  20.2500 Du        
   3550 ****        -4.2500   1.0000  20.5000 Du        
   3551 ****        -4.2500   1.0000  20.7500 Du        
   3552 ****        -4.2500   1.0000  21.0000 Du        
   3553 ****        -4.2500   1.0000  24.7500 Du        
   3554 ****        -4.2500   1.0000  25.0000 Du        
   3555 ****        -4.2500   1.0000  25.2500 Du        
   3556 ****        -4.2500   1.0000  25.5000 Du        
   3557 ****        -4.2500   1.2500  16.2500 Du        
   3558 ****        -4.2500   1.2500  16.5000 Du        
   3559 ****        -4.2500   1.2500  16.7500 Du        
   3560 ****        -4.2500   1.2500  17.0000 Du        
   3561 ****        -4.2500   1.2500  17.2500 Du        
   3562 ****        -4.2500   1.2500  17.5000 Du        
   3563 ****        -4.2500   1.2500  17.7500 Du        
   3564 ****        -4.2500   1.2500  18.0000 Du        
   3565 ****        -4.2500   1.2500  18.2500 Du        
   3566 ****        -4.2500   1.2500  18.5000 Du        
   3567 ****        -4.2500   1.2500  18.7500 Du        
   3568 ****        -4.2500   1.2500  19.0000 Du        
   3569 ****        -4.2500   1.2500  19.2500 Du        
   3570 ****        -4.2500   1.2500  19.5000 Du        
   3571 ****        -4.2500   1.2500  19.7500 Du        
   3572 ****        -4.2500   1.2500  20.0000 Du        
   3573 ****        -4.2500   1.2500  20.2500 Du        
   3574 ****        -4.2500   1.2500  20.5000 Du        
   3575 ****        -4.2500   1.2500  20.7500 Du        
   3576 ****        -4.2500   1.2500  21.0000 Du        
   3577 ****        -4.2500   1.2500  25.0000 Du        
   3578 ****        -4.2500   1.2500  25.2500 Du        
   3579 ****        -4.2500   1.2500  25.5000 Du        
   3580 ****        -4.2500   1.5000  16.0000 Du        
   3581 ****        -4.2500   1.5000  16.2500 Du        
   3582 ****        -4.2500   1.5000  16.5000 Du        
   3583 ****        -4.2500   1.5000  16.7500 Du        
   3584 ****        -4.2500   1.5000  17.0000 Du        
   3585 ****        -4.2500   1.5000  17.2500 Du        
   3586 ****        -4.2500   1.5000  17.5000 Du        
   3587 ****        -4.2500   1.5000  17.7500 Du        
   3588 ****        -4.2500   1.5000  18.0000 Du        
   3589 ****        -4.2500   1.5000  18.2500 Du        
   3590 ****        -4.2500   1.5000  18.5000 Du        
   3591 ****        -4.2500   1.5000  18.7500 Du        
   3592 ****        -4.2500   1.5000  19.0000 Du        
   3593 ****        -4.2500   1.5000  19.2500 Du        
   3594 ****        -4.2500   1.5000  19.5000 Du        
   3595 ****        -4.2500   1.5000  19.7500 Du        
   3596 ****        -4.2500   1.5000  20.0000 Du        
   3597 ****        -4.2500   1.5000  20.2500 Du        
   3598 ****        -4.2500   1.5000  20.5000 Du        
   3599 ****        -4.2500   1.5000  20.7500 Du        
   3600 ****        -4.2500   1.5000  21.0000 Du        
   3601 ****        -4.2500   1.5000  25.0000 Du        
   3602 ****        -4.2500   1.5000  25.2500 Du        
   3603 ****        -4.2500   1.7500  16.0000 Du        
   3604 ****        -4.2500   1.7500  16.2500 Du        
   3605 ****        -4.2500   1.7500  16.5000 Du        
   3606 ****        -4.2500   1.7500  16.7500 Du        
   3607 ****        -4.2500   1.7500  17.0000 Du        
   3608 ****        -4.2500   1.7500  17.2500 Du        
   3609 ****        -4.2500   1.7500  17.5000 Du        
   3610 ****        -4.2500   1.7500  17.7500 Du        
   3611 ****        -4.2500   1.7500  18.0000 Du        
   3612 ****        -4.2500   1.7500  18.2500 Du        
   3613 ****        -4.2500   1.7500  18.5000 Du        
   3614 ****        -4.2500   1.7500  18.7500 Du        
   3615 ****        -4.2500   1.7500  19.0000 Du        
   3616 ****        -4.2500   1.7500  19.2500 Du        
   3617 ****        -4.2500   1.7500  19.5000 Du        
   3618 ****        -4.2500   1.7500  19.7500 Du        
   3619 ****        -4.2500   1.7500  20.0000 Du        
   3620 ****        -4.2500   1.7500  20.2500 Du        
   3621 ****        -4.2500   1.7500  20.5000 Du        
   3622 ****        -4.2500   1.7500  20.7500 Du        
   3623 ****        -4.2500   1.7500  21.0000 Du        
   3624 ****        -4.2500   1.7500  25.0000 Du        
   3625 ****        -4.2500   1.7500  25.2500 Du        
   3626 ****        -4.2500   1.7500  25.5000 Du        
   3627 ****        -4.2500   2.0000  16.0000 Du        
   3628 ****        -4.2500   2.0000  16.2500 Du        
   3629 ****        -4.2500   2.0000  16.5000 Du        
   3630 ****        -4.2500   2.0000  16.7500 Du        
   3631 ****        -4.2500   2.0000  17.0000 Du        
   3632 ****        -4.2500   2.0000  17.2500 Du        
   3633 ****        -4.2500   2.0000  17.5000 Du        
   3634 ****        -4.2500   2.0000  17.7500 Du        
   3635 ****        -4.2500   2.0000  18.0000 Du        
   3636 ****        -4.2500   2.0000  18.2500 Du        
   3637 ****        -4.2500   2.0000  18.5000 Du        
   3638 ****        -4.2500   2.0000  18.7500 Du        
   3639 ****        -4.2500   2.0000  19.0000 Du        
   3640 ****        -4.2500   2.0000  19.2500 Du        
   3641 ****        -4.2500   2.0000  19.5000 Du        
   3642 ****        -4.2500   2.0000  19.7500 Du        
   3643 ****        -4.2500   2.0000  20.0000 Du        
   3644 ****        -4.2500   2.0000  20.2500 Du        
   3645 ****        -4.2500   2.0000  20.5000 Du        
   3646 ****        -4.2500   2.0000  20.7500 Du        
   3647 ****        -4.2500   2.0000  21.0000 Du        
   3648 ****        -4.2500   2.0000  24.7500 Du        
   3649 ****        -4.2500   2.0000  25.0000 Du        
   3650 ****        -4.2500   2.0000  25.2500 Du        
   3651 ****        -4.2500   2.0000  25.5000 Du        
   3652 ****        -4.2500   2.0000  25.7500 Du        
   3653 ****        -4.2500   2.2500  16.0000 Du        
   3654 ****        -4.2500   2.2500  16.2500 Du        
   3655 ****        -4.2500   2.2500  16.5000 Du        
   3656 ****        -4.2500   2.2500  16.7500 Du        
   3657 ****        -4.2500   2.2500  17.0000 Du        
   3658 ****        -4.2500   2.2500  17.2500 Du        
   3659 ****        -4.2500   2.2500  17.5000 Du        
   3660 ****        -4.2500   2.2500  17.7500 Du        
   3661 ****        -4.2500   2.2500  18.0000 Du        
   3662 ****        -4.2500   2.2500  18.2500 Du        
   3663 ****        -4.2500   2.2500  18.5000 Du        
   3664 ****        -4.2500   2.2500  18.7500 Du        
   3665 ****        -4.2500   2.2500  19.0000 Du        
   3666 ****        -4.2500   2.2500  19.2500 Du        
   3667 ****        -4.2500   2.2500  19.5000 Du        
   3668 ****        -4.2500   2.2500  19.7500 Du        
   3669 ****        -4.2500   2.2500  20.0000 Du        
   3670 ****        -4.2500   2.2500  20.2500 Du        
   3671 ****        -4.2500   2.2500  20.5000 Du        
   3672 ****        -4.2500   2.2500  20.7500 Du        
   3673 ****        -4.2500   2.2500  24.7500 Du        
   3674 ****        -4.2500   2.2500  25.0000 Du        
   3675 ****        -4.2500   2.2500  25.2500 Du        
   3676 ****        -4.2500   2.2500  25.5000 Du        
   3677 ****        -4.2500   2.2500  25.7500 Du        
   3678 ****        -4.2500   2.2500  26.0000 Du        
   3679 ****        -4.2500   2.5000  16.2500 Du        
   3680 ****        -4.2500   2.5000  16.5000 Du        
   3681 ****        -4.2500   2.5000  16.7500 Du        
   3682 ****        -4.2500   2.5000  17.0000 Du        
   3683 ****        -4.2500   2.5000  17.2500 Du        
   3684 ****        -4.2500   2.5000  17.5000 Du        
   3685 ****        -4.2500   2.5000  17.7500 Du        
   3686 ****        -4.2500   2.5000  18.0000 Du        
   3687 ****        -4.2500   2.5000  18.2500 Du        
   3688 ****        -4.2500   2.5000  18.5000 Du        
   3689 ****        -4.2500   2.5000  18.7500 Du        
   3690 ****        -4.2500   2.5000  19.0000 Du        
   3691 ****        -4.2500   2.5000  19.2500 Du        
   3692 ****        -4.2500   2.5000  19.5000 Du        
   3693 ****        -4.2500   2.5000  19.7500 Du        
   3694 ****        -4.2500   2.5000  20.0000 Du        
   3695 ****        -4.2500   2.5000  20.2500 Du        
   3696 ****        -4.2500   2.5000  20.5000 Du        
   3697 ****        -4.2500   2.5000  20.7500 Du        
   3698 ****        -4.2500   2.5000  24.7500 Du        
   3699 ****        -4.2500   2.5000  25.0000 Du        
   3700 ****        -4.2500   2.5000  25.2500 Du        
   3701 ****        -4.2500   2.5000  25.5000 Du        
   3702 ****        -4.2500   2.5000  25.7500 Du        
   3703 ****        -4.2500   2.5000  26.0000 Du        
   3704 ****        -4.2500   2.7500  18.5000 Du        
   3705 ****        -4.2500   2.7500  18.7500 Du        
   3706 ****        -4.2500   2.7500  19.0000 Du        
   3707 ****        -4.2500   2.7500  19.2500 Du        
   3708 ****        -4.2500   2.7500  19.5000 Du        
   3709 ****        -4.2500   2.7500  19.7500 Du        
   3710 ****        -4.2500   2.7500  20.0000 Du        
   3711 ****        -4.2500   2.7500  20.2500 Du        
   3712 ****        -4.2500   2.7500  20.5000 Du        
   3713 ****        -4.2500   2.7500  24.7500 Du        
   3714 ****        -4.2500   2.7500  25.0000 Du        
   3715 ****        -4.2500   2.7500  25.2500 Du        
   3716 ****        -4.2500   2.7500  25.5000 Du        
   3717 ****        -4.2500   2.7500  25.7500 Du        
   3718 ****        -4.2500   2.7500  26.0000 Du        
   3719 ****        -4.2500   3.0000  19.0000 Du        
   3720 ****        -4.2500   3.0000  19.2500 Du        
   3721 ****        -4.2500   3.0000  19.5000 Du        
   3722 ****        -4.2500   3.0000  19.7500 Du        
   3723 ****        -4.2500   3.0000  20.0000 Du        
   3724 ****        -4.2500   3.0000  20.2500 Du        
   3725 ****        -4.2500   3.0000  20.5000 Du        
   3726 ****        -4.2500   3.0000  24.7500 Du        
   3727 ****        -4.2500   3.0000  25.0000 Du        
   3728 ****        -4.2500   3.0000  25.2500 Du        
   3729 ****        -4.2500   3.0000  25.5000 Du        
   3730 ****        -4.2500   3.0000  25.7500 Du        
   3731 ****        -4.2500   3.0000  26.0000 Du        
   3732 ****        -4.2500   3.0000  26.2500 Du        
   3733 ****        -4.2500   3.2500  19.7500 Du        
   3734 ****        -4.2500   3.2500  20.0000 Du        
   3735 ****        -4.2500   3.2500  20.2500 Du        
   3736 ****        -4.2500   3.2500  24.7500 Du        
   3737 ****        -4.2500   3.2500  25.0000 Du        
   3738 ****        -4.2500   3.2500  25.2500 Du        
   3739 ****        -4.2500   3.2500  25.5000 Du        
   3740 ****        -4.2500   3.2500  25.7500 Du        
   3741 ****        -4.2500   3.2500  26.0000 Du        
   3742 ****        -4.2500   3.2500  26.2500 Du        
   3743 ****        -4.2500   3.5000  24.7500 Du        
   3744 ****        -4.2500   3.5000  25.0000 Du        
   3745 ****        -4.2500   3.5000  25.2500 Du        
   3746 ****        -4.2500   3.5000  25.5000 Du        
   3747 ****        -4.2500   3.5000  25.7500 Du        
   3748 ****        -4.2500   3.5000  26.0000 Du        
   3749 ****        -4.2500   3.7500  24.5000 Du        
   3750 ****        -4.2500   3.7500  24.7500 Du        
   3751 ****        -4.2500   3.7500  25.0000 Du        
   3752 ****        -4.2500   3.7500  25.2500 Du        
   3753 ****        -4.2500   3.7500  25.5000 Du        
   3754 ****        -4.2500   3.7500  25.7500 Du        
   3755 ****        -4.2500   3.7500  26.0000 Du        
   3756 ****        -4.2500   4.0000  24.5000 Du        
   3757 ****        -4.2500   4.0000  24.7500 Du        
   3758 ****        -4.2500   4.0000  25.0000 Du        
   3759 ****        -4.2500   4.0000  25.2500 Du        
   3760 ****        -4.2500   4.0000  25.5000 Du        
   3761 ****        -4.2500   4.0000  25.7500 Du        
   3762 ****        -4.2500   4.0000  26.0000 Du        
   3763 ****        -4.2500   4.2500  24.5000 Du        
   3764 ****        -4.2500   4.2500  24.7500 Du        
   3765 ****        -4.2500   4.2500  25.0000 Du        
   3766 ****        -4.2500   4.2500  25.2500 Du        
   3767 ****        -4.2500   4.2500  25.5000 Du        
   3768 ****        -4.2500   4.2500  25.7500 Du        
   3769 ****        -4.2500   4.5000  24.5000 Du        
   3770 ****        -4.2500   4.5000  24.7500 Du        
   3771 ****        -4.2500   4.5000  25.0000 Du        
   3772 ****        -4.2500   4.5000  25.2500 Du        
   3773 ****        -4.2500   4.5000  25.5000 Du        
   3774 ****        -4.2500   4.5000  25.7500 Du        
   3775 ****        -4.2500   4.7500  24.5000 Du        
   3776 ****        -4.2500   4.7500  24.7500 Du        
   3777 ****        -4.2500   4.7500  25.0000 Du        
   3778 ****        -4.2500   4.7500  25.2500 Du        
   3779 ****        -4.2500   4.7500  25.5000 Du        
   3780 ****        -4.2500   4.7500  25.7500 Du        
   3781 ****        -4.2500   5.0000  24.2500 Du        
   3782 ****        -4.2500   5.0000  24.5000 Du        
   3783 ****        -4.2500   5.0000  24.7500 Du        
   3784 ****        -4.2500   5.0000  25.0000 Du        
   3785 ****        -4.2500   5.0000  25.2500 Du        
   3786 ****        -4.2500   5.0000  25.5000 Du        
   3787 ****        -4.2500   5.2500  24.0000 Du        
   3788 ****        -4.2500   5.2500  24.2500 Du        
   3789 ****        -4.2500   5.2500  24.5000 Du        
   3790 ****        -4.2500   5.2500  24.7500 Du        
   3791 ****        -4.2500   5.2500  25.0000 Du        
   3792 ****        -4.2500   5.2500  25.2500 Du        
   3793 ****        -4.2500   5.2500  25.5000 Du        
   3794 ****        -4.2500   5.5000  24.0000 Du        
   3795 ****        -4.2500   5.5000  24.2500 Du        
   3796 ****        -4.2500   5.5000  24.5000 Du        
   3797 ****        -4.2500   5.5000  24.7500 Du        
   3798 ****        -4.2500   5.5000  25.0000 Du        
   3799 ****        -4.2500   5.5000  25.2500 Du        
   3800 ****        -4.2500   5.7500  21.2500 Du        
   3801 ****        -4.2500   5.7500  21.5000 Du        
   3802 ****        -4.2500   5.7500  21.7500 Du        
   3803 ****        -4.2500   5.7500  22.0000 Du        
   3804 ****        -4.2500   5.7500  23.7500 Du        
   3805 ****        -4.2500   5.7500  24.0000 Du        
   3806 ****        -4.2500   5.7500  24.2500 Du        
   3807 ****        -4.2500   5.7500  24.5000 Du        
   3808 ****        -4.2500   5.7500  24.7500 Du        
   3809 ****        -4.2500   5.7500  25.0000 Du        
   3810 ****        -4.2500   5.7500  25.2500 Du        
   3811 ****        -4.2500   6.0000  21.2500 Du        
   3812 ****        -4.2500   6.0000  21.5000 Du        
   3813 ****        -4.2500   6.0000  21.7500 Du        
   3814 ****        -4.2500   6.0000  22.0000 Du        
   3815 ****        -4.2500   6.0000  22.2500 Du        
   3816 ****        -4.2500   6.0000  22.5000 Du        
   3817 ****        -4.2500   6.0000  22.7500 Du        
   3818 ****        -4.2500   6.0000  23.0000 Du        
   3819 ****        -4.2500   6.0000  23.2500 Du        
   3820 ****        -4.2500   6.0000  23.5000 Du        
   3821 ****        -4.2500   6.0000  23.7500 Du        
   3822 ****        -4.2500   6.0000  24.0000 Du        
   3823 ****        -4.2500   6.0000  24.2500 Du        
   3824 ****        -4.2500   6.0000  24.5000 Du        
   3825 ****        -4.2500   6.0000  24.7500 Du        
   3826 ****        -4.2500   6.0000  25.0000 Du        
   3827 ****        -4.2500   6.0000  25.2500 Du        
   3828 ****        -4.2500   6.0000  25.5000 Du        
   3829 ****        -4.2500   6.2500  21.0000 Du        
   3830 ****        -4.2500   6.2500  21.2500 Du        
   3831 ****        -4.2500   6.2500  21.5000 Du        
   3832 ****        -4.2500   6.2500  21.7500 Du        
   3833 ****        -4.2500   6.2500  22.0000 Du        
   3834 ****        -4.2500   6.2500  22.2500 Du        
   3835 ****        -4.2500   6.2500  22.5000 Du        
   3836 ****        -4.2500   6.2500  22.7500 Du        
   3837 ****        -4.2500   6.2500  23.0000 Du        
   3838 ****        -4.2500   6.2500  23.2500 Du        
   3839 ****        -4.2500   6.2500  23.5000 Du        
   3840 ****        -4.2500   6.2500  23.7500 Du        
   3841 ****        -4.2500   6.2500  24.0000 Du        
   3842 ****        -4.2500   6.2500  24.2500 Du        
   3843 ****        -4.2500   6.2500  24.5000 Du        
   3844 ****        -4.2500   6.2500  24.7500 Du        
   3845 ****        -4.2500   6.2500  25.0000 Du        
   3846 ****        -4.2500   6.2500  25.2500 Du        
   3847 ****        -4.2500   6.2500  25.5000 Du        
   3848 ****        -4.2500   6.5000  20.7500 Du        
   3849 ****        -4.2500   6.5000  21.0000 Du        
   3850 ****        -4.2500   6.5000  21.2500 Du        
   3851 ****        -4.2500   6.5000  21.5000 Du        
   3852 ****        -4.2500   6.5000  21.7500 Du        
   3853 ****        -4.2500   6.5000  22.0000 Du        
   3854 ****        -4.2500   6.5000  22.2500 Du        
   3855 ****        -4.2500   6.5000  22.5000 Du        
   3856 ****        -4.2500   6.5000  22.7500 Du        
   3857 ****        -4.2500   6.5000  23.0000 Du        
   3858 ****        -4.2500   6.5000  23.2500 Du        
   3859 ****        -4.2500   6.5000  23.5000 Du        
   3860 ****        -4.2500   6.5000  23.7500 Du        
   3861 ****        -4.2500   6.5000  24.0000 Du        
   3862 ****        -4.2500   6.5000  24.2500 Du        
   3863 ****        -4.2500   6.5000  24.5000 Du        
   3864 ****        -4.2500   6.5000  24.7500 Du        
   3865 ****        -4.2500   6.5000  25.0000 Du        
   3866 ****        -4.2500   6.5000  25.2500 Du        
   3867 ****        -4.2500   6.7500  20.7500 Du        
   3868 ****        -4.2500   6.7500  21.0000 Du        
   3869 ****        -4.2500   6.7500  21.2500 Du        
   3870 ****        -4.2500   6.7500  21.5000 Du        
   3871 ****        -4.2500   6.7500  21.7500 Du        
   3872 ****        -4.2500   6.7500  22.0000 Du        
   3873 ****        -4.2500   6.7500  22.2500 Du        
   3874 ****        -4.2500   6.7500  22.5000 Du        
   3875 ****        -4.2500   6.7500  22.7500 Du        
   3876 ****        -4.2500   6.7500  23.0000 Du        
   3877 ****        -4.2500   6.7500  23.2500 Du        
   3878 ****        -4.2500   6.7500  23.5000 Du        
   3879 ****        -4.2500   6.7500  23.7500 Du        
   3880 ****        -4.2500   6.7500  24.0000 Du        
   3881 ****        -4.2500   6.7500  24.2500 Du        
   3882 ****        -4.2500   6.7500  24.5000 Du        
   3883 ****        -4.2500   6.7500  24.7500 Du        
   3884 ****        -4.2500   6.7500  25.0000 Du        
   3885 ****        -4.2500   6.7500  25.2500 Du        
   3886 ****        -4.2500   7.0000  20.5000 Du        
   3887 ****        -4.2500   7.0000  20.7500 Du        
   3888 ****        -4.2500   7.0000  21.0000 Du        
   3889 ****        -4.2500   7.0000  21.2500 Du        
   3890 ****        -4.2500   7.0000  21.5000 Du        
   3891 ****        -4.2500   7.0000  21.7500 Du        
   3892 ****        -4.2500   7.0000  22.0000 Du        
   3893 ****        -4.2500   7.0000  22.2500 Du        
   3894 ****        -4.2500   7.0000  22.5000 Du        
   3895 ****        -4.2500   7.0000  22.7500 Du        
   3896 ****        -4.2500   7.0000  23.0000 Du        
   3897 ****        -4.2500   7.0000  23.2500 Du        
   3898 ****        -4.2500   7.0000  23.5000 Du        
   3899 ****        -4.2500   7.0000  23.7500 Du        
   3900 ****        -4.2500   7.0000  24.0000 Du        
   3901 ****        -4.2500   7.0000  24.2500 Du        
   3902 ****        -4.2500   7.0000  24.5000 Du        
   3903 ****        -4.2500   7.0000  24.7500 Du        
   3904 ****        -4.2500   7.0000  25.0000 Du        
   3905 ****        -4.2500   7.0000  25.2500 Du        
   3906 ****        -4.2500   7.2500  20.5000 Du        
   3907 ****        -4.2500   7.2500  20.7500 Du        
   3908 ****        -4.2500   7.2500  21.0000 Du        
   3909 ****        -4.2500   7.2500  21.2500 Du        
   3910 ****        -4.2500   7.2500  21.5000 Du        
   3911 ****        -4.2500   7.2500  21.7500 Du        
   3912 ****        -4.2500   7.2500  22.0000 Du        
   3913 ****        -4.2500   7.2500  22.2500 Du        
   3914 ****        -4.2500   7.2500  22.5000 Du        
   3915 ****        -4.2500   7.2500  22.7500 Du        
   3916 ****        -4.2500   7.2500  23.0000 Du        
   3917 ****        -4.2500   7.2500  23.2500 Du        
   3918 ****        -4.2500   7.2500  23.5000 Du        
   3919 ****        -4.2500   7.2500  23.7500 Du        
   3920 ****        -4.2500   7.2500  24.0000 Du        
   3921 ****        -4.2500   7.2500  24.2500 Du        
   3922 ****        -4.2500   7.2500  24.5000 Du        
   3923 ****        -4.2500   7.2500  24.7500 Du        
   3924 ****        -4.2500   7.2500  25.0000 Du        
   3925 ****        -4.2500   7.2500  25.2500 Du        
   3926 ****        -4.2500   7.5000  20.2500 Du        
   3927 ****        -4.2500   7.5000  20.5000 Du        
   3928 ****        -4.2500   7.5000  20.7500 Du        
   3929 ****        -4.2500   7.5000  21.0000 Du        
   3930 ****        -4.2500   7.5000  21.2500 Du        
   3931 ****        -4.2500   7.5000  21.5000 Du        
   3932 ****        -4.2500   7.5000  21.7500 Du        
   3933 ****        -4.2500   7.5000  22.0000 Du        
   3934 ****        -4.2500   7.5000  22.2500 Du        
   3935 ****        -4.2500   7.5000  22.5000 Du        
   3936 ****        -4.2500   7.5000  22.7500 Du        
   3937 ****        -4.2500   7.5000  23.0000 Du        
   3938 ****        -4.2500   7.5000  23.2500 Du        
   3939 ****        -4.2500   7.5000  23.5000 Du        
   3940 ****        -4.2500   7.5000  23.7500 Du        
   3941 ****        -4.2500   7.5000  24.0000 Du        
   3942 ****        -4.2500   7.5000  24.2500 Du        
   3943 ****        -4.2500   7.5000  24.5000 Du        
   3944 ****        -4.2500   7.5000  24.7500 Du        
   3945 ****        -4.2500   7.5000  25.0000 Du        
   3946 ****        -4.2500   7.5000  25.2500 Du        
   3947 ****        -4.2500   7.7500  20.2500 Du        
   3948 ****        -4.2500   7.7500  20.5000 Du        
   3949 ****        -4.2500   7.7500  20.7500 Du        
   3950 ****        -4.2500   7.7500  21.0000 Du        
   3951 ****        -4.2500   7.7500  21.2500 Du        
   3952 ****        -4.2500   7.7500  21.5000 Du        
   3953 ****        -4.2500   7.7500  21.7500 Du        
   3954 ****        -4.2500   7.7500  22.0000 Du        
   3955 ****        -4.2500   7.7500  22.2500 Du        
   3956 ****        -4.2500   7.7500  22.5000 Du        
   3957 ****        -4.2500   7.7500  22.7500 Du        
   3958 ****        -4.2500   7.7500  23.0000 Du        
   3959 ****        -4.2500   7.7500  23.2500 Du        
   3960 ****        -4.2500   7.7500  23.5000 Du        
   3961 ****        -4.2500   7.7500  23.7500 Du        
   3962 ****        -4.2500   7.7500  24.0000 Du        
   3963 ****        -4.2500   7.7500  24.2500 Du        
   3964 ****        -4.2500   7.7500  24.5000 Du        
   3965 ****        -4.2500   7.7500  24.7500 Du        
   3966 ****        -4.2500   7.7500  25.0000 Du        
   3967 ****        -4.2500   8.0000  20.0000 Du        
   3968 ****        -4.2500   8.0000  20.2500 Du        
   3969 ****        -4.2500   8.0000  20.5000 Du        
   3970 ****        -4.2500   8.0000  20.7500 Du        
   3971 ****        -4.2500   8.0000  21.0000 Du        
   3972 ****        -4.2500   8.0000  21.2500 Du        
   3973 ****        -4.2500   8.0000  21.5000 Du        
   3974 ****        -4.2500   8.0000  21.7500 Du        
   3975 ****        -4.2500   8.0000  22.0000 Du        
   3976 ****        -4.2500   8.0000  22.2500 Du        
   3977 ****        -4.2500   8.0000  22.5000 Du        
   3978 ****        -4.2500   8.0000  22.7500 Du        
   3979 ****        -4.2500   8.0000  23.0000 Du        
   3980 ****        -4.2500   8.0000  23.2500 Du        
   3981 ****        -4.2500   8.0000  23.5000 Du        
   3982 ****        -4.2500   8.0000  23.7500 Du        
   3983 ****        -4.2500   8.0000  24.0000 Du        
   3984 ****        -4.2500   8.0000  24.2500 Du        
   3985 ****        -4.2500   8.0000  24.5000 Du        
   3986 ****        -4.2500   8.0000  24.7500 Du        
   3987 ****        -4.2500   8.0000  25.0000 Du        
   3988 ****        -4.2500   8.2500  20.2500 Du        
   3989 ****        -4.2500   8.2500  20.5000 Du        
   3990 ****        -4.2500   8.2500  20.7500 Du        
   3991 ****        -4.2500   8.2500  21.0000 Du        
   3992 ****        -4.2500   8.2500  21.2500 Du        
   3993 ****        -4.2500   8.2500  21.5000 Du        
   3994 ****        -4.2500   8.2500  21.7500 Du        
   3995 ****        -4.2500   8.2500  22.0000 Du        
   3996 ****        -4.2500   8.2500  22.2500 Du        
   3997 ****        -4.2500   8.2500  22.5000 Du        
   3998 ****        -4.2500   8.2500  22.7500 Du        
   3999 ****        -4.2500   8.2500  23.0000 Du        
   4000 ****        -4.2500   8.2500  23.2500 Du        
   4001 ****        -4.2500   8.2500  23.5000 Du        
   4002 ****        -4.2500   8.2500  23.7500 Du        
   4003 ****        -4.2500   8.2500  24.0000 Du        
   4004 ****        -4.2500   8.2500  24.2500 Du        
   4005 ****        -4.2500   8.2500  24.5000 Du        
   4006 ****        -4.2500   8.2500  24.7500 Du        
   4007 ****        -4.2500   8.5000  20.5000 Du        
   4008 ****        -4.2500   8.5000  20.7500 Du        
   4009 ****        -4.2500   8.5000  21.0000 Du        
   4010 ****        -4.2500   8.5000  21.2500 Du        
   4011 ****        -4.2500   8.5000  21.5000 Du        
   4012 ****        -4.2500   8.5000  21.7500 Du        
   4013 ****        -4.2500   8.5000  22.0000 Du        
   4014 ****        -4.2500   8.5000  22.2500 Du        
   4015 ****        -4.2500   8.5000  22.5000 Du        
   4016 ****        -4.2500   8.5000  22.7500 Du        
   4017 ****        -4.2500   8.5000  23.0000 Du        
   4018 ****        -4.2500   8.5000  23.2500 Du        
   4019 ****        -4.2500   8.5000  23.5000 Du        
   4020 ****        -4.2500   8.5000  23.7500 Du        
   4021 ****        -4.2500   8.5000  24.0000 Du        
   4022 ****        -4.2500   8.5000  24.2500 Du        
   4023 ****        -4.2500   8.7500  21.0000 Du        
   4024 ****        -4.2500   8.7500  21.2500 Du        
   4025 ****        -4.2500   8.7500  21.5000 Du        
   4026 ****        -4.2500   8.7500  21.7500 Du        
   4027 ****        -4.2500   8.7500  22.0000 Du        
   4028 ****        -4.2500   8.7500  22.2500 Du        
   4029 ****        -4.2500   8.7500  22.5000 Du        
   4030 ****        -4.2500   8.7500  22.7500 Du        
   4031 ****        -4.2500   8.7500  23.0000 Du        
   4032 ****        -4.2500   8.7500  23.2500 Du        
   4033 ****        -4.2500   8.7500  23.5000 Du        
   4034 ****        -4.2500   8.7500  23.7500 Du        
   4035 ****        -4.2500   8.7500  24.0000 Du        
   4036 ****        -4.2500   8.7500  24.2500 Du        
   4037 ****        -4.2500   9.0000  21.5000 Du        
   4038 ****        -4.2500   9.0000  21.7500 Du        
   4039 ****        -4.2500   9.0000  22.0000 Du        
   4040 ****        -4.2500   9.0000  22.2500 Du        
   4041 ****        -4.2500   9.0000  22.5000 Du        
   4042 ****        -4.2500   9.0000  22.7500 Du        
   4043 ****        -4.2500   9.0000  23.0000 Du        
   4044 ****        -4.2500   9.0000  23.2500 Du        
   4045 ****        -4.2500   9.0000  23.5000 Du        
   4046 ****        -4.2500   9.0000  23.7500 Du        
   4047 ****        -4.2500   9.0000  24.0000 Du        
   4048 ****        -4.2500   9.0000  24.2500 Du        
   4049 ****        -4.2500   9.2500  21.7500 Du        
   4050 ****        -4.2500   9.2500  22.0000 Du        
   4051 ****        -4.2500   9.2500  22.2500 Du        
   4052 ****        -4.2500   9.2500  22.5000 Du        
   4053 ****        -4.2500   9.2500  22.7500 Du        
   4054 ****        -4.2500   9.2500  23.0000 Du        
   4055 ****        -4.2500   9.2500  23.2500 Du        
   4056 ****        -4.2500   9.2500  23.5000 Du        
   4057 ****        -4.2500   9.2500  23.7500 Du        
   4058 ****        -4.2500   9.5000  22.0000 Du        
   4059 ****        -4.2500   9.5000  22.2500 Du        
   4060 ****        -4.2500   9.5000  22.5000 Du        
   4061 ****        -4.2500   9.5000  22.7500 Du        
   4062 ****        -4.2500   9.5000  23.0000 Du        
   4063 ****        -4.2500   9.5000  23.2500 Du        
   4064 ****        -4.2500   9.5000  23.5000 Du        
   4065 ****        -4.2500   9.7500  22.2500 Du        
   4066 ****        -4.2500   9.7500  22.5000 Du        
   4067 ****        -4.2500   9.7500  22.7500 Du        
   4068 ****        -4.2500   9.7500  23.0000 Du        
   4069 ****        -4.2500   9.7500  23.2500 Du        
   4070 ****        -4.2500  10.0000  14.2500 Du        
   4071 ****        -4.2500  10.0000  22.5000 Du        
   4072 ****        -4.2500  10.0000  22.7500 Du        
   4073 ****        -4.2500  10.0000  23.0000 Du        
   4074 ****        -4.2500  10.0000  23.2500 Du        
   4075 ****        -4.2500  10.2500  22.7500 Du        
   4076 ****        -4.2500  10.2500  23.0000 Du        
   4077 ****        -4.0000  -9.0000  10.2500 Du        
   4078 ****        -4.0000  -9.0000  10.5000 Du        
   4079 ****        -4.0000  -9.0000  10.7500 Du        
   4080 ****        -4.0000  -9.0000  11.0000 Du        
   4081 ****        -4.0000  -9.0000  11.2500 Du        
   4082 ****        -4.0000  -9.0000  11.5000 Du        
   4083 ****        -4.0000  -9.0000  11.7500 Du        
   4084 ****        -4.0000  -9.0000  12.0000 Du        
   4085 ****        -4.0000  -9.0000  12.2500 Du        
   4086 ****        -4.0000  -8.7500  10.2500 Du        
   4087 ****        -4.0000  -8.7500  10.5000 Du        
   4088 ****        -4.0000  -8.7500  10.7500 Du        
   4089 ****        -4.0000  -8.7500  11.0000 Du        
   4090 ****        -4.0000  -8.7500  11.2500 Du        
   4091 ****        -4.0000  -8.7500  11.5000 Du        
   4092 ****        -4.0000  -8.7500  11.7500 Du        
   4093 ****        -4.0000  -8.7500  12.0000 Du        
   4094 ****        -4.0000  -8.7500  12.2500 Du        
   4095 ****        -4.0000  -8.5000  10.0000 Du        
   4096 ****        -4.0000  -8.5000  10.2500 Du        
   4097 ****        -4.0000  -8.5000  10.5000 Du        
   4098 ****        -4.0000  -8.5000  10.7500 Du        
   4099 ****        -4.0000  -8.5000  11.0000 Du        
   4100 ****        -4.0000  -8.5000  11.2500 Du        
   4101 ****        -4.0000  -8.5000  11.5000 Du        
   4102 ****        -4.0000  -8.5000  11.7500 Du        
   4103 ****        -4.0000  -8.5000  12.0000 Du        
   4104 ****        -4.0000  -8.5000  12.2500 Du        
   4105 ****        -4.0000  -8.2500   9.5000 Du        
   4106 ****        -4.0000  -8.2500   9.7500 Du        
   4107 ****        -4.0000  -8.2500  10.0000 Du        
   4108 ****        -4.0000  -8.2500  10.2500 Du        
   4109 ****        -4.0000  -8.2500  10.5000 Du        
   4110 ****        -4.0000  -8.2500  10.7500 Du        
   4111 ****        -4.0000  -8.2500  11.0000 Du        
   4112 ****        -4.0000  -8.2500  11.2500 Du        
   4113 ****        -4.0000  -8.2500  11.5000 Du        
   4114 ****        -4.0000  -8.2500  11.7500 Du        
   4115 ****        -4.0000  -8.2500  12.0000 Du        
   4116 ****        -4.0000  -8.2500  12.2500 Du        
   4117 ****        -4.0000  -8.0000   9.0000 Du        
   4118 ****        -4.0000  -8.0000   9.2500 Du        
   4119 ****        -4.0000  -8.0000   9.5000 Du        
   4120 ****        -4.0000  -8.0000   9.7500 Du        
   4121 ****        -4.0000  -8.0000  10.0000 Du        
   4122 ****        -4.0000  -8.0000  10.2500 Du        
   4123 ****        -4.0000  -8.0000  10.5000 Du        
   4124 ****        -4.0000  -8.0000  10.7500 Du        
   4125 ****        -4.0000  -8.0000  11.0000 Du        
   4126 ****        -4.0000  -8.0000  11.2500 Du        
   4127 ****        -4.0000  -8.0000  11.5000 Du        
   4128 ****        -4.0000  -8.0000  11.7500 Du        
   4129 ****        -4.0000  -8.0000  12.0000 Du        
   4130 ****        -4.0000  -8.0000  12.2500 Du        
   4131 ****        -4.0000  -8.0000  12.5000 Du        
   4132 ****        -4.0000  -7.7500   8.5000 Du        
   4133 ****        -4.0000  -7.7500   8.7500 Du        
   4134 ****        -4.0000  -7.7500   9.0000 Du        
   4135 ****        -4.0000  -7.7500   9.2500 Du        
   4136 ****        -4.0000  -7.7500   9.5000 Du        
   4137 ****        -4.0000  -7.7500   9.7500 Du        
   4138 ****        -4.0000  -7.7500  10.0000 Du        
   4139 ****        -4.0000  -7.7500  10.2500 Du        
   4140 ****        -4.0000  -7.7500  10.5000 Du        
   4141 ****        -4.0000  -7.7500  10.7500 Du        
   4142 ****        -4.0000  -7.7500  11.0000 Du        
   4143 ****        -4.0000  -7.7500  11.2500 Du        
   4144 ****        -4.0000  -7.7500  11.5000 Du        
   4145 ****        -4.0000  -7.7500  11.7500 Du        
   4146 ****        -4.0000  -7.7500  12.0000 Du        
   4147 ****        -4.0000  -7.7500  12.2500 Du        
   4148 ****        -4.0000  -7.5000   8.5000 Du        
   4149 ****        -4.0000  -7.5000   8.7500 Du        
   4150 ****        -4.0000  -7.5000   9.0000 Du        
   4151 ****        -4.0000  -7.5000   9.2500 Du        
   4152 ****        -4.0000  -7.5000   9.5000 Du        
   4153 ****        -4.0000  -7.5000   9.7500 Du        
   4154 ****        -4.0000  -7.5000  10.0000 Du        
   4155 ****        -4.0000  -7.5000  10.2500 Du        
   4156 ****        -4.0000  -7.5000  10.5000 Du        
   4157 ****        -4.0000  -7.5000  10.7500 Du        
   4158 ****        -4.0000  -7.2500   8.2500 Du        
   4159 ****        -4.0000  -7.2500   8.5000 Du        
   4160 ****        -4.0000  -7.2500   8.7500 Du        
   4161 ****        -4.0000  -7.2500   9.0000 Du        
   4162 ****        -4.0000  -7.2500   9.2500 Du        
   4163 ****        -4.0000  -7.2500   9.5000 Du        
   4164 ****        -4.0000  -7.2500   9.7500 Du        
   4165 ****        -4.0000  -7.2500  10.0000 Du        
   4166 ****        -4.0000  -7.2500  10.2500 Du        
   4167 ****        -4.0000  -7.0000   8.2500 Du        
   4168 ****        -4.0000  -7.0000   8.5000 Du        
   4169 ****        -4.0000  -7.0000   8.7500 Du        
   4170 ****        -4.0000  -7.0000   9.0000 Du        
   4171 ****        -4.0000  -7.0000   9.2500 Du        
   4172 ****        -4.0000  -7.0000   9.5000 Du        
   4173 ****        -4.0000  -7.0000   9.7500 Du        
   4174 ****        -4.0000  -6.7500   8.2500 Du        
   4175 ****        -4.0000  -6.7500   8.5000 Du        
   4176 ****        -4.0000  -6.7500   8.7500 Du        
   4177 ****        -4.0000  -6.7500   9.0000 Du        
   4178 ****        -4.0000  -6.7500   9.2500 Du        
   4179 ****        -4.0000  -6.5000   8.2500 Du        
   4180 ****        -4.0000  -6.5000   8.5000 Du        
   4181 ****        -4.0000  -6.5000   8.7500 Du        
   4182 ****        -4.0000  -6.5000   9.0000 Du        
   4183 ****        -4.0000  -6.2500   8.2500 Du        
   4184 ****        -4.0000  -6.2500   8.5000 Du        
   4185 ****        -4.0000  -6.2500   8.7500 Du        
   4186 ****        -4.0000  -6.0000   8.0000 Du        
   4187 ****        -4.0000  -6.0000   8.2500 Du        
   4188 ****        -4.0000  -6.0000   8.5000 Du        
   4189 ****        -4.0000  -5.7500   8.0000 Du        
   4190 ****        -4.0000  -5.7500   8.2500 Du        
   4191 ****        -4.0000  -5.5000   8.0000 Du        
   4192 ****        -4.0000  -5.0000   7.7500 Du        
   4193 ****        -4.0000  -4.7500   7.5000 Du        
   4194 ****        -4.0000  -4.7500   7.7500 Du        
   4195 ****        -4.0000  -2.2500  20.7500 Du        
   4196 ****        -4.0000  -2.0000  20.5000 Du        
   4197 ****        -4.0000  -2.0000  20.7500 Du        
   4198 ****        -4.0000  -2.0000  21.0000 Du        
   4199 ****        -4.0000  -2.0000  21.2500 Du        
   4200 ****        -4.0000  -2.0000  21.5000 Du        
   4201 ****        -4.0000  -2.0000  27.0000 Du        
   4202 ****        -4.0000  -2.0000  27.2500 Du        
   4203 ****        -4.0000  -2.0000  27.5000 Du        
   4204 ****        -4.0000  -2.0000  27.7500 Du        
   4205 ****        -4.0000  -2.0000  28.0000 Du        
   4206 ****        -4.0000  -1.7500  20.2500 Du        
   4207 ****        -4.0000  -1.7500  20.5000 Du        
   4208 ****        -4.0000  -1.7500  20.7500 Du        
   4209 ****        -4.0000  -1.7500  21.0000 Du        
   4210 ****        -4.0000  -1.7500  21.2500 Du        
   4211 ****        -4.0000  -1.7500  21.5000 Du        
   4212 ****        -4.0000  -1.7500  21.7500 Du        
   4213 ****        -4.0000  -1.7500  22.0000 Du        
   4214 ****        -4.0000  -1.7500  22.2500 Du        
   4215 ****        -4.0000  -1.7500  26.0000 Du        
   4216 ****        -4.0000  -1.7500  26.2500 Du        
   4217 ****        -4.0000  -1.7500  26.5000 Du        
   4218 ****        -4.0000  -1.7500  26.7500 Du        
   4219 ****        -4.0000  -1.7500  27.0000 Du        
   4220 ****        -4.0000  -1.7500  27.2500 Du        
   4221 ****        -4.0000  -1.7500  27.5000 Du        
   4222 ****        -4.0000  -1.7500  27.7500 Du        
   4223 ****        -4.0000  -1.5000  20.2500 Du        
   4224 ****        -4.0000  -1.5000  20.5000 Du        
   4225 ****        -4.0000  -1.5000  20.7500 Du        
   4226 ****        -4.0000  -1.5000  21.0000 Du        
   4227 ****        -4.0000  -1.5000  21.2500 Du        
   4228 ****        -4.0000  -1.5000  21.5000 Du        
   4229 ****        -4.0000  -1.5000  21.7500 Du        
   4230 ****        -4.0000  -1.5000  22.0000 Du        
   4231 ****        -4.0000  -1.5000  22.2500 Du        
   4232 ****        -4.0000  -1.5000  22.5000 Du        
   4233 ****        -4.0000  -1.5000  22.7500 Du        
   4234 ****        -4.0000  -1.5000  23.0000 Du        
   4235 ****        -4.0000  -1.5000  23.2500 Du        
   4236 ****        -4.0000  -1.5000  23.5000 Du        
   4237 ****        -4.0000  -1.5000  23.7500 Du        
   4238 ****        -4.0000  -1.5000  24.0000 Du        
   4239 ****        -4.0000  -1.5000  24.2500 Du        
   4240 ****        -4.0000  -1.5000  24.5000 Du        
   4241 ****        -4.0000  -1.5000  24.7500 Du        
   4242 ****        -4.0000  -1.5000  25.0000 Du        
   4243 ****        -4.0000  -1.5000  25.2500 Du        
   4244 ****        -4.0000  -1.5000  25.5000 Du        
   4245 ****        -4.0000  -1.5000  25.7500 Du        
   4246 ****        -4.0000  -1.5000  26.0000 Du        
   4247 ****        -4.0000  -1.5000  26.2500 Du        
   4248 ****        -4.0000  -1.5000  26.5000 Du        
   4249 ****        -4.0000  -1.5000  26.7500 Du        
   4250 ****        -4.0000  -1.5000  27.0000 Du        
   4251 ****        -4.0000  -1.5000  27.2500 Du        
   4252 ****        -4.0000  -1.2500  20.0000 Du        
   4253 ****        -4.0000  -1.2500  20.2500 Du        
   4254 ****        -4.0000  -1.2500  20.5000 Du        
   4255 ****        -4.0000  -1.2500  20.7500 Du        
   4256 ****        -4.0000  -1.2500  21.0000 Du        
   4257 ****        -4.0000  -1.2500  21.2500 Du        
   4258 ****        -4.0000  -1.2500  21.5000 Du        
   4259 ****        -4.0000  -1.2500  21.7500 Du        
   4260 ****        -4.0000  -1.2500  22.0000 Du        
   4261 ****        -4.0000  -1.2500  22.2500 Du        
   4262 ****        -4.0000  -1.2500  22.5000 Du        
   4263 ****        -4.0000  -1.2500  22.7500 Du        
   4264 ****        -4.0000  -1.2500  23.0000 Du        
   4265 ****        -4.0000  -1.2500  23.2500 Du        
   4266 ****        -4.0000  -1.2500  23.5000 Du        
   4267 ****        -4.0000  -1.2500  23.7500 Du        
   4268 ****        -4.0000  -1.2500  24.0000 Du        
   4269 ****        -4.0000  -1.2500  24.2500 Du        
   4270 ****        -4.0000  -1.2500  24.5000 Du        
   4271 ****        -4.0000  -1.2500  24.7500 Du        
   4272 ****        -4.0000  -1.2500  25.0000 Du        
   4273 ****        -4.0000  -1.2500  25.2500 Du        
   4274 ****        -4.0000  -1.2500  25.5000 Du        
   4275 ****        -4.0000  -1.2500  25.7500 Du        
   4276 ****        -4.0000  -1.2500  26.0000 Du        
   4277 ****        -4.0000  -1.2500  26.2500 Du        
   4278 ****        -4.0000  -1.2500  26.5000 Du        
   4279 ****        -4.0000  -1.2500  26.7500 Du        
   4280 ****        -4.0000  -1.2500  27.0000 Du        
   4281 ****        -4.0000  -1.2500  27.2500 Du        
   4282 ****        -4.0000  -1.0000  20.0000 Du        
   4283 ****        -4.0000  -1.0000  20.2500 Du        
   4284 ****        -4.0000  -1.0000  20.5000 Du        
   4285 ****        -4.0000  -1.0000  20.7500 Du        
   4286 ****        -4.0000  -1.0000  21.0000 Du        
   4287 ****        -4.0000  -1.0000  21.2500 Du        
   4288 ****        -4.0000  -1.0000  21.5000 Du        
   4289 ****        -4.0000  -1.0000  21.7500 Du        
   4290 ****        -4.0000  -1.0000  22.0000 Du        
   4291 ****        -4.0000  -1.0000  22.2500 Du        
   4292 ****        -4.0000  -1.0000  22.5000 Du        
   4293 ****        -4.0000  -1.0000  22.7500 Du        
   4294 ****        -4.0000  -1.0000  23.0000 Du        
   4295 ****        -4.0000  -1.0000  23.2500 Du        
   4296 ****        -4.0000  -1.0000  23.5000 Du        
   4297 ****        -4.0000  -1.0000  23.7500 Du        
   4298 ****        -4.0000  -1.0000  24.0000 Du        
   4299 ****        -4.0000  -1.0000  24.2500 Du        
   4300 ****        -4.0000  -1.0000  24.5000 Du        
   4301 ****        -4.0000  -1.0000  24.7500 Du        
   4302 ****        -4.0000  -1.0000  25.0000 Du        
   4303 ****        -4.0000  -1.0000  25.2500 Du        
   4304 ****        -4.0000  -1.0000  25.5000 Du        
   4305 ****        -4.0000  -1.0000  25.7500 Du        
   4306 ****        -4.0000  -1.0000  26.0000 Du        
   4307 ****        -4.0000  -1.0000  26.2500 Du        
   4308 ****        -4.0000  -1.0000  26.5000 Du        
   4309 ****        -4.0000  -1.0000  26.7500 Du        
   4310 ****        -4.0000  -1.0000  27.0000 Du        
   4311 ****        -4.0000  -1.0000  27.2500 Du        
   4312 ****        -4.0000  -0.7500  19.7500 Du        
   4313 ****        -4.0000  -0.7500  20.0000 Du        
   4314 ****        -4.0000  -0.7500  20.2500 Du        
   4315 ****        -4.0000  -0.7500  20.5000 Du        
   4316 ****        -4.0000  -0.7500  20.7500 Du        
   4317 ****        -4.0000  -0.7500  21.0000 Du        
   4318 ****        -4.0000  -0.7500  21.2500 Du        
   4319 ****        -4.0000  -0.7500  21.5000 Du        
   4320 ****        -4.0000  -0.7500  21.7500 Du        
   4321 ****        -4.0000  -0.7500  22.0000 Du        
   4322 ****        -4.0000  -0.7500  22.2500 Du        
   4323 ****        -4.0000  -0.7500  22.5000 Du        
   4324 ****        -4.0000  -0.7500  22.7500 Du        
   4325 ****        -4.0000  -0.7500  23.0000 Du        
   4326 ****        -4.0000  -0.7500  23.2500 Du        
   4327 ****        -4.0000  -0.7500  23.5000 Du        
   4328 ****        -4.0000  -0.7500  23.7500 Du        
   4329 ****        -4.0000  -0.7500  24.0000 Du        
   4330 ****        -4.0000  -0.7500  24.2500 Du        
   4331 ****        -4.0000  -0.7500  24.5000 Du        
   4332 ****        -4.0000  -0.7500  24.7500 Du        
   4333 ****        -4.0000  -0.7500  25.0000 Du        
   4334 ****        -4.0000  -0.7500  25.2500 Du        
   4335 ****        -4.0000  -0.7500  25.5000 Du        
   4336 ****        -4.0000  -0.7500  25.7500 Du        
   4337 ****        -4.0000  -0.7500  26.0000 Du        
   4338 ****        -4.0000  -0.7500  26.2500 Du        
   4339 ****        -4.0000  -0.7500  26.5000 Du        
   4340 ****        -4.0000  -0.7500  26.7500 Du        
   4341 ****        -4.0000  -0.7500  27.0000 Du        
   4342 ****        -4.0000  -0.5000  19.7500 Du        
   4343 ****        -4.0000  -0.5000  20.0000 Du        
   4344 ****        -4.0000  -0.5000  20.2500 Du        
   4345 ****        -4.0000  -0.5000  20.5000 Du        
   4346 ****        -4.0000  -0.5000  20.7500 Du        
   4347 ****        -4.0000  -0.5000  21.0000 Du        
   4348 ****        -4.0000  -0.5000  21.2500 Du        
   4349 ****        -4.0000  -0.5000  21.5000 Du        
   4350 ****        -4.0000  -0.5000  23.2500 Du        
   4351 ****        -4.0000  -0.5000  23.5000 Du        
   4352 ****        -4.0000  -0.5000  23.7500 Du        
   4353 ****        -4.0000  -0.5000  24.0000 Du        
   4354 ****        -4.0000  -0.5000  24.2500 Du        
   4355 ****        -4.0000  -0.5000  24.5000 Du        
   4356 ****        -4.0000  -0.5000  24.7500 Du        
   4357 ****        -4.0000  -0.5000  25.0000 Du        
   4358 ****        -4.0000  -0.5000  25.2500 Du        
   4359 ****        -4.0000  -0.5000  25.5000 Du        
   4360 ****        -4.0000  -0.5000  25.7500 Du        
   4361 ****        -4.0000  -0.5000  26.0000 Du        
   4362 ****        -4.0000  -0.5000  26.2500 Du        
   4363 ****        -4.0000  -0.2500  19.5000 Du        
   4364 ****        -4.0000  -0.2500  19.7500 Du        
   4365 ****        -4.0000  -0.2500  20.0000 Du        
   4366 ****        -4.0000  -0.2500  20.2500 Du        
   4367 ****        -4.0000  -0.2500  20.5000 Du        
   4368 ****        -4.0000  -0.2500  20.7500 Du        
   4369 ****        -4.0000  -0.2500  21.0000 Du        
   4370 ****        -4.0000  -0.2500  21.2500 Du        
   4371 ****        -4.0000  -0.2500  23.7500 Du        
   4372 ****        -4.0000  -0.2500  24.0000 Du        
   4373 ****        -4.0000  -0.2500  24.2500 Du        
   4374 ****        -4.0000  -0.2500  24.5000 Du        
   4375 ****        -4.0000  -0.2500  24.7500 Du        
   4376 ****        -4.0000  -0.2500  25.0000 Du        
   4377 ****        -4.0000  -0.2500  25.2500 Du        
   4378 ****        -4.0000  -0.2500  25.5000 Du        
   4379 ****        -4.0000  -0.2500  25.7500 Du        
   4380 ****        -4.0000  -0.2500  26.0000 Du        
   4381 ****        -4.0000  -0.2500  26.2500 Du        
   4382 ****        -4.0000   0.0000  19.2500 Du        
   4383 ****        -4.0000   0.0000  19.5000 Du        
   4384 ****        -4.0000   0.0000  19.7500 Du        
   4385 ****        -4.0000   0.0000  20.0000 Du        
   4386 ****        -4.0000   0.0000  20.2500 Du        
   4387 ****        -4.0000   0.0000  20.5000 Du        
   4388 ****        -4.0000   0.0000  20.7500 Du        
   4389 ****        -4.0000   0.0000  21.0000 Du        
   4390 ****        -4.0000   0.0000  24.0000 Du        
   4391 ****        -4.0000   0.0000  24.2500 Du        
   4392 ****        -4.0000   0.0000  24.5000 Du        
   4393 ****        -4.0000   0.0000  24.7500 Du        
   4394 ****        -4.0000   0.0000  25.0000 Du        
   4395 ****        -4.0000   0.0000  25.2500 Du        
   4396 ****        -4.0000   0.0000  25.5000 Du        
   4397 ****        -4.0000   0.0000  25.7500 Du        
   4398 ****        -4.0000   0.0000  26.0000 Du        
   4399 ****        -4.0000   0.0000  26.2500 Du        
   4400 ****        -4.0000   0.2500  19.0000 Du        
   4401 ****        -4.0000   0.2500  19.2500 Du        
   4402 ****        -4.0000   0.2500  19.5000 Du        
   4403 ****        -4.0000   0.2500  19.7500 Du        
   4404 ****        -4.0000   0.2500  20.0000 Du        
   4405 ****        -4.0000   0.2500  20.2500 Du        
   4406 ****        -4.0000   0.2500  20.5000 Du        
   4407 ****        -4.0000   0.2500  20.7500 Du        
   4408 ****        -4.0000   0.2500  21.0000 Du        
   4409 ****        -4.0000   0.2500  24.2500 Du        
   4410 ****        -4.0000   0.2500  24.5000 Du        
   4411 ****        -4.0000   0.2500  24.7500 Du        
   4412 ****        -4.0000   0.2500  25.0000 Du        
   4413 ****        -4.0000   0.2500  25.2500 Du        
   4414 ****        -4.0000   0.2500  25.5000 Du        
   4415 ****        -4.0000   0.2500  25.7500 Du        
   4416 ****        -4.0000   0.2500  26.0000 Du        
   4417 ****        -4.0000   0.5000  18.7500 Du        
   4418 ****        -4.0000   0.5000  19.0000 Du        
   4419 ****        -4.0000   0.5000  19.2500 Du        
   4420 ****        -4.0000   0.5000  19.5000 Du        
   4421 ****        -4.0000   0.5000  19.7500 Du        
   4422 ****        -4.0000   0.5000  20.0000 Du        
   4423 ****        -4.0000   0.5000  20.2500 Du        
   4424 ****        -4.0000   0.5000  20.5000 Du        
   4425 ****        -4.0000   0.5000  20.7500 Du        
   4426 ****        -4.0000   0.5000  24.5000 Du        
   4427 ****        -4.0000   0.5000  24.7500 Du        
   4428 ****        -4.0000   0.5000  25.0000 Du        
   4429 ****        -4.0000   0.5000  25.2500 Du        
   4430 ****        -4.0000   0.5000  25.5000 Du        
   4431 ****        -4.0000   0.5000  25.7500 Du        
   4432 ****        -4.0000   0.5000  26.0000 Du        
   4433 ****        -4.0000   0.7500  18.2500 Du        
   4434 ****        -4.0000   0.7500  18.5000 Du        
   4435 ****        -4.0000   0.7500  18.7500 Du        
   4436 ****        -4.0000   0.7500  19.0000 Du        
   4437 ****        -4.0000   0.7500  19.2500 Du        
   4438 ****        -4.0000   0.7500  19.5000 Du        
   4439 ****        -4.0000   0.7500  19.7500 Du        
   4440 ****        -4.0000   0.7500  20.0000 Du        
   4441 ****        -4.0000   0.7500  20.2500 Du        
   4442 ****        -4.0000   0.7500  20.5000 Du        
   4443 ****        -4.0000   0.7500  20.7500 Du        
   4444 ****        -4.0000   0.7500  24.5000 Du        
   4445 ****        -4.0000   0.7500  24.7500 Du        
   4446 ****        -4.0000   0.7500  25.0000 Du        
   4447 ****        -4.0000   0.7500  25.2500 Du        
   4448 ****        -4.0000   0.7500  25.5000 Du        
   4449 ****        -4.0000   0.7500  25.7500 Du        
   4450 ****        -4.0000   0.7500  26.0000 Du        
   4451 ****        -4.0000   1.0000  17.7500 Du        
   4452 ****        -4.0000   1.0000  18.0000 Du        
   4453 ****        -4.0000   1.0000  18.2500 Du        
   4454 ****        -4.0000   1.0000  18.5000 Du        
   4455 ****        -4.0000   1.0000  18.7500 Du        
   4456 ****        -4.0000   1.0000  19.0000 Du        
   4457 ****        -4.0000   1.0000  19.2500 Du        
   4458 ****        -4.0000   1.0000  19.5000 Du        
   4459 ****        -4.0000   1.0000  19.7500 Du        
   4460 ****        -4.0000   1.0000  20.0000 Du        
   4461 ****        -4.0000   1.0000  20.2500 Du        
   4462 ****        -4.0000   1.0000  20.5000 Du        
   4463 ****        -4.0000   1.0000  20.7500 Du        
   4464 ****        -4.0000   1.0000  24.5000 Du        
   4465 ****        -4.0000   1.0000  24.7500 Du        
   4466 ****        -4.0000   1.0000  25.0000 Du        
   4467 ****        -4.0000   1.0000  25.2500 Du        
   4468 ****        -4.0000   1.0000  25.5000 Du        
   4469 ****        -4.0000   1.0000  25.7500 Du        
   4470 ****        -4.0000   1.0000  26.0000 Du        
   4471 ****        -4.0000   1.2500  16.0000 Du        
   4472 ****        -4.0000   1.2500  16.2500 Du        
   4473 ****        -4.0000   1.2500  16.5000 Du        
   4474 ****        -4.0000   1.2500  16.7500 Du        
   4475 ****        -4.0000   1.2500  17.0000 Du        
   4476 ****        -4.0000   1.2500  17.2500 Du        
   4477 ****        -4.0000   1.2500  17.5000 Du        
   4478 ****        -4.0000   1.2500  17.7500 Du        
   4479 ****        -4.0000   1.2500  18.0000 Du        
   4480 ****        -4.0000   1.2500  18.2500 Du        
   4481 ****        -4.0000   1.2500  18.5000 Du        
   4482 ****        -4.0000   1.2500  18.7500 Du        
   4483 ****        -4.0000   1.2500  19.0000 Du        
   4484 ****        -4.0000   1.2500  19.2500 Du        
   4485 ****        -4.0000   1.2500  19.5000 Du        
   4486 ****        -4.0000   1.2500  19.7500 Du        
   4487 ****        -4.0000   1.2500  20.0000 Du        
   4488 ****        -4.0000   1.2500  20.2500 Du        
   4489 ****        -4.0000   1.2500  20.5000 Du        
   4490 ****        -4.0000   1.2500  20.7500 Du        
   4491 ****        -4.0000   1.2500  24.7500 Du        
   4492 ****        -4.0000   1.2500  25.0000 Du        
   4493 ****        -4.0000   1.2500  25.2500 Du        
   4494 ****        -4.0000   1.2500  25.5000 Du        
   4495 ****        -4.0000   1.2500  25.7500 Du        
   4496 ****        -4.0000   1.2500  26.0000 Du        
   4497 ****        -4.0000   1.5000  16.0000 Du        
   4498 ****        -4.0000   1.5000  16.2500 Du        
   4499 ****        -4.0000   1.5000  16.5000 Du        
   4500 ****        -4.0000   1.5000  16.7500 Du        
   4501 ****        -4.0000   1.5000  17.0000 Du        
   4502 ****        -4.0000   1.5000  17.2500 Du        
   4503 ****        -4.0000   1.5000  17.5000 Du        
   4504 ****        -4.0000   1.5000  17.7500 Du        
   4505 ****        -4.0000   1.5000  18.0000 Du        
   4506 ****        -4.0000   1.5000  18.2500 Du        
   4507 ****        -4.0000   1.5000  18.5000 Du        
   4508 ****        -4.0000   1.5000  18.7500 Du        
   4509 ****        -4.0000   1.5000  19.0000 Du        
   4510 ****        -4.0000   1.5000  19.2500 Du        
   4511 ****        -4.0000   1.5000  19.5000 Du        
   4512 ****        -4.0000   1.5000  19.7500 Du        
   4513 ****        -4.0000   1.5000  20.0000 Du        
   4514 ****        -4.0000   1.5000  20.2500 Du        
   4515 ****        -4.0000   1.5000  20.5000 Du        
   4516 ****        -4.0000   1.5000  20.7500 Du        
   4517 ****        -4.0000   1.5000  24.7500 Du        
   4518 ****        -4.0000   1.5000  25.0000 Du        
   4519 ****        -4.0000   1.5000  25.2500 Du        
   4520 ****        -4.0000   1.5000  25.5000 Du        
   4521 ****        -4.0000   1.5000  25.7500 Du        
   4522 ****        -4.0000   1.7500  15.7500 Du        
   4523 ****        -4.0000   1.7500  16.0000 Du        
   4524 ****        -4.0000   1.7500  16.2500 Du        
   4525 ****        -4.0000   1.7500  16.5000 Du        
   4526 ****        -4.0000   1.7500  16.7500 Du        
   4527 ****        -4.0000   1.7500  17.0000 Du        
   4528 ****        -4.0000   1.7500  17.2500 Du        
   4529 ****        -4.0000   1.7500  17.5000 Du        
   4530 ****        -4.0000   1.7500  17.7500 Du        
   4531 ****        -4.0000   1.7500  18.0000 Du        
   4532 ****        -4.0000   1.7500  18.2500 Du        
   4533 ****        -4.0000   1.7500  18.5000 Du        
   4534 ****        -4.0000   1.7500  18.7500 Du        
   4535 ****        -4.0000   1.7500  19.0000 Du        
   4536 ****        -4.0000   1.7500  19.2500 Du        
   4537 ****        -4.0000   1.7500  19.5000 Du        
   4538 ****        -4.0000   1.7500  19.7500 Du        
   4539 ****        -4.0000   1.7500  20.0000 Du        
   4540 ****        -4.0000   1.7500  20.2500 Du        
   4541 ****        -4.0000   1.7500  20.5000 Du        
   4542 ****        -4.0000   1.7500  20.7500 Du        
   4543 ****        -4.0000   1.7500  24.7500 Du        
   4544 ****        -4.0000   1.7500  25.0000 Du        
   4545 ****        -4.0000   1.7500  25.2500 Du        
   4546 ****        -4.0000   1.7500  25.5000 Du        
   4547 ****        -4.0000   1.7500  25.7500 Du        
   4548 ****        -4.0000   2.0000  16.0000 Du        
   4549 ****        -4.0000   2.0000  16.2500 Du        
   4550 ****        -4.0000   2.0000  16.5000 Du        
   4551 ****        -4.0000   2.0000  16.7500 Du        
   4552 ****        -4.0000   2.0000  17.0000 Du        
   4553 ****        -4.0000   2.0000  17.2500 Du        
   4554 ****        -4.0000   2.0000  17.5000 Du        
   4555 ****        -4.0000   2.0000  17.7500 Du        
   4556 ****        -4.0000   2.0000  18.0000 Du        
   4557 ****        -4.0000   2.0000  18.2500 Du        
   4558 ****        -4.0000   2.0000  18.5000 Du        
   4559 ****        -4.0000   2.0000  18.7500 Du        
   4560 ****        -4.0000   2.0000  19.0000 Du        
   4561 ****        -4.0000   2.0000  19.2500 Du        
   4562 ****        -4.0000   2.0000  19.5000 Du        
   4563 ****        -4.0000   2.0000  19.7500 Du        
   4564 ****        -4.0000   2.0000  20.0000 Du        
   4565 ****        -4.0000   2.0000  20.2500 Du        
   4566 ****        -4.0000   2.0000  20.5000 Du        
   4567 ****        -4.0000   2.0000  20.7500 Du        
   4568 ****        -4.0000   2.0000  24.7500 Du        
   4569 ****        -4.0000   2.0000  25.0000 Du        
   4570 ****        -4.0000   2.0000  25.2500 Du        
   4571 ****        -4.0000   2.0000  25.5000 Du        
   4572 ****        -4.0000   2.0000  25.7500 Du        
   4573 ****        -4.0000   2.0000  26.0000 Du        
   4574 ****        -4.0000   2.2500  16.0000 Du        
   4575 ****        -4.0000   2.2500  16.2500 Du        
   4576 ****        -4.0000   2.2500  16.5000 Du        
   4577 ****        -4.0000   2.2500  16.7500 Du        
   4578 ****        -4.0000   2.2500  17.0000 Du        
   4579 ****        -4.0000   2.2500  17.2500 Du        
   4580 ****        -4.0000   2.2500  17.5000 Du        
   4581 ****        -4.0000   2.2500  17.7500 Du        
   4582 ****        -4.0000   2.2500  18.0000 Du        
   4583 ****        -4.0000   2.2500  18.2500 Du        
   4584 ****        -4.0000   2.2500  18.5000 Du        
   4585 ****        -4.0000   2.2500  18.7500 Du        
   4586 ****        -4.0000   2.2500  19.0000 Du        
   4587 ****        -4.0000   2.2500  19.2500 Du        
   4588 ****        -4.0000   2.2500  19.5000 Du        
   4589 ****        -4.0000   2.2500  19.7500 Du        
   4590 ****        -4.0000   2.2500  20.0000 Du        
   4591 ****        -4.0000   2.2500  20.2500 Du        
   4592 ****        -4.0000   2.2500  20.5000 Du        
   4593 ****        -4.0000   2.2500  20.7500 Du        
   4594 ****        -4.0000   2.2500  24.5000 Du        
   4595 ****        -4.0000   2.2500  24.7500 Du        
   4596 ****        -4.0000   2.2500  25.0000 Du        
   4597 ****        -4.0000   2.2500  25.2500 Du        
   4598 ****        -4.0000   2.2500  25.5000 Du        
   4599 ****        -4.0000   2.2500  25.7500 Du        
   4600 ****        -4.0000   2.2500  26.0000 Du        
   4601 ****        -4.0000   2.2500  26.2500 Du        
   4602 ****        -4.0000   2.5000  16.0000 Du        
   4603 ****        -4.0000   2.5000  16.2500 Du        
   4604 ****        -4.0000   2.5000  16.5000 Du        
   4605 ****        -4.0000   2.5000  16.7500 Du        
   4606 ****        -4.0000   2.5000  17.0000 Du        
   4607 ****        -4.0000   2.5000  17.2500 Du        
   4608 ****        -4.0000   2.5000  17.5000 Du        
   4609 ****        -4.0000   2.5000  17.7500 Du        
   4610 ****        -4.0000   2.5000  18.0000 Du        
   4611 ****        -4.0000   2.5000  18.2500 Du        
   4612 ****        -4.0000   2.5000  18.5000 Du        
   4613 ****        -4.0000   2.5000  18.7500 Du        
   4614 ****        -4.0000   2.5000  19.0000 Du        
   4615 ****        -4.0000   2.5000  19.2500 Du        
   4616 ****        -4.0000   2.5000  19.5000 Du        
   4617 ****        -4.0000   2.5000  19.7500 Du        
   4618 ****        -4.0000   2.5000  20.0000 Du        
   4619 ****        -4.0000   2.5000  20.2500 Du        
   4620 ****        -4.0000   2.5000  20.5000 Du        
   4621 ****        -4.0000   2.5000  24.5000 Du        
   4622 ****        -4.0000   2.5000  24.7500 Du        
   4623 ****        -4.0000   2.5000  25.0000 Du        
   4624 ****        -4.0000   2.5000  25.2500 Du        
   4625 ****        -4.0000   2.5000  25.5000 Du        
   4626 ****        -4.0000   2.5000  25.7500 Du        
   4627 ****        -4.0000   2.5000  26.0000 Du        
   4628 ****        -4.0000   2.5000  26.2500 Du        
   4629 ****        -4.0000   2.7500  16.5000 Du        
   4630 ****        -4.0000   2.7500  16.7500 Du        
   4631 ****        -4.0000   2.7500  17.0000 Du        
   4632 ****        -4.0000   2.7500  17.2500 Du        
   4633 ****        -4.0000   2.7500  17.5000 Du        
   4634 ****        -4.0000   2.7500  17.7500 Du        
   4635 ****        -4.0000   2.7500  18.0000 Du        
   4636 ****        -4.0000   2.7500  18.2500 Du        
   4637 ****        -4.0000   2.7500  18.5000 Du        
   4638 ****        -4.0000   2.7500  18.7500 Du        
   4639 ****        -4.0000   2.7500  19.0000 Du        
   4640 ****        -4.0000   2.7500  19.2500 Du        
   4641 ****        -4.0000   2.7500  19.5000 Du        
   4642 ****        -4.0000   2.7500  19.7500 Du        
   4643 ****        -4.0000   2.7500  20.0000 Du        
   4644 ****        -4.0000   2.7500  20.2500 Du        
   4645 ****        -4.0000   2.7500  20.5000 Du        
   4646 ****        -4.0000   2.7500  24.5000 Du        
   4647 ****        -4.0000   2.7500  24.7500 Du        
   4648 ****        -4.0000   2.7500  25.0000 Du        
   4649 ****        -4.0000   2.7500  25.2500 Du        
   4650 ****        -4.0000   2.7500  25.5000 Du        
   4651 ****        -4.0000   2.7500  25.7500 Du        
   4652 ****        -4.0000   2.7500  26.0000 Du        
   4653 ****        -4.0000   2.7500  26.2500 Du        
   4654 ****        -4.0000   3.0000  18.7500 Du        
   4655 ****        -4.0000   3.0000  19.0000 Du        
   4656 ****        -4.0000   3.0000  19.2500 Du        
   4657 ****        -4.0000   3.0000  19.5000 Du        
   4658 ****        -4.0000   3.0000  19.7500 Du        
   4659 ****        -4.0000   3.0000  20.0000 Du        
   4660 ****        -4.0000   3.0000  20.2500 Du        
   4661 ****        -4.0000   3.0000  24.5000 Du        
   4662 ****        -4.0000   3.0000  24.7500 Du        
   4663 ****        -4.0000   3.0000  25.0000 Du        
   4664 ****        -4.0000   3.0000  25.2500 Du        
   4665 ****        -4.0000   3.0000  25.5000 Du        
   4666 ****        -4.0000   3.0000  25.7500 Du        
   4667 ****        -4.0000   3.0000  26.0000 Du        
   4668 ****        -4.0000   3.0000  26.2500 Du        
   4669 ****        -4.0000   3.2500  19.5000 Du        
   4670 ****        -4.0000   3.2500  19.7500 Du        
   4671 ****        -4.0000   3.2500  20.0000 Du        
   4672 ****        -4.0000   3.2500  20.2500 Du        
   4673 ****        -4.0000   3.2500  24.5000 Du        
   4674 ****        -4.0000   3.2500  24.7500 Du        
   4675 ****        -4.0000   3.2500  25.0000 Du        
   4676 ****        -4.0000   3.2500  25.2500 Du        
   4677 ****        -4.0000   3.2500  25.5000 Du        
   4678 ****        -4.0000   3.2500  25.7500 Du        
   4679 ****        -4.0000   3.2500  26.0000 Du        
   4680 ****        -4.0000   3.2500  26.2500 Du        
   4681 ****        -4.0000   3.5000  20.0000 Du        
   4682 ****        -4.0000   3.5000  20.2500 Du        
   4683 ****        -4.0000   3.5000  24.5000 Du        
   4684 ****        -4.0000   3.5000  24.7500 Du        
   4685 ****        -4.0000   3.5000  25.0000 Du        
   4686 ****        -4.0000   3.5000  25.2500 Du        
   4687 ****        -4.0000   3.5000  25.5000 Du        
   4688 ****        -4.0000   3.5000  25.7500 Du        
   4689 ****        -4.0000   3.5000  26.0000 Du        
   4690 ****        -4.0000   3.7500  24.5000 Du        
   4691 ****        -4.0000   3.7500  24.7500 Du        
   4692 ****        -4.0000   3.7500  25.0000 Du        
   4693 ****        -4.0000   3.7500  25.2500 Du        
   4694 ****        -4.0000   3.7500  25.5000 Du        
   4695 ****        -4.0000   3.7500  25.7500 Du        
   4696 ****        -4.0000   3.7500  26.0000 Du        
   4697 ****        -4.0000   4.0000  24.5000 Du        
   4698 ****        -4.0000   4.0000  24.7500 Du        
   4699 ****        -4.0000   4.0000  25.0000 Du        
   4700 ****        -4.0000   4.0000  25.2500 Du        
   4701 ****        -4.0000   4.0000  25.5000 Du        
   4702 ****        -4.0000   4.0000  25.7500 Du        
   4703 ****        -4.0000   4.0000  26.0000 Du        
   4704 ****        -4.0000   4.2500  24.5000 Du        
   4705 ****        -4.0000   4.2500  24.7500 Du        
   4706 ****        -4.0000   4.2500  25.0000 Du        
   4707 ****        -4.0000   4.2500  25.2500 Du        
   4708 ****        -4.0000   4.2500  25.5000 Du        
   4709 ****        -4.0000   4.2500  25.7500 Du        
   4710 ****        -4.0000   4.2500  26.0000 Du        
   4711 ****        -4.0000   4.5000  24.2500 Du        
   4712 ****        -4.0000   4.5000  24.5000 Du        
   4713 ****        -4.0000   4.5000  24.7500 Du        
   4714 ****        -4.0000   4.5000  25.0000 Du        
   4715 ****        -4.0000   4.5000  25.2500 Du        
   4716 ****        -4.0000   4.5000  25.5000 Du        
   4717 ****        -4.0000   4.5000  25.7500 Du        
   4718 ****        -4.0000   4.7500  24.2500 Du        
   4719 ****        -4.0000   4.7500  24.5000 Du        
   4720 ****        -4.0000   4.7500  24.7500 Du        
   4721 ****        -4.0000   4.7500  25.0000 Du        
   4722 ****        -4.0000   4.7500  25.2500 Du        
   4723 ****        -4.0000   4.7500  25.5000 Du        
   4724 ****        -4.0000   4.7500  25.7500 Du        
   4725 ****        -4.0000   5.0000  24.0000 Du        
   4726 ****        -4.0000   5.0000  24.2500 Du        
   4727 ****        -4.0000   5.0000  24.5000 Du        
   4728 ****        -4.0000   5.0000  24.7500 Du        
   4729 ****        -4.0000   5.0000  25.0000 Du        
   4730 ****        -4.0000   5.0000  25.2500 Du        
   4731 ****        -4.0000   5.0000  25.5000 Du        
   4732 ****        -4.0000   5.0000  25.7500 Du        
   4733 ****        -4.0000   5.2500  24.0000 Du        
   4734 ****        -4.0000   5.2500  24.2500 Du        
   4735 ****        -4.0000   5.2500  24.5000 Du        
   4736 ****        -4.0000   5.2500  24.7500 Du        
   4737 ****        -4.0000   5.2500  25.0000 Du        
   4738 ****        -4.0000   5.2500  25.2500 Du        
   4739 ****        -4.0000   5.2500  25.5000 Du        
   4740 ****        -4.0000   5.2500  25.7500 Du        
   4741 ****        -4.0000   5.5000  21.2500 Du        
   4742 ****        -4.0000   5.5000  21.5000 Du        
   4743 ****        -4.0000   5.5000  21.7500 Du        
   4744 ****        -4.0000   5.5000  23.7500 Du        
   4745 ****        -4.0000   5.5000  24.0000 Du        
   4746 ****        -4.0000   5.5000  24.2500 Du        
   4747 ****        -4.0000   5.5000  24.5000 Du        
   4748 ****        -4.0000   5.5000  24.7500 Du        
   4749 ****        -4.0000   5.5000  25.0000 Du        
   4750 ****        -4.0000   5.5000  25.2500 Du        
   4751 ****        -4.0000   5.7500  21.0000 Du        
   4752 ****        -4.0000   5.7500  21.2500 Du        
   4753 ****        -4.0000   5.7500  21.5000 Du        
   4754 ****        -4.0000   5.7500  21.7500 Du        
   4755 ****        -4.0000   5.7500  22.0000 Du        
   4756 ****        -4.0000   5.7500  22.2500 Du        
   4757 ****        -4.0000   5.7500  22.5000 Du        
   4758 ****        -4.0000   5.7500  22.7500 Du        
   4759 ****        -4.0000   5.7500  23.0000 Du        
   4760 ****        -4.0000   5.7500  23.2500 Du        
   4761 ****        -4.0000   5.7500  23.5000 Du        
   4762 ****        -4.0000   5.7500  23.7500 Du        
   4763 ****        -4.0000   5.7500  24.0000 Du        
   4764 ****        -4.0000   5.7500  24.2500 Du        
   4765 ****        -4.0000   5.7500  24.5000 Du        
   4766 ****        -4.0000   5.7500  24.7500 Du        
   4767 ****        -4.0000   5.7500  25.0000 Du        
   4768 ****        -4.0000   5.7500  25.2500 Du        
   4769 ****        -4.0000   6.0000  21.0000 Du        
   4770 ****        -4.0000   6.0000  21.2500 Du        
   4771 ****        -4.0000   6.0000  21.5000 Du        
   4772 ****        -4.0000   6.0000  21.7500 Du        
   4773 ****        -4.0000   6.0000  22.0000 Du        
   4774 ****        -4.0000   6.0000  22.2500 Du        
   4775 ****        -4.0000   6.0000  22.5000 Du        
   4776 ****        -4.0000   6.0000  22.7500 Du        
   4777 ****        -4.0000   6.0000  23.0000 Du        
   4778 ****        -4.0000   6.0000  23.2500 Du        
   4779 ****        -4.0000   6.0000  23.5000 Du        
   4780 ****        -4.0000   6.0000  23.7500 Du        
   4781 ****        -4.0000   6.0000  24.0000 Du        
   4782 ****        -4.0000   6.0000  24.2500 Du        
   4783 ****        -4.0000   6.0000  24.5000 Du        
   4784 ****        -4.0000   6.0000  24.7500 Du        
   4785 ****        -4.0000   6.0000  25.0000 Du        
   4786 ****        -4.0000   6.0000  25.2500 Du        
   4787 ****        -4.0000   6.0000  25.5000 Du        
   4788 ****        -4.0000   6.2500  20.7500 Du        
   4789 ****        -4.0000   6.2500  21.0000 Du        
   4790 ****        -4.0000   6.2500  21.2500 Du        
   4791 ****        -4.0000   6.2500  21.5000 Du        
   4792 ****        -4.0000   6.2500  21.7500 Du        
   4793 ****        -4.0000   6.2500  22.0000 Du        
   4794 ****        -4.0000   6.2500  22.2500 Du        
   4795 ****        -4.0000   6.2500  22.5000 Du        
   4796 ****        -4.0000   6.2500  22.7500 Du        
   4797 ****        -4.0000   6.2500  23.0000 Du        
   4798 ****        -4.0000   6.2500  23.2500 Du        
   4799 ****        -4.0000   6.2500  23.5000 Du        
   4800 ****        -4.0000   6.2500  23.7500 Du        
   4801 ****        -4.0000   6.2500  24.0000 Du        
   4802 ****        -4.0000   6.2500  24.2500 Du        
   4803 ****        -4.0000   6.2500  24.5000 Du        
   4804 ****        -4.0000   6.2500  24.7500 Du        
   4805 ****        -4.0000   6.2500  25.0000 Du        
   4806 ****        -4.0000   6.2500  25.2500 Du        
   4807 ****        -4.0000   6.2500  25.5000 Du        
   4808 ****        -4.0000   6.5000  20.7500 Du        
   4809 ****        -4.0000   6.5000  21.0000 Du        
   4810 ****        -4.0000   6.5000  21.2500 Du        
   4811 ****        -4.0000   6.5000  21.5000 Du        
   4812 ****        -4.0000   6.5000  21.7500 Du        
   4813 ****        -4.0000   6.5000  22.0000 Du        
   4814 ****        -4.0000   6.5000  22.2500 Du        
   4815 ****        -4.0000   6.5000  22.5000 Du        
   4816 ****        -4.0000   6.5000  22.7500 Du        
   4817 ****        -4.0000   6.5000  23.0000 Du        
   4818 ****        -4.0000   6.5000  23.2500 Du        
   4819 ****        -4.0000   6.5000  23.5000 Du        
   4820 ****        -4.0000   6.5000  23.7500 Du        
   4821 ****        -4.0000   6.5000  24.0000 Du        
   4822 ****        -4.0000   6.5000  24.2500 Du        
   4823 ****        -4.0000   6.5000  24.5000 Du        
   4824 ****        -4.0000   6.5000  24.7500 Du        
   4825 ****        -4.0000   6.5000  25.0000 Du        
   4826 ****        -4.0000   6.5000  25.2500 Du        
   4827 ****        -4.0000   6.7500  20.5000 Du        
   4828 ****        -4.0000   6.7500  20.7500 Du        
   4829 ****        -4.0000   6.7500  21.0000 Du        
   4830 ****        -4.0000   6.7500  21.2500 Du        
   4831 ****        -4.0000   6.7500  21.5000 Du        
   4832 ****        -4.0000   6.7500  21.7500 Du        
   4833 ****        -4.0000   6.7500  22.0000 Du        
   4834 ****        -4.0000   6.7500  22.2500 Du        
   4835 ****        -4.0000   6.7500  22.5000 Du        
   4836 ****        -4.0000   6.7500  22.7500 Du        
   4837 ****        -4.0000   6.7500  23.0000 Du        
   4838 ****        -4.0000   6.7500  23.2500 Du        
   4839 ****        -4.0000   6.7500  23.5000 Du        
   4840 ****        -4.0000   6.7500  23.7500 Du        
   4841 ****        -4.0000   6.7500  24.0000 Du        
   4842 ****        -4.0000   6.7500  24.2500 Du        
   4843 ****        -4.0000   6.7500  24.5000 Du        
   4844 ****        -4.0000   6.7500  24.7500 Du        
   4845 ****        -4.0000   6.7500  25.0000 Du        
   4846 ****        -4.0000   6.7500  25.2500 Du        
   4847 ****        -4.0000   7.0000  20.5000 Du        
   4848 ****        -4.0000   7.0000  20.7500 Du        
   4849 ****        -4.0000   7.0000  21.0000 Du        
   4850 ****        -4.0000   7.0000  21.2500 Du        
   4851 ****        -4.0000   7.0000  21.5000 Du        
   4852 ****        -4.0000   7.0000  21.7500 Du        
   4853 ****        -4.0000   7.0000  22.0000 Du        
   4854 ****        -4.0000   7.0000  22.2500 Du        
   4855 ****        -4.0000   7.0000  22.5000 Du        
   4856 ****        -4.0000   7.0000  22.7500 Du        
   4857 ****        -4.0000   7.0000  23.0000 Du        
   4858 ****        -4.0000   7.0000  23.2500 Du        
   4859 ****        -4.0000   7.0000  23.5000 Du        
   4860 ****        -4.0000   7.0000  23.7500 Du        
   4861 ****        -4.0000   7.0000  24.0000 Du        
   4862 ****        -4.0000   7.0000  24.2500 Du        
   4863 ****        -4.0000   7.0000  24.5000 Du        
   4864 ****        -4.0000   7.0000  24.7500 Du        
   4865 ****        -4.0000   7.0000  25.0000 Du        
   4866 ****        -4.0000   7.0000  25.2500 Du        
   4867 ****        -4.0000   7.2500  20.2500 Du        
   4868 ****        -4.0000   7.2500  20.5000 Du        
   4869 ****        -4.0000   7.2500  20.7500 Du        
   4870 ****        -4.0000   7.2500  21.0000 Du        
   4871 ****        -4.0000   7.2500  21.2500 Du        
   4872 ****        -4.0000   7.2500  21.5000 Du        
   4873 ****        -4.0000   7.2500  21.7500 Du        
   4874 ****        -4.0000   7.2500  22.0000 Du        
   4875 ****        -4.0000   7.2500  22.2500 Du        
   4876 ****        -4.0000   7.2500  22.5000 Du        
   4877 ****        -4.0000   7.2500  22.7500 Du        
   4878 ****        -4.0000   7.2500  23.0000 Du        
   4879 ****        -4.0000   7.2500  23.2500 Du        
   4880 ****        -4.0000   7.2500  23.5000 Du        
   4881 ****        -4.0000   7.2500  23.7500 Du        
   4882 ****        -4.0000   7.2500  24.0000 Du        
   4883 ****        -4.0000   7.2500  24.2500 Du        
   4884 ****        -4.0000   7.2500  24.5000 Du        
   4885 ****        -4.0000   7.2500  24.7500 Du        
   4886 ****        -4.0000   7.2500  25.0000 Du        
   4887 ****        -4.0000   7.2500  25.2500 Du        
   4888 ****        -4.0000   7.5000  20.2500 Du        
   4889 ****        -4.0000   7.5000  20.5000 Du        
   4890 ****        -4.0000   7.5000  20.7500 Du        
   4891 ****        -4.0000   7.5000  21.0000 Du        
   4892 ****        -4.0000   7.5000  21.2500 Du        
   4893 ****        -4.0000   7.5000  21.5000 Du        
   4894 ****        -4.0000   7.5000  21.7500 Du        
   4895 ****        -4.0000   7.5000  22.0000 Du        
   4896 ****        -4.0000   7.5000  22.2500 Du        
   4897 ****        -4.0000   7.5000  22.5000 Du        
   4898 ****        -4.0000   7.5000  22.7500 Du        
   4899 ****        -4.0000   7.5000  23.0000 Du        
   4900 ****        -4.0000   7.5000  23.2500 Du        
   4901 ****        -4.0000   7.5000  23.5000 Du        
   4902 ****        -4.0000   7.5000  23.7500 Du        
   4903 ****        -4.0000   7.5000  24.0000 Du        
   4904 ****        -4.0000   7.5000  24.2500 Du        
   4905 ****        -4.0000   7.5000  24.5000 Du        
   4906 ****        -4.0000   7.5000  24.7500 Du        
   4907 ****        -4.0000   7.5000  25.0000 Du        
   4908 ****        -4.0000   7.5000  25.2500 Du        
   4909 ****        -4.0000   7.7500  20.0000 Du        
   4910 ****        -4.0000   7.7500  20.2500 Du        
   4911 ****        -4.0000   7.7500  20.5000 Du        
   4912 ****        -4.0000   7.7500  20.7500 Du        
   4913 ****        -4.0000   7.7500  21.0000 Du        
   4914 ****        -4.0000   7.7500  21.2500 Du        
   4915 ****        -4.0000   7.7500  21.5000 Du        
   4916 ****        -4.0000   7.7500  21.7500 Du        
   4917 ****        -4.0000   7.7500  22.0000 Du        
   4918 ****        -4.0000   7.7500  22.2500 Du        
   4919 ****        -4.0000   7.7500  22.5000 Du        
   4920 ****        -4.0000   7.7500  22.7500 Du        
   4921 ****        -4.0000   7.7500  23.0000 Du        
   4922 ****        -4.0000   7.7500  23.2500 Du        
   4923 ****        -4.0000   7.7500  23.5000 Du        
   4924 ****        -4.0000   7.7500  23.7500 Du        
   4925 ****        -4.0000   7.7500  24.0000 Du        
   4926 ****        -4.0000   7.7500  24.2500 Du        
   4927 ****        -4.0000   7.7500  24.5000 Du        
   4928 ****        -4.0000   7.7500  24.7500 Du        
   4929 ****        -4.0000   7.7500  25.0000 Du        
   4930 ****        -4.0000   8.0000  20.0000 Du        
   4931 ****        -4.0000   8.0000  20.2500 Du        
   4932 ****        -4.0000   8.0000  20.5000 Du        
   4933 ****        -4.0000   8.0000  20.7500 Du        
   4934 ****        -4.0000   8.0000  21.0000 Du        
   4935 ****        -4.0000   8.0000  21.2500 Du        
   4936 ****        -4.0000   8.0000  21.5000 Du        
   4937 ****        -4.0000   8.0000  21.7500 Du        
   4938 ****        -4.0000   8.0000  22.0000 Du        
   4939 ****        -4.0000   8.0000  22.2500 Du        
   4940 ****        -4.0000   8.0000  22.5000 Du        
   4941 ****        -4.0000   8.0000  22.7500 Du        
   4942 ****        -4.0000   8.0000  23.0000 Du        
   4943 ****        -4.0000   8.0000  23.2500 Du        
   4944 ****        -4.0000   8.0000  23.5000 Du        
   4945 ****        -4.0000   8.0000  23.7500 Du        
   4946 ****        -4.0000   8.0000  24.0000 Du        
   4947 ****        -4.0000   8.0000  24.2500 Du        
   4948 ****        -4.0000   8.0000  24.5000 Du        
   4949 ****        -4.0000   8.0000  24.7500 Du        
   4950 ****        -4.0000   8.0000  25.0000 Du        
   4951 ****        -4.0000   8.2500  20.0000 Du        
   4952 ****        -4.0000   8.2500  20.2500 Du        
   4953 ****        -4.0000   8.2500  20.5000 Du        
   4954 ****        -4.0000   8.2500  20.7500 Du        
   4955 ****        -4.0000   8.2500  21.0000 Du        
   4956 ****        -4.0000   8.2500  21.2500 Du        
   4957 ****        -4.0000   8.2500  21.5000 Du        
   4958 ****        -4.0000   8.2500  21.7500 Du        
   4959 ****        -4.0000   8.2500  22.0000 Du        
   4960 ****        -4.0000   8.2500  22.2500 Du        
   4961 ****        -4.0000   8.2500  22.5000 Du        
   4962 ****        -4.0000   8.2500  22.7500 Du        
   4963 ****        -4.0000   8.2500  23.0000 Du        
   4964 ****        -4.0000   8.2500  23.2500 Du        
   4965 ****        -4.0000   8.2500  23.5000 Du        
   4966 ****        -4.0000   8.2500  23.7500 Du        
   4967 ****        -4.0000   8.2500  24.0000 Du        
   4968 ****        -4.0000   8.2500  24.2500 Du        
   4969 ****        -4.0000   8.5000  20.5000 Du        
   4970 ****        -4.0000   8.5000  20.7500 Du        
   4971 ****        -4.0000   8.5000  21.0000 Du        
   4972 ****        -4.0000   8.5000  21.2500 Du        
   4973 ****        -4.0000   8.5000  21.5000 Du        
   4974 ****        -4.0000   8.5000  21.7500 Du        
   4975 ****        -4.0000   8.5000  22.0000 Du        
   4976 ****        -4.0000   8.5000  22.2500 Du        
   4977 ****        -4.0000   8.5000  22.5000 Du        
   4978 ****        -4.0000   8.5000  22.7500 Du        
   4979 ****        -4.0000   8.5000  23.0000 Du        
   4980 ****        -4.0000   8.5000  23.2500 Du        
   4981 ****        -4.0000   8.5000  23.5000 Du        
   4982 ****        -4.0000   8.5000  23.7500 Du        
   4983 ****        -4.0000   8.5000  24.0000 Du        
   4984 ****        -4.0000   8.5000  24.2500 Du        
   4985 ****        -4.0000   8.7500  21.0000 Du        
   4986 ****        -4.0000   8.7500  21.2500 Du        
   4987 ****        -4.0000   8.7500  21.5000 Du        
   4988 ****        -4.0000   8.7500  21.7500 Du        
   4989 ****        -4.0000   8.7500  22.0000 Du        
   4990 ****        -4.0000   8.7500  22.2500 Du        
   4991 ****        -4.0000   8.7500  22.5000 Du        
   4992 ****        -4.0000   8.7500  22.7500 Du        
   4993 ****        -4.0000   8.7500  23.0000 Du        
   4994 ****        -4.0000   8.7500  23.2500 Du        
   4995 ****        -4.0000   8.7500  23.5000 Du        
   4996 ****        -4.0000   8.7500  23.7500 Du        
   4997 ****        -4.0000   8.7500  24.0000 Du        
   4998 ****        -4.0000   8.7500  24.2500 Du        
   4999 ****        -4.0000   9.0000  21.2500 Du        
   5000 ****        -4.0000   9.0000  21.5000 Du        
   5001 ****        -4.0000   9.0000  21.7500 Du        
   5002 ****        -4.0000   9.0000  22.0000 Du        
   5003 ****        -4.0000   9.0000  22.2500 Du        
   5004 ****        -4.0000   9.0000  22.5000 Du        
   5005 ****        -4.0000   9.0000  22.7500 Du        
   5006 ****        -4.0000   9.0000  23.0000 Du        
   5007 ****        -4.0000   9.0000  23.2500 Du        
   5008 ****        -4.0000   9.0000  23.5000 Du        
   5009 ****        -4.0000   9.0000  23.7500 Du        
   5010 ****        -4.0000   9.0000  24.0000 Du        
   5011 ****        -4.0000   9.0000  24.2500 Du        
   5012 ****        -4.0000   9.2500  21.7500 Du        
   5013 ****        -4.0000   9.2500  22.0000 Du        
   5014 ****        -4.0000   9.2500  22.2500 Du        
   5015 ****        -4.0000   9.2500  22.5000 Du        
   5016 ****        -4.0000   9.2500  22.7500 Du        
   5017 ****        -4.0000   9.2500  23.0000 Du        
   5018 ****        -4.0000   9.2500  23.2500 Du        
   5019 ****        -4.0000   9.2500  23.5000 Du        
   5020 ****        -4.0000   9.2500  23.7500 Du        
   5021 ****        -4.0000   9.2500  24.0000 Du        
   5022 ****        -4.0000   9.5000  22.0000 Du        
   5023 ****        -4.0000   9.5000  22.2500 Du        
   5024 ****        -4.0000   9.5000  22.5000 Du        
   5025 ****        -4.0000   9.5000  22.7500 Du        
   5026 ****        -4.0000   9.5000  23.0000 Du        
   5027 ****        -4.0000   9.5000  23.2500 Du        
   5028 ****        -4.0000   9.5000  23.5000 Du        
   5029 ****        -4.0000   9.5000  23.7500 Du        
   5030 ****        -4.0000   9.7500  22.2500 Du        
   5031 ****        -4.0000   9.7500  22.5000 Du        
   5032 ****        -4.0000   9.7500  22.7500 Du        
   5033 ****        -4.0000   9.7500  23.0000 Du        
   5034 ****        -4.0000   9.7500  23.2500 Du        
   5035 ****        -4.0000   9.7500  23.5000 Du        
   5036 ****        -4.0000  10.0000  22.5000 Du        
   5037 ****        -4.0000  10.0000  22.7500 Du        
   5038 ****        -4.0000  10.0000  23.0000 Du        
   5039 ****        -4.0000  10.0000  23.2500 Du        
   5040 ****        -4.0000  10.2500  22.7500 Du        
   5041 ****        -4.0000  10.2500  23.0000 Du        
   5042 ****        -3.7500  -9.0000  10.0000 Du        
   5043 ****        -3.7500  -9.0000  10.2500 Du        
   5044 ****        -3.7500  -9.0000  10.5000 Du        
   5045 ****        -3.7500  -9.0000  10.7500 Du        
   5046 ****        -3.7500  -9.0000  11.0000 Du        
   5047 ****        -3.7500  -9.0000  11.2500 Du        
   5048 ****        -3.7500  -9.0000  11.5000 Du        
   5049 ****        -3.7500  -9.0000  11.7500 Du        
   5050 ****        -3.7500  -9.0000  12.0000 Du        
   5051 ****        -3.7500  -9.0000  12.2500 Du        
   5052 ****        -3.7500  -8.7500   9.7500 Du        
   5053 ****        -3.7500  -8.7500  10.0000 Du        
   5054 ****        -3.7500  -8.7500  10.2500 Du        
   5055 ****        -3.7500  -8.7500  10.5000 Du        
   5056 ****        -3.7500  -8.7500  10.7500 Du        
   5057 ****        -3.7500  -8.7500  11.0000 Du        
   5058 ****        -3.7500  -8.7500  11.2500 Du        
   5059 ****        -3.7500  -8.7500  11.5000 Du        
   5060 ****        -3.7500  -8.7500  11.7500 Du        
   5061 ****        -3.7500  -8.7500  12.0000 Du        
   5062 ****        -3.7500  -8.7500  12.2500 Du        
   5063 ****        -3.7500  -8.5000   9.2500 Du        
   5064 ****        -3.7500  -8.5000   9.5000 Du        
   5065 ****        -3.7500  -8.5000   9.7500 Du        
   5066 ****        -3.7500  -8.5000  10.0000 Du        
   5067 ****        -3.7500  -8.5000  10.2500 Du        
   5068 ****        -3.7500  -8.5000  10.5000 Du        
   5069 ****        -3.7500  -8.5000  10.7500 Du        
   5070 ****        -3.7500  -8.5000  11.0000 Du        
   5071 ****        -3.7500  -8.5000  11.2500 Du        
   5072 ****        -3.7500  -8.5000  11.5000 Du        
   5073 ****        -3.7500  -8.5000  11.7500 Du        
   5074 ****        -3.7500  -8.5000  12.0000 Du        
   5075 ****        -3.7500  -8.5000  12.2500 Du        
   5076 ****        -3.7500  -8.5000  12.5000 Du        
   5077 ****        -3.7500  -8.2500   8.7500 Du        
   5078 ****        -3.7500  -8.2500   9.0000 Du        
   5079 ****        -3.7500  -8.2500   9.2500 Du        
   5080 ****        -3.7500  -8.2500   9.5000 Du        
   5081 ****        -3.7500  -8.2500   9.7500 Du        
   5082 ****        -3.7500  -8.2500  10.0000 Du        
   5083 ****        -3.7500  -8.2500  10.2500 Du        
   5084 ****        -3.7500  -8.2500  10.5000 Du        
   5085 ****        -3.7500  -8.2500  10.7500 Du        
   5086 ****        -3.7500  -8.2500  11.0000 Du        
   5087 ****        -3.7500  -8.2500  11.2500 Du        
   5088 ****        -3.7500  -8.2500  11.5000 Du        
   5089 ****        -3.7500  -8.2500  11.7500 Du        
   5090 ****        -3.7500  -8.2500  12.0000 Du        
   5091 ****        -3.7500  -8.2500  12.2500 Du        
   5092 ****        -3.7500  -8.2500  12.5000 Du        
   5093 ****        -3.7500  -8.0000   8.5000 Du        
   5094 ****        -3.7500  -8.0000   8.7500 Du        
   5095 ****        -3.7500  -8.0000   9.0000 Du        
   5096 ****        -3.7500  -8.0000   9.2500 Du        
   5097 ****        -3.7500  -8.0000   9.5000 Du        
   5098 ****        -3.7500  -8.0000   9.7500 Du        
   5099 ****        -3.7500  -8.0000  10.0000 Du        
   5100 ****        -3.7500  -8.0000  10.2500 Du        
   5101 ****        -3.7500  -8.0000  10.5000 Du        
   5102 ****        -3.7500  -8.0000  10.7500 Du        
   5103 ****        -3.7500  -8.0000  11.0000 Du        
   5104 ****        -3.7500  -8.0000  11.2500 Du        
   5105 ****        -3.7500  -8.0000  11.5000 Du        
   5106 ****        -3.7500  -8.0000  11.7500 Du        
   5107 ****        -3.7500  -8.0000  12.0000 Du        
   5108 ****        -3.7500  -8.0000  12.2500 Du        
   5109 ****        -3.7500  -8.0000  12.5000 Du        
   5110 ****        -3.7500  -7.7500   8.5000 Du        
   5111 ****        -3.7500  -7.7500   8.7500 Du        
   5112 ****        -3.7500  -7.7500   9.0000 Du        
   5113 ****        -3.7500  -7.7500   9.2500 Du        
   5114 ****        -3.7500  -7.7500   9.5000 Du        
   5115 ****        -3.7500  -7.7500   9.7500 Du        
   5116 ****        -3.7500  -7.7500  10.0000 Du        
   5117 ****        -3.7500  -7.7500  10.2500 Du        
   5118 ****        -3.7500  -7.7500  10.5000 Du        
   5119 ****        -3.7500  -7.7500  10.7500 Du        
   5120 ****        -3.7500  -7.7500  11.0000 Du        
   5121 ****        -3.7500  -7.7500  11.2500 Du        
   5122 ****        -3.7500  -7.5000   8.5000 Du        
   5123 ****        -3.7500  -7.5000   8.7500 Du        
   5124 ****        -3.7500  -7.5000   9.0000 Du        
   5125 ****        -3.7500  -7.5000   9.2500 Du        
   5126 ****        -3.7500  -7.5000   9.5000 Du        
   5127 ****        -3.7500  -7.5000   9.7500 Du        
   5128 ****        -3.7500  -7.5000  10.0000 Du        
   5129 ****        -3.7500  -7.5000  10.2500 Du        
   5130 ****        -3.7500  -7.5000  10.5000 Du        
   5131 ****        -3.7500  -7.2500   8.5000 Du        
   5132 ****        -3.7500  -7.2500   8.7500 Du        
   5133 ****        -3.7500  -7.2500   9.0000 Du        
   5134 ****        -3.7500  -7.2500   9.2500 Du        
   5135 ****        -3.7500  -7.2500   9.5000 Du        
   5136 ****        -3.7500  -7.2500   9.7500 Du        
   5137 ****        -3.7500  -7.2500  10.0000 Du        
   5138 ****        -3.7500  -7.0000   8.5000 Du        
   5139 ****        -3.7500  -7.0000   8.7500 Du        
   5140 ****        -3.7500  -7.0000   9.0000 Du        
   5141 ****        -3.7500  -7.0000   9.2500 Du        
   5142 ****        -3.7500  -7.0000   9.5000 Du        
   5143 ****        -3.7500  -7.0000   9.7500 Du        
   5144 ****        -3.7500  -6.7500   8.5000 Du        
   5145 ****        -3.7500  -6.7500   8.7500 Du        
   5146 ****        -3.7500  -6.7500   9.0000 Du        
   5147 ****        -3.7500  -6.7500   9.2500 Du        
   5148 ****        -3.7500  -6.5000   8.5000 Du        
   5149 ****        -3.7500  -6.5000   8.7500 Du        
   5150 ****        -3.7500  -6.5000   9.0000 Du        
   5151 ****        -3.7500  -6.2500   8.5000 Du        
   5152 ****        -3.7500  -6.2500   8.7500 Du        
   5153 ****        -3.7500  -4.7500   7.7500 Du        
   5154 ****        -3.7500  -2.0000  20.5000 Du        
   5155 ****        -3.7500  -2.0000  20.7500 Du        
   5156 ****        -3.7500  -2.0000  21.0000 Du        
   5157 ****        -3.7500  -2.0000  21.2500 Du        
   5158 ****        -3.7500  -1.7500  20.2500 Du        
   5159 ****        -3.7500  -1.7500  20.5000 Du        
   5160 ****        -3.7500  -1.7500  20.7500 Du        
   5161 ****        -3.7500  -1.7500  21.0000 Du        
   5162 ****        -3.7500  -1.7500  21.2500 Du        
   5163 ****        -3.7500  -1.7500  21.5000 Du        
   5164 ****        -3.7500  -1.7500  21.7500 Du        
   5165 ****        -3.7500  -1.7500  22.0000 Du        
   5166 ****        -3.7500  -1.7500  24.0000 Du        
   5167 ****        -3.7500  -1.7500  24.2500 Du        
   5168 ****        -3.7500  -1.7500  24.7500 Du        
   5169 ****        -3.7500  -1.7500  26.2500 Du        
   5170 ****        -3.7500  -1.7500  26.5000 Du        
   5171 ****        -3.7500  -1.7500  26.7500 Du        
   5172 ****        -3.7500  -1.7500  27.0000 Du        
   5173 ****        -3.7500  -1.7500  27.2500 Du        
   5174 ****        -3.7500  -1.7500  27.5000 Du        
   5175 ****        -3.7500  -1.7500  27.7500 Du        
   5176 ****        -3.7500  -1.5000  20.2500 Du        
   5177 ****        -3.7500  -1.5000  20.5000 Du        
   5178 ****        -3.7500  -1.5000  20.7500 Du        
   5179 ****        -3.7500  -1.5000  21.0000 Du        
   5180 ****        -3.7500  -1.5000  21.2500 Du        
   5181 ****        -3.7500  -1.5000  21.5000 Du        
   5182 ****        -3.7500  -1.5000  21.7500 Du        
   5183 ****        -3.7500  -1.5000  22.0000 Du        
   5184 ****        -3.7500  -1.5000  22.2500 Du        
   5185 ****        -3.7500  -1.5000  22.5000 Du        
   5186 ****        -3.7500  -1.5000  22.7500 Du        
   5187 ****        -3.7500  -1.5000  23.0000 Du        
   5188 ****        -3.7500  -1.5000  23.2500 Du        
   5189 ****        -3.7500  -1.5000  23.5000 Du        
   5190 ****        -3.7500  -1.5000  23.7500 Du        
   5191 ****        -3.7500  -1.5000  24.0000 Du        
   5192 ****        -3.7500  -1.5000  24.2500 Du        
   5193 ****        -3.7500  -1.5000  24.5000 Du        
   5194 ****        -3.7500  -1.5000  24.7500 Du        
   5195 ****        -3.7500  -1.5000  25.0000 Du        
   5196 ****        -3.7500  -1.5000  25.2500 Du        
   5197 ****        -3.7500  -1.5000  25.5000 Du        
   5198 ****        -3.7500  -1.5000  25.7500 Du        
   5199 ****        -3.7500  -1.5000  26.0000 Du        
   5200 ****        -3.7500  -1.5000  26.2500 Du        
   5201 ****        -3.7500  -1.5000  26.5000 Du        
   5202 ****        -3.7500  -1.5000  26.7500 Du        
   5203 ****        -3.7500  -1.5000  27.0000 Du        
   5204 ****        -3.7500  -1.5000  27.2500 Du        
   5205 ****        -3.7500  -1.2500  20.0000 Du        
   5206 ****        -3.7500  -1.2500  20.2500 Du        
   5207 ****        -3.7500  -1.2500  20.5000 Du        
   5208 ****        -3.7500  -1.2500  20.7500 Du        
   5209 ****        -3.7500  -1.2500  21.0000 Du        
   5210 ****        -3.7500  -1.2500  21.2500 Du        
   5211 ****        -3.7500  -1.2500  21.5000 Du        
   5212 ****        -3.7500  -1.2500  21.7500 Du        
   5213 ****        -3.7500  -1.2500  22.0000 Du        
   5214 ****        -3.7500  -1.2500  22.2500 Du        
   5215 ****        -3.7500  -1.2500  22.5000 Du        
   5216 ****        -3.7500  -1.2500  22.7500 Du        
   5217 ****        -3.7500  -1.2500  23.0000 Du        
   5218 ****        -3.7500  -1.2500  23.2500 Du        
   5219 ****        -3.7500  -1.2500  23.5000 Du        
   5220 ****        -3.7500  -1.2500  23.7500 Du        
   5221 ****        -3.7500  -1.2500  24.0000 Du        
   5222 ****        -3.7500  -1.2500  24.2500 Du        
   5223 ****        -3.7500  -1.2500  24.5000 Du        
   5224 ****        -3.7500  -1.2500  24.7500 Du        
   5225 ****        -3.7500  -1.2500  25.0000 Du        
   5226 ****        -3.7500  -1.2500  25.2500 Du        
   5227 ****        -3.7500  -1.2500  25.5000 Du        
   5228 ****        -3.7500  -1.2500  25.7500 Du        
   5229 ****        -3.7500  -1.2500  26.0000 Du        
   5230 ****        -3.7500  -1.2500  26.2500 Du        
   5231 ****        -3.7500  -1.2500  26.5000 Du        
   5232 ****        -3.7500  -1.2500  26.7500 Du        
   5233 ****        -3.7500  -1.2500  27.0000 Du        
   5234 ****        -3.7500  -1.2500  27.2500 Du        
   5235 ****        -3.7500  -1.0000  20.0000 Du        
   5236 ****        -3.7500  -1.0000  20.2500 Du        
   5237 ****        -3.7500  -1.0000  20.5000 Du        
   5238 ****        -3.7500  -1.0000  20.7500 Du        
   5239 ****        -3.7500  -1.0000  21.0000 Du        
   5240 ****        -3.7500  -1.0000  21.2500 Du        
   5241 ****        -3.7500  -1.0000  21.5000 Du        
   5242 ****        -3.7500  -1.0000  21.7500 Du        
   5243 ****        -3.7500  -1.0000  22.0000 Du        
   5244 ****        -3.7500  -1.0000  22.2500 Du        
   5245 ****        -3.7500  -1.0000  22.7500 Du        
   5246 ****        -3.7500  -1.0000  23.0000 Du        
   5247 ****        -3.7500  -1.0000  23.2500 Du        
   5248 ****        -3.7500  -1.0000  23.5000 Du        
   5249 ****        -3.7500  -1.0000  23.7500 Du        
   5250 ****        -3.7500  -1.0000  24.0000 Du        
   5251 ****        -3.7500  -1.0000  24.2500 Du        
   5252 ****        -3.7500  -1.0000  24.5000 Du        
   5253 ****        -3.7500  -1.0000  24.7500 Du        
   5254 ****        -3.7500  -1.0000  25.0000 Du        
   5255 ****        -3.7500  -1.0000  25.2500 Du        
   5256 ****        -3.7500  -1.0000  25.5000 Du        
   5257 ****        -3.7500  -1.0000  25.7500 Du        
   5258 ****        -3.7500  -1.0000  26.0000 Du        
   5259 ****        -3.7500  -1.0000  26.2500 Du        
   5260 ****        -3.7500  -1.0000  26.5000 Du        
   5261 ****        -3.7500  -1.0000  26.7500 Du        
   5262 ****        -3.7500  -1.0000  27.0000 Du        
   5263 ****        -3.7500  -1.0000  27.2500 Du        
   5264 ****        -3.7500  -0.7500  19.7500 Du        
   5265 ****        -3.7500  -0.7500  20.0000 Du        
   5266 ****        -3.7500  -0.7500  20.2500 Du        
   5267 ****        -3.7500  -0.7500  20.5000 Du        
   5268 ****        -3.7500  -0.7500  20.7500 Du        
   5269 ****        -3.7500  -0.7500  21.0000 Du        
   5270 ****        -3.7500  -0.7500  21.2500 Du        
   5271 ****        -3.7500  -0.7500  21.5000 Du        
   5272 ****        -3.7500  -0.7500  23.5000 Du        
   5273 ****        -3.7500  -0.7500  23.7500 Du        
   5274 ****        -3.7500  -0.7500  24.0000 Du        
   5275 ****        -3.7500  -0.7500  24.2500 Du        
   5276 ****        -3.7500  -0.7500  24.5000 Du        
   5277 ****        -3.7500  -0.7500  24.7500 Du        
   5278 ****        -3.7500  -0.7500  25.0000 Du        
   5279 ****        -3.7500  -0.7500  25.2500 Du        
   5280 ****        -3.7500  -0.7500  25.5000 Du        
   5281 ****        -3.7500  -0.7500  25.7500 Du        
   5282 ****        -3.7500  -0.7500  26.0000 Du        
   5283 ****        -3.7500  -0.7500  26.2500 Du        
   5284 ****        -3.7500  -0.7500  26.5000 Du        
   5285 ****        -3.7500  -0.7500  26.7500 Du        
   5286 ****        -3.7500  -0.7500  27.0000 Du        
   5287 ****        -3.7500  -0.5000  19.7500 Du        
   5288 ****        -3.7500  -0.5000  20.0000 Du        
   5289 ****        -3.7500  -0.5000  20.2500 Du        
   5290 ****        -3.7500  -0.5000  20.5000 Du        
   5291 ****        -3.7500  -0.5000  20.7500 Du        
   5292 ****        -3.7500  -0.5000  21.0000 Du        
   5293 ****        -3.7500  -0.5000  24.0000 Du        
   5294 ****        -3.7500  -0.5000  24.2500 Du        
   5295 ****        -3.7500  -0.5000  24.5000 Du        
   5296 ****        -3.7500  -0.5000  24.7500 Du        
   5297 ****        -3.7500  -0.5000  25.0000 Du        
   5298 ****        -3.7500  -0.5000  25.2500 Du        
   5299 ****        -3.7500  -0.5000  25.5000 Du        
   5300 ****        -3.7500  -0.5000  25.7500 Du        
   5301 ****        -3.7500  -0.5000  26.0000 Du        
   5302 ****        -3.7500  -0.5000  26.2500 Du        
   5303 ****        -3.7500  -0.2500  19.5000 Du        
   5304 ****        -3.7500  -0.2500  19.7500 Du        
   5305 ****        -3.7500  -0.2500  20.0000 Du        
   5306 ****        -3.7500  -0.2500  20.2500 Du        
   5307 ****        -3.7500  -0.2500  20.5000 Du        
   5308 ****        -3.7500  -0.2500  20.7500 Du        
   5309 ****        -3.7500  -0.2500  21.0000 Du        
   5310 ****        -3.7500  -0.2500  24.0000 Du        
   5311 ****        -3.7500  -0.2500  24.2500 Du        
   5312 ****        -3.7500  -0.2500  24.5000 Du        
   5313 ****        -3.7500  -0.2500  24.7500 Du        
   5314 ****        -3.7500  -0.2500  25.0000 Du        
   5315 ****        -3.7500  -0.2500  25.2500 Du        
   5316 ****        -3.7500  -0.2500  25.5000 Du        
   5317 ****        -3.7500  -0.2500  25.7500 Du        
   5318 ****        -3.7500  -0.2500  26.0000 Du        
   5319 ****        -3.7500  -0.2500  26.2500 Du        
   5320 ****        -3.7500   0.0000  19.2500 Du        
   5321 ****        -3.7500   0.0000  19.5000 Du        
   5322 ****        -3.7500   0.0000  19.7500 Du        
   5323 ****        -3.7500   0.0000  20.0000 Du        
   5324 ****        -3.7500   0.0000  20.2500 Du        
   5325 ****        -3.7500   0.0000  20.5000 Du        
   5326 ****        -3.7500   0.0000  20.7500 Du        
   5327 ****        -3.7500   0.0000  24.2500 Du        
   5328 ****        -3.7500   0.0000  24.5000 Du        
   5329 ****        -3.7500   0.0000  24.7500 Du        
   5330 ****        -3.7500   0.0000  25.0000 Du        
   5331 ****        -3.7500   0.0000  25.2500 Du        
   5332 ****        -3.7500   0.0000  25.5000 Du        
   5333 ****        -3.7500   0.0000  25.7500 Du        
   5334 ****        -3.7500   0.0000  26.0000 Du        
   5335 ****        -3.7500   0.0000  26.2500 Du        
   5336 ****        -3.7500   0.2500  19.0000 Du        
   5337 ****        -3.7500   0.2500  19.2500 Du        
   5338 ****        -3.7500   0.2500  19.5000 Du        
   5339 ****        -3.7500   0.2500  19.7500 Du        
   5340 ****        -3.7500   0.2500  20.0000 Du        
   5341 ****        -3.7500   0.2500  20.2500 Du        
   5342 ****        -3.7500   0.2500  20.5000 Du        
   5343 ****        -3.7500   0.2500  24.5000 Du        
   5344 ****        -3.7500   0.2500  24.7500 Du        
   5345 ****        -3.7500   0.2500  25.0000 Du        
   5346 ****        -3.7500   0.2500  25.2500 Du        
   5347 ****        -3.7500   0.2500  25.5000 Du        
   5348 ****        -3.7500   0.2500  25.7500 Du        
   5349 ****        -3.7500   0.2500  26.0000 Du        
   5350 ****        -3.7500   0.5000  19.0000 Du        
   5351 ****        -3.7500   0.5000  19.2500 Du        
   5352 ****        -3.7500   0.5000  19.5000 Du        
   5353 ****        -3.7500   0.5000  19.7500 Du        
   5354 ****        -3.7500   0.5000  20.0000 Du        
   5355 ****        -3.7500   0.5000  20.2500 Du        
   5356 ****        -3.7500   0.5000  20.5000 Du        
   5357 ****        -3.7500   0.5000  24.7500 Du        
   5358 ****        -3.7500   0.5000  25.0000 Du        
   5359 ****        -3.7500   0.5000  25.2500 Du        
   5360 ****        -3.7500   0.5000  25.5000 Du        
   5361 ****        -3.7500   0.5000  25.7500 Du        
   5362 ****        -3.7500   0.5000  26.0000 Du        
   5363 ****        -3.7500   0.7500  18.5000 Du        
   5364 ****        -3.7500   0.7500  18.7500 Du        
   5365 ****        -3.7500   0.7500  19.0000 Du        
   5366 ****        -3.7500   0.7500  19.2500 Du        
   5367 ****        -3.7500   0.7500  19.5000 Du        
   5368 ****        -3.7500   0.7500  19.7500 Du        
   5369 ****        -3.7500   0.7500  20.0000 Du        
   5370 ****        -3.7500   0.7500  20.2500 Du        
   5371 ****        -3.7500   0.7500  20.5000 Du        
   5372 ****        -3.7500   0.7500  24.7500 Du        
   5373 ****        -3.7500   0.7500  25.0000 Du        
   5374 ****        -3.7500   0.7500  25.2500 Du        
   5375 ****        -3.7500   0.7500  25.5000 Du        
   5376 ****        -3.7500   0.7500  25.7500 Du        
   5377 ****        -3.7500   0.7500  26.0000 Du        
   5378 ****        -3.7500   0.7500  26.2500 Du        
   5379 ****        -3.7500   1.0000  18.0000 Du        
   5380 ****        -3.7500   1.0000  18.2500 Du        
   5381 ****        -3.7500   1.0000  18.5000 Du        
   5382 ****        -3.7500   1.0000  18.7500 Du        
   5383 ****        -3.7500   1.0000  19.0000 Du        
   5384 ****        -3.7500   1.0000  19.2500 Du        
   5385 ****        -3.7500   1.0000  19.5000 Du        
   5386 ****        -3.7500   1.0000  19.7500 Du        
   5387 ****        -3.7500   1.0000  20.0000 Du        
   5388 ****        -3.7500   1.0000  20.2500 Du        
   5389 ****        -3.7500   1.0000  20.5000 Du        
   5390 ****        -3.7500   1.0000  24.7500 Du        
   5391 ****        -3.7500   1.0000  25.0000 Du        
   5392 ****        -3.7500   1.0000  25.2500 Du        
   5393 ****        -3.7500   1.0000  25.5000 Du        
   5394 ****        -3.7500   1.0000  25.7500 Du        
   5395 ****        -3.7500   1.0000  26.0000 Du        
   5396 ****        -3.7500   1.0000  26.2500 Du        
   5397 ****        -3.7500   1.2500  16.0000 Du        
   5398 ****        -3.7500   1.2500  16.2500 Du        
   5399 ****        -3.7500   1.2500  17.0000 Du        
   5400 ****        -3.7500   1.2500  17.2500 Du        
   5401 ****        -3.7500   1.2500  17.5000 Du        
   5402 ****        -3.7500   1.2500  17.7500 Du        
   5403 ****        -3.7500   1.2500  18.0000 Du        
   5404 ****        -3.7500   1.2500  18.2500 Du        
   5405 ****        -3.7500   1.2500  18.5000 Du        
   5406 ****        -3.7500   1.2500  18.7500 Du        
   5407 ****        -3.7500   1.2500  19.0000 Du        
   5408 ****        -3.7500   1.2500  19.2500 Du        
   5409 ****        -3.7500   1.2500  19.5000 Du        
   5410 ****        -3.7500   1.2500  19.7500 Du        
   5411 ****        -3.7500   1.2500  20.0000 Du        
   5412 ****        -3.7500   1.2500  20.2500 Du        
   5413 ****        -3.7500   1.2500  20.5000 Du        
   5414 ****        -3.7500   1.2500  24.7500 Du        
   5415 ****        -3.7500   1.2500  25.0000 Du        
   5416 ****        -3.7500   1.2500  25.2500 Du        
   5417 ****        -3.7500   1.2500  25.5000 Du        
   5418 ****        -3.7500   1.2500  25.7500 Du        
   5419 ****        -3.7500   1.2500  26.0000 Du        
   5420 ****        -3.7500   1.2500  26.2500 Du        
   5421 ****        -3.7500   1.5000  15.7500 Du        
   5422 ****        -3.7500   1.5000  16.0000 Du        
   5423 ****        -3.7500   1.5000  16.2500 Du        
   5424 ****        -3.7500   1.5000  16.5000 Du        
   5425 ****        -3.7500   1.5000  16.7500 Du        
   5426 ****        -3.7500   1.5000  17.0000 Du        
   5427 ****        -3.7500   1.5000  17.2500 Du        
   5428 ****        -3.7500   1.5000  17.5000 Du        
   5429 ****        -3.7500   1.5000  17.7500 Du        
   5430 ****        -3.7500   1.5000  18.0000 Du        
   5431 ****        -3.7500   1.5000  18.2500 Du        
   5432 ****        -3.7500   1.5000  18.5000 Du        
   5433 ****        -3.7500   1.5000  18.7500 Du        
   5434 ****        -3.7500   1.5000  19.0000 Du        
   5435 ****        -3.7500   1.5000  19.2500 Du        
   5436 ****        -3.7500   1.5000  19.5000 Du        
   5437 ****        -3.7500   1.5000  19.7500 Du        
   5438 ****        -3.7500   1.5000  20.0000 Du        
   5439 ****        -3.7500   1.5000  20.2500 Du        
   5440 ****        -3.7500   1.5000  20.5000 Du        
   5441 ****        -3.7500   1.5000  25.0000 Du        
   5442 ****        -3.7500   1.5000  25.2500 Du        
   5443 ****        -3.7500   1.5000  25.5000 Du        
   5444 ****        -3.7500   1.5000  25.7500 Du        
   5445 ****        -3.7500   1.5000  26.0000 Du        
   5446 ****        -3.7500   1.7500  15.7500 Du        
   5447 ****        -3.7500   1.7500  16.0000 Du        
   5448 ****        -3.7500   1.7500  16.2500 Du        
   5449 ****        -3.7500   1.7500  16.5000 Du        
   5450 ****        -3.7500   1.7500  16.7500 Du        
   5451 ****        -3.7500   1.7500  17.0000 Du        
   5452 ****        -3.7500   1.7500  17.2500 Du        
   5453 ****        -3.7500   1.7500  17.5000 Du        
   5454 ****        -3.7500   1.7500  17.7500 Du        
   5455 ****        -3.7500   1.7500  18.0000 Du        
   5456 ****        -3.7500   1.7500  18.2500 Du        
   5457 ****        -3.7500   1.7500  18.5000 Du        
   5458 ****        -3.7500   1.7500  18.7500 Du        
   5459 ****        -3.7500   1.7500  19.0000 Du        
   5460 ****        -3.7500   1.7500  19.2500 Du        
   5461 ****        -3.7500   1.7500  19.5000 Du        
   5462 ****        -3.7500   1.7500  19.7500 Du        
   5463 ****        -3.7500   1.7500  20.0000 Du        
   5464 ****        -3.7500   1.7500  20.2500 Du        
   5465 ****        -3.7500   1.7500  20.5000 Du        
   5466 ****        -3.7500   1.7500  25.0000 Du        
   5467 ****        -3.7500   1.7500  25.2500 Du        
   5468 ****        -3.7500   1.7500  25.5000 Du        
   5469 ****        -3.7500   1.7500  25.7500 Du        
   5470 ****        -3.7500   1.7500  26.0000 Du        
   5471 ****        -3.7500   1.7500  26.2500 Du        
   5472 ****        -3.7500   2.0000  15.7500 Du        
   5473 ****        -3.7500   2.0000  16.0000 Du        
   5474 ****        -3.7500   2.0000  16.2500 Du        
   5475 ****        -3.7500   2.0000  16.5000 Du        
   5476 ****        -3.7500   2.0000  16.7500 Du        
   5477 ****        -3.7500   2.0000  17.0000 Du        
   5478 ****        -3.7500   2.0000  17.2500 Du        
   5479 ****        -3.7500   2.0000  17.5000 Du        
   5480 ****        -3.7500   2.0000  17.7500 Du        
   5481 ****        -3.7500   2.0000  18.0000 Du        
   5482 ****        -3.7500   2.0000  18.2500 Du        
   5483 ****        -3.7500   2.0000  18.5000 Du        
   5484 ****        -3.7500   2.0000  18.7500 Du        
   5485 ****        -3.7500   2.0000  19.0000 Du        
   5486 ****        -3.7500   2.0000  19.2500 Du        
   5487 ****        -3.7500   2.0000  19.5000 Du        
   5488 ****        -3.7500   2.0000  19.7500 Du        
   5489 ****        -3.7500   2.0000  20.0000 Du        
   5490 ****        -3.7500   2.0000  20.2500 Du        
   5491 ****        -3.7500   2.0000  20.5000 Du        
   5492 ****        -3.7500   2.0000  24.7500 Du        
   5493 ****        -3.7500   2.0000  25.0000 Du        
   5494 ****        -3.7500   2.0000  25.2500 Du        
   5495 ****        -3.7500   2.0000  25.5000 Du        
   5496 ****        -3.7500   2.0000  25.7500 Du        
   5497 ****        -3.7500   2.0000  26.0000 Du        
   5498 ****        -3.7500   2.0000  26.2500 Du        
   5499 ****        -3.7500   2.2500  16.0000 Du        
   5500 ****        -3.7500   2.2500  16.2500 Du        
   5501 ****        -3.7500   2.2500  16.5000 Du        
   5502 ****        -3.7500   2.2500  16.7500 Du        
   5503 ****        -3.7500   2.2500  17.0000 Du        
   5504 ****        -3.7500   2.2500  17.2500 Du        
   5505 ****        -3.7500   2.2500  17.5000 Du        
   5506 ****        -3.7500   2.2500  17.7500 Du        
   5507 ****        -3.7500   2.2500  18.0000 Du        
   5508 ****        -3.7500   2.2500  18.2500 Du        
   5509 ****        -3.7500   2.2500  18.5000 Du        
   5510 ****        -3.7500   2.2500  18.7500 Du        
   5511 ****        -3.7500   2.2500  19.0000 Du        
   5512 ****        -3.7500   2.2500  19.2500 Du        
   5513 ****        -3.7500   2.2500  19.5000 Du        
   5514 ****        -3.7500   2.2500  19.7500 Du        
   5515 ****        -3.7500   2.2500  20.0000 Du        
   5516 ****        -3.7500   2.2500  20.2500 Du        
   5517 ****        -3.7500   2.2500  24.7500 Du        
   5518 ****        -3.7500   2.2500  25.0000 Du        
   5519 ****        -3.7500   2.2500  25.2500 Du        
   5520 ****        -3.7500   2.2500  25.5000 Du        
   5521 ****        -3.7500   2.2500  25.7500 Du        
   5522 ****        -3.7500   2.2500  26.0000 Du        
   5523 ****        -3.7500   2.2500  26.2500 Du        
   5524 ****        -3.7500   2.5000  16.0000 Du        
   5525 ****        -3.7500   2.5000  16.2500 Du        
   5526 ****        -3.7500   2.5000  16.5000 Du        
   5527 ****        -3.7500   2.5000  16.7500 Du        
   5528 ****        -3.7500   2.5000  17.0000 Du        
   5529 ****        -3.7500   2.5000  17.2500 Du        
   5530 ****        -3.7500   2.5000  17.5000 Du        
   5531 ****        -3.7500   2.5000  17.7500 Du        
   5532 ****        -3.7500   2.5000  18.0000 Du        
   5533 ****        -3.7500   2.5000  18.2500 Du        
   5534 ****        -3.7500   2.5000  18.5000 Du        
   5535 ****        -3.7500   2.5000  18.7500 Du        
   5536 ****        -3.7500   2.5000  19.0000 Du        
   5537 ****        -3.7500   2.5000  19.2500 Du        
   5538 ****        -3.7500   2.5000  19.5000 Du        
   5539 ****        -3.7500   2.5000  19.7500 Du        
   5540 ****        -3.7500   2.5000  20.0000 Du        
   5541 ****        -3.7500   2.5000  20.2500 Du        
   5542 ****        -3.7500   2.5000  24.7500 Du        
   5543 ****        -3.7500   2.5000  25.0000 Du        
   5544 ****        -3.7500   2.5000  25.2500 Du        
   5545 ****        -3.7500   2.5000  25.5000 Du        
   5546 ****        -3.7500   2.5000  25.7500 Du        
   5547 ****        -3.7500   2.5000  26.0000 Du        
   5548 ****        -3.7500   2.5000  26.2500 Du        
   5549 ****        -3.7500   2.7500  16.2500 Du        
   5550 ****        -3.7500   2.7500  16.5000 Du        
   5551 ****        -3.7500   2.7500  16.7500 Du        
   5552 ****        -3.7500   2.7500  17.0000 Du        
   5553 ****        -3.7500   2.7500  17.2500 Du        
   5554 ****        -3.7500   2.7500  17.5000 Du        
   5555 ****        -3.7500   2.7500  17.7500 Du        
   5556 ****        -3.7500   2.7500  18.0000 Du        
   5557 ****        -3.7500   2.7500  18.2500 Du        
   5558 ****        -3.7500   2.7500  18.5000 Du        
   5559 ****        -3.7500   2.7500  18.7500 Du        
   5560 ****        -3.7500   2.7500  19.0000 Du        
   5561 ****        -3.7500   2.7500  19.2500 Du        
   5562 ****        -3.7500   2.7500  19.5000 Du        
   5563 ****        -3.7500   2.7500  19.7500 Du        
   5564 ****        -3.7500   2.7500  20.0000 Du        
   5565 ****        -3.7500   2.7500  20.2500 Du        
   5566 ****        -3.7500   2.7500  24.7500 Du        
   5567 ****        -3.7500   2.7500  25.0000 Du        
   5568 ****        -3.7500   2.7500  25.2500 Du        
   5569 ****        -3.7500   2.7500  25.5000 Du        
   5570 ****        -3.7500   2.7500  25.7500 Du        
   5571 ****        -3.7500   2.7500  26.0000 Du        
   5572 ****        -3.7500   2.7500  26.2500 Du        
   5573 ****        -3.7500   3.0000  18.5000 Du        
   5574 ****        -3.7500   3.0000  18.7500 Du        
   5575 ****        -3.7500   3.0000  19.0000 Du        
   5576 ****        -3.7500   3.0000  19.2500 Du        
   5577 ****        -3.7500   3.0000  19.5000 Du        
   5578 ****        -3.7500   3.0000  19.7500 Du        
   5579 ****        -3.7500   3.0000  20.0000 Du        
   5580 ****        -3.7500   3.0000  20.2500 Du        
   5581 ****        -3.7500   3.0000  24.7500 Du        
   5582 ****        -3.7500   3.0000  25.0000 Du        
   5583 ****        -3.7500   3.0000  25.2500 Du        
   5584 ****        -3.7500   3.0000  25.5000 Du        
   5585 ****        -3.7500   3.0000  25.7500 Du        
   5586 ****        -3.7500   3.0000  26.0000 Du        
   5587 ****        -3.7500   3.0000  26.2500 Du        
   5588 ****        -3.7500   3.2500  19.0000 Du        
   5589 ****        -3.7500   3.2500  19.2500 Du        
   5590 ****        -3.7500   3.2500  19.5000 Du        
   5591 ****        -3.7500   3.2500  19.7500 Du        
   5592 ****        -3.7500   3.2500  20.0000 Du        
   5593 ****        -3.7500   3.2500  20.2500 Du        
   5594 ****        -3.7500   3.2500  24.5000 Du        
   5595 ****        -3.7500   3.2500  24.7500 Du        
   5596 ****        -3.7500   3.2500  25.0000 Du        
   5597 ****        -3.7500   3.2500  25.2500 Du        
   5598 ****        -3.7500   3.2500  25.5000 Du        
   5599 ****        -3.7500   3.2500  25.7500 Du        
   5600 ****        -3.7500   3.2500  26.0000 Du        
   5601 ****        -3.7500   3.2500  26.2500 Du        
   5602 ****        -3.7500   3.5000  19.7500 Du        
   5603 ****        -3.7500   3.5000  20.0000 Du        
   5604 ****        -3.7500   3.5000  20.2500 Du        
   5605 ****        -3.7500   3.5000  24.5000 Du        
   5606 ****        -3.7500   3.5000  24.7500 Du        
   5607 ****        -3.7500   3.5000  25.0000 Du        
   5608 ****        -3.7500   3.5000  25.2500 Du        
   5609 ****        -3.7500   3.5000  25.5000 Du        
   5610 ****        -3.7500   3.5000  25.7500 Du        
   5611 ****        -3.7500   3.5000  26.0000 Du        
   5612 ****        -3.7500   3.7500  24.5000 Du        
   5613 ****        -3.7500   3.7500  24.7500 Du        
   5614 ****        -3.7500   3.7500  25.0000 Du        
   5615 ****        -3.7500   3.7500  25.2500 Du        
   5616 ****        -3.7500   3.7500  25.5000 Du        
   5617 ****        -3.7500   3.7500  25.7500 Du        
   5618 ****        -3.7500   3.7500  26.0000 Du        
   5619 ****        -3.7500   4.0000  24.2500 Du        
   5620 ****        -3.7500   4.0000  24.5000 Du        
   5621 ****        -3.7500   4.0000  24.7500 Du        
   5622 ****        -3.7500   4.0000  25.0000 Du        
   5623 ****        -3.7500   4.0000  25.2500 Du        
   5624 ****        -3.7500   4.0000  25.5000 Du        
   5625 ****        -3.7500   4.0000  25.7500 Du        
   5626 ****        -3.7500   4.0000  26.0000 Du        
   5627 ****        -3.7500   4.2500  24.2500 Du        
   5628 ****        -3.7500   4.2500  24.5000 Du        
   5629 ****        -3.7500   4.2500  24.7500 Du        
   5630 ****        -3.7500   4.2500  25.0000 Du        
   5631 ****        -3.7500   4.2500  25.2500 Du        
   5632 ****        -3.7500   4.2500  25.5000 Du        
   5633 ****        -3.7500   4.2500  25.7500 Du        
   5634 ****        -3.7500   4.2500  26.0000 Du        
   5635 ****        -3.7500   4.5000  24.2500 Du        
   5636 ****        -3.7500   4.5000  24.5000 Du        
   5637 ****        -3.7500   4.5000  24.7500 Du        
   5638 ****        -3.7500   4.5000  25.0000 Du        
   5639 ****        -3.7500   4.5000  25.2500 Du        
   5640 ****        -3.7500   4.5000  25.5000 Du        
   5641 ****        -3.7500   4.5000  25.7500 Du        
   5642 ****        -3.7500   4.7500  24.2500 Du        
   5643 ****        -3.7500   4.7500  24.5000 Du        
   5644 ****        -3.7500   4.7500  24.7500 Du        
   5645 ****        -3.7500   4.7500  25.0000 Du        
   5646 ****        -3.7500   4.7500  25.2500 Du        
   5647 ****        -3.7500   4.7500  25.5000 Du        
   5648 ****        -3.7500   4.7500  25.7500 Du        
   5649 ****        -3.7500   5.0000  24.0000 Du        
   5650 ****        -3.7500   5.0000  24.2500 Du        
   5651 ****        -3.7500   5.0000  24.5000 Du        
   5652 ****        -3.7500   5.0000  24.7500 Du        
   5653 ****        -3.7500   5.0000  25.0000 Du        
   5654 ****        -3.7500   5.0000  25.2500 Du        
   5655 ****        -3.7500   5.0000  25.5000 Du        
   5656 ****        -3.7500   5.2500  24.0000 Du        
   5657 ****        -3.7500   5.2500  24.2500 Du        
   5658 ****        -3.7500   5.2500  24.5000 Du        
   5659 ****        -3.7500   5.2500  24.7500 Du        
   5660 ****        -3.7500   5.2500  25.0000 Du        
   5661 ****        -3.7500   5.2500  25.2500 Du        
   5662 ****        -3.7500   5.5000  21.7500 Du        
   5663 ****        -3.7500   5.5000  22.0000 Du        
   5664 ****        -3.7500   5.5000  23.7500 Du        
   5665 ****        -3.7500   5.5000  24.0000 Du        
   5666 ****        -3.7500   5.5000  24.2500 Du        
   5667 ****        -3.7500   5.5000  24.5000 Du        
   5668 ****        -3.7500   5.5000  24.7500 Du        
   5669 ****        -3.7500   5.5000  25.0000 Du        
   5670 ****        -3.7500   5.5000  25.2500 Du        
   5671 ****        -3.7500   5.7500  21.0000 Du        
   5672 ****        -3.7500   5.7500  21.2500 Du        
   5673 ****        -3.7500   5.7500  21.5000 Du        
   5674 ****        -3.7500   5.7500  21.7500 Du        
   5675 ****        -3.7500   5.7500  22.0000 Du        
   5676 ****        -3.7500   5.7500  22.2500 Du        
   5677 ****        -3.7500   5.7500  22.5000 Du        
   5678 ****        -3.7500   5.7500  22.7500 Du        
   5679 ****        -3.7500   5.7500  23.0000 Du        
   5680 ****        -3.7500   5.7500  23.2500 Du        
   5681 ****        -3.7500   5.7500  23.5000 Du        
   5682 ****        -3.7500   5.7500  23.7500 Du        
   5683 ****        -3.7500   5.7500  24.0000 Du        
   5684 ****        -3.7500   5.7500  24.2500 Du        
   5685 ****        -3.7500   5.7500  24.5000 Du        
   5686 ****        -3.7500   5.7500  24.7500 Du        
   5687 ****        -3.7500   5.7500  25.0000 Du        
   5688 ****        -3.7500   5.7500  25.2500 Du        
   5689 ****        -3.7500   6.0000  21.0000 Du        
   5690 ****        -3.7500   6.0000  21.2500 Du        
   5691 ****        -3.7500   6.0000  21.5000 Du        
   5692 ****        -3.7500   6.0000  21.7500 Du        
   5693 ****        -3.7500   6.0000  22.0000 Du        
   5694 ****        -3.7500   6.0000  22.2500 Du        
   5695 ****        -3.7500   6.0000  22.5000 Du        
   5696 ****        -3.7500   6.0000  22.7500 Du        
   5697 ****        -3.7500   6.0000  23.0000 Du        
   5698 ****        -3.7500   6.0000  23.2500 Du        
   5699 ****        -3.7500   6.0000  23.5000 Du        
   5700 ****        -3.7500   6.0000  23.7500 Du        
   5701 ****        -3.7500   6.0000  24.0000 Du        
   5702 ****        -3.7500   6.0000  24.2500 Du        
   5703 ****        -3.7500   6.0000  24.5000 Du        
   5704 ****        -3.7500   6.0000  24.7500 Du        
   5705 ****        -3.7500   6.0000  25.0000 Du        
   5706 ****        -3.7500   6.0000  25.2500 Du        
   5707 ****        -3.7500   6.2500  20.7500 Du        
   5708 ****        -3.7500   6.2500  21.0000 Du        
   5709 ****        -3.7500   6.2500  21.2500 Du        
   5710 ****        -3.7500   6.2500  21.5000 Du        
   5711 ****        -3.7500   6.2500  21.7500 Du        
   5712 ****        -3.7500   6.2500  22.0000 Du        
   5713 ****        -3.7500   6.2500  22.2500 Du        
   5714 ****        -3.7500   6.2500  22.7500 Du        
   5715 ****        -3.7500   6.2500  23.0000 Du        
   5716 ****        -3.7500   6.2500  23.2500 Du        
   5717 ****        -3.7500   6.2500  23.5000 Du        
   5718 ****        -3.7500   6.2500  23.7500 Du        
   5719 ****        -3.7500   6.2500  24.0000 Du        
   5720 ****        -3.7500   6.2500  24.2500 Du        
   5721 ****        -3.7500   6.2500  24.5000 Du        
   5722 ****        -3.7500   6.2500  24.7500 Du        
   5723 ****        -3.7500   6.2500  25.0000 Du        
   5724 ****        -3.7500   6.2500  25.2500 Du        
   5725 ****        -3.7500   6.5000  20.7500 Du        
   5726 ****        -3.7500   6.5000  21.0000 Du        
   5727 ****        -3.7500   6.5000  21.2500 Du        
   5728 ****        -3.7500   6.5000  21.5000 Du        
   5729 ****        -3.7500   6.5000  22.2500 Du        
   5730 ****        -3.7500   6.5000  22.7500 Du        
   5731 ****        -3.7500   6.5000  23.0000 Du        
   5732 ****        -3.7500   6.5000  23.2500 Du        
   5733 ****        -3.7500   6.5000  23.5000 Du        
   5734 ****        -3.7500   6.5000  23.7500 Du        
   5735 ****        -3.7500   6.5000  24.0000 Du        
   5736 ****        -3.7500   6.5000  24.7500 Du        
   5737 ****        -3.7500   6.5000  25.0000 Du        
   5738 ****        -3.7500   6.5000  25.2500 Du        
   5739 ****        -3.7500   6.7500  20.5000 Du        
   5740 ****        -3.7500   6.7500  20.7500 Du        
   5741 ****        -3.7500   6.7500  21.0000 Du        
   5742 ****        -3.7500   6.7500  21.2500 Du        
   5743 ****        -3.7500   6.7500  21.5000 Du        
   5744 ****        -3.7500   6.7500  22.2500 Du        
   5745 ****        -3.7500   6.7500  22.7500 Du        
   5746 ****        -3.7500   6.7500  23.0000 Du        
   5747 ****        -3.7500   6.7500  23.2500 Du        
   5748 ****        -3.7500   6.7500  23.7500 Du        
   5749 ****        -3.7500   6.7500  24.0000 Du        
   5750 ****        -3.7500   6.7500  25.0000 Du        
   5751 ****        -3.7500   6.7500  25.2500 Du        
   5752 ****        -3.7500   7.0000  20.5000 Du        
   5753 ****        -3.7500   7.0000  20.7500 Du        
   5754 ****        -3.7500   7.0000  21.0000 Du        
   5755 ****        -3.7500   7.0000  21.2500 Du        
   5756 ****        -3.7500   7.0000  22.2500 Du        
   5757 ****        -3.7500   7.0000  22.7500 Du        
   5758 ****        -3.7500   7.0000  23.0000 Du        
   5759 ****        -3.7500   7.0000  23.2500 Du        
   5760 ****        -3.7500   7.0000  23.5000 Du        
   5761 ****        -3.7500   7.0000  23.7500 Du        
   5762 ****        -3.7500   7.0000  24.0000 Du        
   5763 ****        -3.7500   7.0000  24.7500 Du        
   5764 ****        -3.7500   7.0000  25.2500 Du        
   5765 ****        -3.7500   7.2500  20.2500 Du        
   5766 ****        -3.7500   7.2500  20.5000 Du        
   5767 ****        -3.7500   7.2500  20.7500 Du        
   5768 ****        -3.7500   7.2500  21.0000 Du        
   5769 ****        -3.7500   7.2500  21.2500 Du        
   5770 ****        -3.7500   7.2500  22.0000 Du        
   5771 ****        -3.7500   7.2500  22.2500 Du        
   5772 ****        -3.7500   7.2500  22.7500 Du        
   5773 ****        -3.7500   7.2500  23.0000 Du        
   5774 ****        -3.7500   7.2500  23.2500 Du        
   5775 ****        -3.7500   7.2500  23.5000 Du        
   5776 ****        -3.7500   7.2500  23.7500 Du        
   5777 ****        -3.7500   7.2500  24.0000 Du        
   5778 ****        -3.7500   7.2500  24.2500 Du        
   5779 ****        -3.7500   7.2500  24.5000 Du        
   5780 ****        -3.7500   7.2500  24.7500 Du        
   5781 ****        -3.7500   7.2500  25.0000 Du        
   5782 ****        -3.7500   7.2500  25.2500 Du        
   5783 ****        -3.7500   7.5000  20.0000 Du        
   5784 ****        -3.7500   7.5000  20.2500 Du        
   5785 ****        -3.7500   7.5000  20.5000 Du        
   5786 ****        -3.7500   7.5000  20.7500 Du        
   5787 ****        -3.7500   7.5000  21.0000 Du        
   5788 ****        -3.7500   7.5000  21.2500 Du        
   5789 ****        -3.7500   7.5000  22.2500 Du        
   5790 ****        -3.7500   7.5000  22.7500 Du        
   5791 ****        -3.7500   7.5000  23.0000 Du        
   5792 ****        -3.7500   7.5000  23.2500 Du        
   5793 ****        -3.7500   7.5000  23.5000 Du        
   5794 ****        -3.7500   7.5000  23.7500 Du        
   5795 ****        -3.7500   7.5000  24.0000 Du        
   5796 ****        -3.7500   7.7500  20.0000 Du        
   5797 ****        -3.7500   7.7500  20.2500 Du        
   5798 ****        -3.7500   7.7500  20.5000 Du        
   5799 ****        -3.7500   7.7500  20.7500 Du        
   5800 ****        -3.7500   7.7500  21.0000 Du        
   5801 ****        -3.7500   7.7500  21.2500 Du        
   5802 ****        -3.7500   7.7500  21.7500 Du        
   5803 ****        -3.7500   7.7500  22.0000 Du        
   5804 ****        -3.7500   7.7500  22.2500 Du        
   5805 ****        -3.7500   7.7500  22.5000 Du        
   5806 ****        -3.7500   7.7500  22.7500 Du        
   5807 ****        -3.7500   7.7500  23.0000 Du        
   5808 ****        -3.7500   7.7500  23.2500 Du        
   5809 ****        -3.7500   7.7500  23.5000 Du        
   5810 ****        -3.7500   7.7500  23.7500 Du        
   5811 ****        -3.7500   7.7500  24.0000 Du        
   5812 ****        -3.7500   7.7500  24.2500 Du        
   5813 ****        -3.7500   8.0000  19.7500 Du        
   5814 ****        -3.7500   8.0000  20.0000 Du        
   5815 ****        -3.7500   8.0000  20.2500 Du        
   5816 ****        -3.7500   8.0000  20.5000 Du        
   5817 ****        -3.7500   8.0000  20.7500 Du        
   5818 ****        -3.7500   8.0000  21.0000 Du        
   5819 ****        -3.7500   8.0000  21.2500 Du        
   5820 ****        -3.7500   8.0000  21.5000 Du        
   5821 ****        -3.7500   8.0000  21.7500 Du        
   5822 ****        -3.7500   8.0000  22.0000 Du        
   5823 ****        -3.7500   8.0000  22.2500 Du        
   5824 ****        -3.7500   8.0000  22.5000 Du        
   5825 ****        -3.7500   8.0000  22.7500 Du        
   5826 ****        -3.7500   8.0000  23.0000 Du        
   5827 ****        -3.7500   8.0000  23.2500 Du        
   5828 ****        -3.7500   8.0000  23.5000 Du        
   5829 ****        -3.7500   8.0000  23.7500 Du        
   5830 ****        -3.7500   8.0000  24.0000 Du        
   5831 ****        -3.7500   8.0000  24.2500 Du        
   5832 ****        -3.7500   8.2500  19.7500 Du        
   5833 ****        -3.7500   8.2500  20.0000 Du        
   5834 ****        -3.7500   8.2500  20.2500 Du        
   5835 ****        -3.7500   8.2500  20.5000 Du        
   5836 ****        -3.7500   8.2500  20.7500 Du        
   5837 ****        -3.7500   8.2500  21.0000 Du        
   5838 ****        -3.7500   8.2500  21.2500 Du        
   5839 ****        -3.7500   8.2500  21.5000 Du        
   5840 ****        -3.7500   8.2500  21.7500 Du        
   5841 ****        -3.7500   8.2500  22.0000 Du        
   5842 ****        -3.7500   8.2500  22.2500 Du        
   5843 ****        -3.7500   8.2500  22.5000 Du        
   5844 ****        -3.7500   8.2500  22.7500 Du        
   5845 ****        -3.7500   8.2500  23.0000 Du        
   5846 ****        -3.7500   8.2500  23.2500 Du        
   5847 ****        -3.7500   8.2500  23.5000 Du        
   5848 ****        -3.7500   8.2500  23.7500 Du        
   5849 ****        -3.7500   8.2500  24.0000 Du        
   5850 ****        -3.7500   8.2500  24.2500 Du        
   5851 ****        -3.7500   8.5000  20.2500 Du        
   5852 ****        -3.7500   8.5000  20.5000 Du        
   5853 ****        -3.7500   8.5000  20.7500 Du        
   5854 ****        -3.7500   8.5000  21.0000 Du        
   5855 ****        -3.7500   8.5000  21.2500 Du        
   5856 ****        -3.7500   8.5000  21.5000 Du        
   5857 ****        -3.7500   8.5000  21.7500 Du        
   5858 ****        -3.7500   8.5000  22.0000 Du        
   5859 ****        -3.7500   8.5000  22.2500 Du        
   5860 ****        -3.7500   8.5000  22.5000 Du        
   5861 ****        -3.7500   8.5000  22.7500 Du        
   5862 ****        -3.7500   8.5000  23.0000 Du        
   5863 ****        -3.7500   8.5000  23.2500 Du        
   5864 ****        -3.7500   8.5000  23.5000 Du        
   5865 ****        -3.7500   8.5000  23.7500 Du        
   5866 ****        -3.7500   8.5000  24.0000 Du        
   5867 ****        -3.7500   8.5000  24.2500 Du        
   5868 ****        -3.7500   8.7500  20.7500 Du        
   5869 ****        -3.7500   8.7500  21.0000 Du        
   5870 ****        -3.7500   8.7500  21.2500 Du        
   5871 ****        -3.7500   8.7500  21.5000 Du        
   5872 ****        -3.7500   8.7500  21.7500 Du        
   5873 ****        -3.7500   8.7500  22.0000 Du        
   5874 ****        -3.7500   8.7500  22.2500 Du        
   5875 ****        -3.7500   8.7500  22.5000 Du        
   5876 ****        -3.7500   8.7500  22.7500 Du        
   5877 ****        -3.7500   8.7500  23.0000 Du        
   5878 ****        -3.7500   8.7500  23.2500 Du        
   5879 ****        -3.7500   8.7500  23.5000 Du        
   5880 ****        -3.7500   8.7500  23.7500 Du        
   5881 ****        -3.7500   8.7500  24.0000 Du        
   5882 ****        -3.7500   8.7500  24.2500 Du        
   5883 ****        -3.7500   9.0000  21.2500 Du        
   5884 ****        -3.7500   9.0000  21.5000 Du        
   5885 ****        -3.7500   9.0000  21.7500 Du        
   5886 ****        -3.7500   9.0000  22.0000 Du        
   5887 ****        -3.7500   9.0000  22.2500 Du        
   5888 ****        -3.7500   9.0000  22.5000 Du        
   5889 ****        -3.7500   9.0000  22.7500 Du        
   5890 ****        -3.7500   9.0000  23.0000 Du        
   5891 ****        -3.7500   9.0000  23.2500 Du        
   5892 ****        -3.7500   9.0000  23.5000 Du        
   5893 ****        -3.7500   9.0000  23.7500 Du        
   5894 ****        -3.7500   9.0000  24.0000 Du        
   5895 ****        -3.7500   9.0000  24.2500 Du        
   5896 ****        -3.7500   9.2500  21.5000 Du        
   5897 ****        -3.7500   9.2500  21.7500 Du        
   5898 ****        -3.7500   9.2500  22.0000 Du        
   5899 ****        -3.7500   9.2500  22.2500 Du        
   5900 ****        -3.7500   9.2500  22.5000 Du        
   5901 ****        -3.7500   9.2500  22.7500 Du        
   5902 ****        -3.7500   9.2500  23.0000 Du        
   5903 ****        -3.7500   9.2500  23.2500 Du        
   5904 ****        -3.7500   9.2500  23.5000 Du        
   5905 ****        -3.7500   9.2500  23.7500 Du        
   5906 ****        -3.7500   9.2500  24.0000 Du        
   5907 ****        -3.7500   9.5000  21.7500 Du        
   5908 ****        -3.7500   9.5000  22.0000 Du        
   5909 ****        -3.7500   9.5000  22.2500 Du        
   5910 ****        -3.7500   9.5000  22.5000 Du        
   5911 ****        -3.7500   9.5000  22.7500 Du        
   5912 ****        -3.7500   9.5000  23.0000 Du        
   5913 ****        -3.7500   9.5000  23.2500 Du        
   5914 ****        -3.7500   9.5000  23.5000 Du        
   5915 ****        -3.7500   9.5000  23.7500 Du        
   5916 ****        -3.7500   9.7500  22.0000 Du        
   5917 ****        -3.7500   9.7500  22.2500 Du        
   5918 ****        -3.7500   9.7500  22.5000 Du        
   5919 ****        -3.7500   9.7500  22.7500 Du        
   5920 ****        -3.7500   9.7500  23.0000 Du        
   5921 ****        -3.7500   9.7500  23.2500 Du        
   5922 ****        -3.7500   9.7500  23.5000 Du        
   5923 ****        -3.7500  10.0000  22.2500 Du        
   5924 ****        -3.7500  10.0000  22.5000 Du        
   5925 ****        -3.7500  10.0000  22.7500 Du        
   5926 ****        -3.7500  10.0000  23.0000 Du        
   5927 ****        -3.7500  10.0000  23.2500 Du        
   5928 ****        -3.7500  10.0000  23.5000 Du        
   5929 ****        -3.7500  10.2500  22.5000 Du        
   5930 ****        -3.7500  10.2500  22.7500 Du        
   5931 ****        -3.7500  10.2500  23.0000 Du        
   5932 ****        -3.7500  10.2500  23.2500 Du        
   5933 ****        -3.7500  10.5000  22.7500 Du        
   5934 ****        -3.7500  10.5000  23.0000 Du        
   5935 ****        -3.5000  -9.0000   9.2500 Du        
   5936 ****        -3.5000  -9.0000   9.5000 Du        
   5937 ****        -3.5000  -9.0000   9.7500 Du        
   5938 ****        -3.5000  -9.0000  10.0000 Du        
   5939 ****        -3.5000  -9.0000  10.2500 Du        
   5940 ****        -3.5000  -9.0000  10.5000 Du        
   5941 ****        -3.5000  -9.0000  10.7500 Du        
   5942 ****        -3.5000  -9.0000  11.0000 Du        
   5943 ****        -3.5000  -9.0000  11.2500 Du        
   5944 ****        -3.5000  -9.0000  11.5000 Du        
   5945 ****        -3.5000  -9.0000  11.7500 Du        
   5946 ****        -3.5000  -9.0000  12.0000 Du        
   5947 ****        -3.5000  -9.0000  12.2500 Du        
   5948 ****        -3.5000  -8.7500   8.7500 Du        
   5949 ****        -3.5000  -8.7500   9.0000 Du        
   5950 ****        -3.5000  -8.7500   9.2500 Du        
   5951 ****        -3.5000  -8.7500   9.5000 Du        
   5952 ****        -3.5000  -8.7500   9.7500 Du        
   5953 ****        -3.5000  -8.7500  10.0000 Du        
   5954 ****        -3.5000  -8.7500  10.2500 Du        
   5955 ****        -3.5000  -8.7500  10.5000 Du        
   5956 ****        -3.5000  -8.7500  10.7500 Du        
   5957 ****        -3.5000  -8.7500  11.0000 Du        
   5958 ****        -3.5000  -8.7500  11.2500 Du        
   5959 ****        -3.5000  -8.7500  11.5000 Du        
   5960 ****        -3.5000  -8.7500  11.7500 Du        
   5961 ****        -3.5000  -8.7500  12.0000 Du        
   5962 ****        -3.5000  -8.7500  12.2500 Du        
   5963 ****        -3.5000  -8.5000   8.7500 Du        
   5964 ****        -3.5000  -8.5000   9.0000 Du        
   5965 ****        -3.5000  -8.5000   9.2500 Du        
   5966 ****        -3.5000  -8.5000   9.5000 Du        
   5967 ****        -3.5000  -8.5000   9.7500 Du        
   5968 ****        -3.5000  -8.5000  10.0000 Du        
   5969 ****        -3.5000  -8.5000  10.2500 Du        
   5970 ****        -3.5000  -8.5000  10.5000 Du        
   5971 ****        -3.5000  -8.5000  10.7500 Du        
   5972 ****        -3.5000  -8.5000  11.0000 Du        
   5973 ****        -3.5000  -8.5000  11.2500 Du        
   5974 ****        -3.5000  -8.5000  11.5000 Du        
   5975 ****        -3.5000  -8.5000  11.7500 Du        
   5976 ****        -3.5000  -8.5000  12.0000 Du        
   5977 ****        -3.5000  -8.5000  12.2500 Du        
   5978 ****        -3.5000  -8.5000  12.5000 Du        
   5979 ****        -3.5000  -8.2500   8.5000 Du        
   5980 ****        -3.5000  -8.2500   8.7500 Du        
   5981 ****        -3.5000  -8.2500   9.0000 Du        
   5982 ****        -3.5000  -8.2500   9.2500 Du        
   5983 ****        -3.5000  -8.2500   9.5000 Du        
   5984 ****        -3.5000  -8.2500   9.7500 Du        
   5985 ****        -3.5000  -8.2500  10.0000 Du        
   5986 ****        -3.5000  -8.2500  10.2500 Du        
   5987 ****        -3.5000  -8.2500  10.5000 Du        
   5988 ****        -3.5000  -8.2500  10.7500 Du        
   5989 ****        -3.5000  -8.2500  11.0000 Du        
   5990 ****        -3.5000  -8.2500  11.2500 Du        
   5991 ****        -3.5000  -8.2500  11.5000 Du        
   5992 ****        -3.5000  -8.2500  11.7500 Du        
   5993 ****        -3.5000  -8.2500  12.0000 Du        
   5994 ****        -3.5000  -8.2500  12.2500 Du        
   5995 ****        -3.5000  -8.2500  12.5000 Du        
   5996 ****        -3.5000  -8.0000   8.5000 Du        
   5997 ****        -3.5000  -8.0000   8.7500 Du        
   5998 ****        -3.5000  -8.0000   9.0000 Du        
   5999 ****        -3.5000  -8.0000   9.2500 Du        
   6000 ****        -3.5000  -8.0000   9.5000 Du        
   6001 ****        -3.5000  -8.0000   9.7500 Du        
   6002 ****        -3.5000  -8.0000  10.0000 Du        
   6003 ****        -3.5000  -8.0000  10.2500 Du        
   6004 ****        -3.5000  -8.0000  10.5000 Du        
   6005 ****        -3.5000  -8.0000  10.7500 Du        
   6006 ****        -3.5000  -8.0000  11.0000 Du        
   6007 ****        -3.5000  -8.0000  11.2500 Du        
   6008 ****        -3.5000  -8.0000  11.5000 Du        
   6009 ****        -3.5000  -8.0000  11.7500 Du        
   6010 ****        -3.5000  -8.0000  12.0000 Du        
   6011 ****        -3.5000  -8.0000  12.2500 Du        
   6012 ****        -3.5000  -8.0000  12.5000 Du        
   6013 ****        -3.5000  -7.7500   8.5000 Du        
   6014 ****        -3.5000  -7.7500   8.7500 Du        
   6015 ****        -3.5000  -7.7500   9.0000 Du        
   6016 ****        -3.5000  -7.7500   9.2500 Du        
   6017 ****        -3.5000  -7.7500   9.5000 Du        
   6018 ****        -3.5000  -7.7500   9.7500 Du        
   6019 ****        -3.5000  -7.7500  10.0000 Du        
   6020 ****        -3.5000  -7.7500  10.2500 Du        
   6021 ****        -3.5000  -7.7500  10.5000 Du        
   6022 ****        -3.5000  -7.7500  10.7500 Du        
   6023 ****        -3.5000  -7.5000   8.5000 Du        
   6024 ****        -3.5000  -7.5000   8.7500 Du        
   6025 ****        -3.5000  -7.5000   9.0000 Du        
   6026 ****        -3.5000  -7.5000   9.2500 Du        
   6027 ****        -3.5000  -7.5000   9.5000 Du        
   6028 ****        -3.5000  -7.5000   9.7500 Du        
   6029 ****        -3.5000  -7.5000  10.0000 Du        
   6030 ****        -3.5000  -7.5000  10.2500 Du        
   6031 ****        -3.5000  -7.2500   8.7500 Du        
   6032 ****        -3.5000  -7.2500   9.0000 Du        
   6033 ****        -3.5000  -7.2500   9.2500 Du        
   6034 ****        -3.5000  -7.2500   9.5000 Du        
   6035 ****        -3.5000  -7.2500   9.7500 Du        
   6036 ****        -3.5000  -7.0000   8.7500 Du        
   6037 ****        -3.5000  -7.0000   9.0000 Du        
   6038 ****        -3.5000  -7.0000   9.2500 Du        
   6039 ****        -3.5000  -7.0000   9.5000 Du        
   6040 ****        -3.5000  -6.7500   8.7500 Du        
   6041 ****        -3.5000  -6.7500   9.0000 Du        
   6042 ****        -3.5000  -6.7500   9.2500 Du        
   6043 ****        -3.5000  -6.5000   8.7500 Du        
   6044 ****        -3.5000  -6.5000   9.0000 Du        
   6045 ****        -3.5000  -2.0000  20.5000 Du        
   6046 ****        -3.5000  -2.0000  20.7500 Du        
   6047 ****        -3.5000  -2.0000  21.0000 Du        
   6048 ****        -3.5000  -1.7500  20.2500 Du        
   6049 ****        -3.5000  -1.7500  20.5000 Du        
   6050 ****        -3.5000  -1.7500  20.7500 Du        
   6051 ****        -3.5000  -1.7500  21.0000 Du        
   6052 ****        -3.5000  -1.7500  21.2500 Du        
   6053 ****        -3.5000  -1.7500  21.5000 Du        
   6054 ****        -3.5000  -1.5000  20.2500 Du        
   6055 ****        -3.5000  -1.5000  20.5000 Du        
   6056 ****        -3.5000  -1.5000  20.7500 Du        
   6057 ****        -3.5000  -1.5000  21.0000 Du        
   6058 ****        -3.5000  -1.5000  21.2500 Du        
   6059 ****        -3.5000  -1.5000  21.5000 Du        
   6060 ****        -3.5000  -1.5000  21.7500 Du        
   6061 ****        -3.5000  -1.5000  22.0000 Du        
   6062 ****        -3.5000  -1.5000  23.7500 Du        
   6063 ****        -3.5000  -1.5000  24.0000 Du        
   6064 ****        -3.5000  -1.5000  24.2500 Du        
   6065 ****        -3.5000  -1.5000  24.5000 Du        
   6066 ****        -3.5000  -1.5000  24.7500 Du        
   6067 ****        -3.5000  -1.5000  25.0000 Du        
   6068 ****        -3.5000  -1.5000  25.2500 Du        
   6069 ****        -3.5000  -1.5000  25.5000 Du        
   6070 ****        -3.5000  -1.5000  25.7500 Du        
   6071 ****        -3.5000  -1.5000  26.0000 Du        
   6072 ****        -3.5000  -1.5000  26.2500 Du        
   6073 ****        -3.5000  -1.5000  27.0000 Du        
   6074 ****        -3.5000  -1.5000  27.2500 Du        
   6075 ****        -3.5000  -1.2500  20.2500 Du        
   6076 ****        -3.5000  -1.2500  20.5000 Du        
   6077 ****        -3.5000  -1.2500  20.7500 Du        
   6078 ****        -3.5000  -1.2500  21.0000 Du        
   6079 ****        -3.5000  -1.2500  21.2500 Du        
   6080 ****        -3.5000  -1.2500  21.5000 Du        
   6081 ****        -3.5000  -1.2500  21.7500 Du        
   6082 ****        -3.5000  -1.2500  23.5000 Du        
   6083 ****        -3.5000  -1.2500  23.7500 Du        
   6084 ****        -3.5000  -1.2500  24.0000 Du        
   6085 ****        -3.5000  -1.2500  24.2500 Du        
   6086 ****        -3.5000  -1.2500  24.5000 Du        
   6087 ****        -3.5000  -1.2500  24.7500 Du        
   6088 ****        -3.5000  -1.2500  25.0000 Du        
   6089 ****        -3.5000  -1.2500  25.2500 Du        
   6090 ****        -3.5000  -1.2500  25.5000 Du        
   6091 ****        -3.5000  -1.2500  25.7500 Du        
   6092 ****        -3.5000  -1.2500  26.0000 Du        
   6093 ****        -3.5000  -1.2500  26.2500 Du        
   6094 ****        -3.5000  -1.2500  26.5000 Du        
   6095 ****        -3.5000  -1.2500  26.7500 Du        
   6096 ****        -3.5000  -1.2500  27.0000 Du        
   6097 ****        -3.5000  -1.0000  20.0000 Du        
   6098 ****        -3.5000  -1.0000  20.2500 Du        
   6099 ****        -3.5000  -1.0000  20.5000 Du        
   6100 ****        -3.5000  -1.0000  20.7500 Du        
   6101 ****        -3.5000  -1.0000  21.0000 Du        
   6102 ****        -3.5000  -1.0000  21.2500 Du        
   6103 ****        -3.5000  -1.0000  23.7500 Du        
   6104 ****        -3.5000  -1.0000  24.0000 Du        
   6105 ****        -3.5000  -1.0000  24.2500 Du        
   6106 ****        -3.5000  -1.0000  24.5000 Du        
   6107 ****        -3.5000  -1.0000  24.7500 Du        
   6108 ****        -3.5000  -1.0000  25.0000 Du        
   6109 ****        -3.5000  -1.0000  25.2500 Du        
   6110 ****        -3.5000  -1.0000  25.5000 Du        
   6111 ****        -3.5000  -1.0000  25.7500 Du        
   6112 ****        -3.5000  -1.0000  26.0000 Du        
   6113 ****        -3.5000  -1.0000  26.2500 Du        
   6114 ****        -3.5000  -1.0000  26.5000 Du        
   6115 ****        -3.5000  -1.0000  26.7500 Du        
   6116 ****        -3.5000  -0.7500  20.0000 Du        
   6117 ****        -3.5000  -0.7500  20.2500 Du        
   6118 ****        -3.5000  -0.7500  20.5000 Du        
   6119 ****        -3.5000  -0.7500  20.7500 Du        
   6120 ****        -3.5000  -0.7500  21.0000 Du        
   6121 ****        -3.5000  -0.7500  24.0000 Du        
   6122 ****        -3.5000  -0.7500  24.2500 Du        
   6123 ****        -3.5000  -0.7500  24.5000 Du        
   6124 ****        -3.5000  -0.7500  24.7500 Du        
   6125 ****        -3.5000  -0.7500  25.0000 Du        
   6126 ****        -3.5000  -0.7500  25.2500 Du        
   6127 ****        -3.5000  -0.7500  25.5000 Du        
   6128 ****        -3.5000  -0.7500  25.7500 Du        
   6129 ****        -3.5000  -0.7500  26.0000 Du        
   6130 ****        -3.5000  -0.7500  26.2500 Du        
   6131 ****        -3.5000  -0.7500  26.5000 Du        
   6132 ****        -3.5000  -0.7500  26.7500 Du        
   6133 ****        -3.5000  -0.5000  20.0000 Du        
   6134 ****        -3.5000  -0.5000  20.2500 Du        
   6135 ****        -3.5000  -0.5000  20.5000 Du        
   6136 ****        -3.5000  -0.5000  24.2500 Du        
   6137 ****        -3.5000  -0.5000  24.5000 Du        
   6138 ****        -3.5000  -0.5000  24.7500 Du        
   6139 ****        -3.5000  -0.5000  25.0000 Du        
   6140 ****        -3.5000  -0.5000  25.2500 Du        
   6141 ****        -3.5000  -0.5000  25.5000 Du        
   6142 ****        -3.5000  -0.5000  25.7500 Du        
   6143 ****        -3.5000  -0.5000  26.0000 Du        
   6144 ****        -3.5000  -0.5000  26.2500 Du        
   6145 ****        -3.5000  -0.2500  20.0000 Du        
   6146 ****        -3.5000  -0.2500  20.2500 Du        
   6147 ****        -3.5000  -0.2500  24.7500 Du        
   6148 ****        -3.5000  -0.2500  25.0000 Du        
   6149 ****        -3.5000  -0.2500  25.2500 Du        
   6150 ****        -3.5000  -0.2500  25.5000 Du        
   6151 ****        -3.5000  -0.2500  25.7500 Du        
   6152 ****        -3.5000  -0.2500  26.0000 Du        
   6153 ****        -3.5000  -0.2500  26.2500 Du        
   6154 ****        -3.5000   0.0000  20.0000 Du        
   6155 ****        -3.5000   0.0000  24.7500 Du        
   6156 ****        -3.5000   0.0000  25.0000 Du        
   6157 ****        -3.5000   0.0000  25.2500 Du        
   6158 ****        -3.5000   0.0000  25.5000 Du        
   6159 ****        -3.5000   0.0000  25.7500 Du        
   6160 ****        -3.5000   0.0000  26.0000 Du        
   6161 ****        -3.5000   0.0000  26.2500 Du        
   6162 ****        -3.5000   0.2500  19.7500 Du        
   6163 ****        -3.5000   0.2500  20.0000 Du        
   6164 ****        -3.5000   0.2500  24.7500 Du        
   6165 ****        -3.5000   0.2500  25.0000 Du        
   6166 ****        -3.5000   0.2500  25.2500 Du        
   6167 ****        -3.5000   0.2500  25.5000 Du        
   6168 ****        -3.5000   0.2500  25.7500 Du        
   6169 ****        -3.5000   0.5000  19.2500 Du        
   6170 ****        -3.5000   0.5000  19.5000 Du        
   6171 ****        -3.5000   0.5000  19.7500 Du        
   6172 ****        -3.5000   0.5000  20.0000 Du        
   6173 ****        -3.5000   0.5000  25.5000 Du        
   6174 ****        -3.5000   0.5000  25.7500 Du        
   6175 ****        -3.5000   0.7500  18.7500 Du        
   6176 ****        -3.5000   0.7500  19.0000 Du        
   6177 ****        -3.5000   0.7500  19.2500 Du        
   6178 ****        -3.5000   0.7500  19.5000 Du        
   6179 ****        -3.5000   0.7500  19.7500 Du        
   6180 ****        -3.5000   0.7500  20.0000 Du        
   6181 ****        -3.5000   0.7500  25.2500 Du        
   6182 ****        -3.5000   0.7500  25.5000 Du        
   6183 ****        -3.5000   0.7500  25.7500 Du        
   6184 ****        -3.5000   1.0000  18.5000 Du        
   6185 ****        -3.5000   1.0000  18.7500 Du        
   6186 ****        -3.5000   1.0000  19.0000 Du        
   6187 ****        -3.5000   1.0000  19.2500 Du        
   6188 ****        -3.5000   1.0000  19.5000 Du        
   6189 ****        -3.5000   1.0000  19.7500 Du        
   6190 ****        -3.5000   1.0000  20.0000 Du        
   6191 ****        -3.5000   1.0000  20.2500 Du        
   6192 ****        -3.5000   1.0000  25.2500 Du        
   6193 ****        -3.5000   1.0000  25.5000 Du        
   6194 ****        -3.5000   1.0000  25.7500 Du        
   6195 ****        -3.5000   1.2500  18.0000 Du        
   6196 ****        -3.5000   1.2500  18.2500 Du        
   6197 ****        -3.5000   1.2500  18.5000 Du        
   6198 ****        -3.5000   1.2500  18.7500 Du        
   6199 ****        -3.5000   1.2500  19.0000 Du        
   6200 ****        -3.5000   1.2500  19.2500 Du        
   6201 ****        -3.5000   1.2500  19.5000 Du        
   6202 ****        -3.5000   1.2500  19.7500 Du        
   6203 ****        -3.5000   1.2500  20.0000 Du        
   6204 ****        -3.5000   1.2500  20.2500 Du        
   6205 ****        -3.5000   1.2500  25.5000 Du        
   6206 ****        -3.5000   1.2500  25.7500 Du        
   6207 ****        -3.5000   1.2500  26.0000 Du        
   6208 ****        -3.5000   1.5000  15.7500 Du        
   6209 ****        -3.5000   1.5000  16.0000 Du        
   6210 ****        -3.5000   1.5000  16.2500 Du        
   6211 ****        -3.5000   1.5000  16.5000 Du        
   6212 ****        -3.5000   1.5000  16.7500 Du        
   6213 ****        -3.5000   1.5000  17.0000 Du        
   6214 ****        -3.5000   1.5000  17.2500 Du        
   6215 ****        -3.5000   1.5000  17.5000 Du        
   6216 ****        -3.5000   1.5000  17.7500 Du        
   6217 ****        -3.5000   1.5000  18.0000 Du        
   6218 ****        -3.5000   1.5000  18.2500 Du        
   6219 ****        -3.5000   1.5000  18.5000 Du        
   6220 ****        -3.5000   1.5000  18.7500 Du        
   6221 ****        -3.5000   1.5000  19.0000 Du        
   6222 ****        -3.5000   1.5000  19.2500 Du        
   6223 ****        -3.5000   1.5000  19.5000 Du        
   6224 ****        -3.5000   1.5000  19.7500 Du        
   6225 ****        -3.5000   1.5000  20.0000 Du        
   6226 ****        -3.5000   1.5000  20.2500 Du        
   6227 ****        -3.5000   1.7500  15.7500 Du        
   6228 ****        -3.5000   1.7500  16.0000 Du        
   6229 ****        -3.5000   1.7500  16.2500 Du        
   6230 ****        -3.5000   1.7500  16.5000 Du        
   6231 ****        -3.5000   1.7500  16.7500 Du        
   6232 ****        -3.5000   1.7500  17.0000 Du        
   6233 ****        -3.5000   1.7500  17.2500 Du        
   6234 ****        -3.5000   1.7500  17.5000 Du        
   6235 ****        -3.5000   1.7500  17.7500 Du        
   6236 ****        -3.5000   1.7500  18.0000 Du        
   6237 ****        -3.5000   1.7500  18.2500 Du        
   6238 ****        -3.5000   1.7500  18.5000 Du        
   6239 ****        -3.5000   1.7500  18.7500 Du        
   6240 ****        -3.5000   1.7500  19.0000 Du        
   6241 ****        -3.5000   1.7500  19.2500 Du        
   6242 ****        -3.5000   1.7500  19.5000 Du        
   6243 ****        -3.5000   1.7500  19.7500 Du        
   6244 ****        -3.5000   1.7500  20.0000 Du        
   6245 ****        -3.5000   1.7500  20.2500 Du        
   6246 ****        -3.5000   2.0000  15.7500 Du        
   6247 ****        -3.5000   2.0000  16.0000 Du        
   6248 ****        -3.5000   2.0000  16.2500 Du        
   6249 ****        -3.5000   2.0000  16.5000 Du        
   6250 ****        -3.5000   2.0000  16.7500 Du        
   6251 ****        -3.5000   2.0000  17.0000 Du        
   6252 ****        -3.5000   2.0000  17.2500 Du        
   6253 ****        -3.5000   2.0000  17.5000 Du        
   6254 ****        -3.5000   2.0000  17.7500 Du        
   6255 ****        -3.5000   2.0000  18.0000 Du        
   6256 ****        -3.5000   2.0000  18.2500 Du        
   6257 ****        -3.5000   2.0000  18.5000 Du        
   6258 ****        -3.5000   2.0000  18.7500 Du        
   6259 ****        -3.5000   2.0000  19.0000 Du        
   6260 ****        -3.5000   2.0000  19.2500 Du        
   6261 ****        -3.5000   2.0000  19.5000 Du        
   6262 ****        -3.5000   2.0000  19.7500 Du        
   6263 ****        -3.5000   2.0000  20.0000 Du        
   6264 ****        -3.5000   2.0000  20.2500 Du        
   6265 ****        -3.5000   2.2500  16.0000 Du        
   6266 ****        -3.5000   2.2500  16.2500 Du        
   6267 ****        -3.5000   2.2500  16.5000 Du        
   6268 ****        -3.5000   2.2500  16.7500 Du        
   6269 ****        -3.5000   2.2500  17.0000 Du        
   6270 ****        -3.5000   2.2500  17.2500 Du        
   6271 ****        -3.5000   2.2500  17.5000 Du        
   6272 ****        -3.5000   2.2500  17.7500 Du        
   6273 ****        -3.5000   2.2500  18.0000 Du        
   6274 ****        -3.5000   2.2500  18.2500 Du        
   6275 ****        -3.5000   2.2500  18.5000 Du        
   6276 ****        -3.5000   2.2500  18.7500 Du        
   6277 ****        -3.5000   2.2500  19.0000 Du        
   6278 ****        -3.5000   2.2500  19.2500 Du        
   6279 ****        -3.5000   2.2500  19.5000 Du        
   6280 ****        -3.5000   2.2500  19.7500 Du        
   6281 ****        -3.5000   2.2500  20.0000 Du        
   6282 ****        -3.5000   2.2500  20.2500 Du        
   6283 ****        -3.5000   2.2500  25.5000 Du        
   6284 ****        -3.5000   2.5000  16.0000 Du        
   6285 ****        -3.5000   2.5000  16.2500 Du        
   6286 ****        -3.5000   2.5000  16.5000 Du        
   6287 ****        -3.5000   2.5000  16.7500 Du        
   6288 ****        -3.5000   2.5000  17.0000 Du        
   6289 ****        -3.5000   2.5000  17.2500 Du        
   6290 ****        -3.5000   2.5000  17.5000 Du        
   6291 ****        -3.5000   2.5000  17.7500 Du        
   6292 ****        -3.5000   2.5000  18.0000 Du        
   6293 ****        -3.5000   2.5000  18.2500 Du        
   6294 ****        -3.5000   2.5000  18.5000 Du        
   6295 ****        -3.5000   2.5000  18.7500 Du        
   6296 ****        -3.5000   2.5000  19.0000 Du        
   6297 ****        -3.5000   2.5000  19.2500 Du        
   6298 ****        -3.5000   2.5000  19.5000 Du        
   6299 ****        -3.5000   2.5000  19.7500 Du        
   6300 ****        -3.5000   2.5000  20.0000 Du        
   6301 ****        -3.5000   2.5000  25.0000 Du        
   6302 ****        -3.5000   2.5000  25.2500 Du        
   6303 ****        -3.5000   2.5000  25.5000 Du        
   6304 ****        -3.5000   2.5000  25.7500 Du        
   6305 ****        -3.5000   2.5000  26.0000 Du        
   6306 ****        -3.5000   2.5000  26.2500 Du        
   6307 ****        -3.5000   2.7500  16.0000 Du        
   6308 ****        -3.5000   2.7500  16.2500 Du        
   6309 ****        -3.5000   2.7500  16.5000 Du        
   6310 ****        -3.5000   2.7500  16.7500 Du        
   6311 ****        -3.5000   2.7500  17.0000 Du        
   6312 ****        -3.5000   2.7500  17.2500 Du        
   6313 ****        -3.5000   2.7500  17.5000 Du        
   6314 ****        -3.5000   2.7500  17.7500 Du        
   6315 ****        -3.5000   2.7500  18.0000 Du        
   6316 ****        -3.5000   2.7500  18.2500 Du        
   6317 ****        -3.5000   2.7500  18.5000 Du        
   6318 ****        -3.5000   2.7500  18.7500 Du        
   6319 ****        -3.5000   2.7500  19.0000 Du        
   6320 ****        -3.5000   2.7500  19.2500 Du        
   6321 ****        -3.5000   2.7500  19.5000 Du        
   6322 ****        -3.5000   2.7500  19.7500 Du        
   6323 ****        -3.5000   2.7500  20.0000 Du        
   6324 ****        -3.5000   2.7500  25.0000 Du        
   6325 ****        -3.5000   2.7500  25.2500 Du        
   6326 ****        -3.5000   2.7500  25.5000 Du        
   6327 ****        -3.5000   2.7500  25.7500 Du        
   6328 ****        -3.5000   2.7500  26.0000 Du        
   6329 ****        -3.5000   2.7500  26.2500 Du        
   6330 ****        -3.5000   3.0000  16.7500 Du        
   6331 ****        -3.5000   3.0000  17.0000 Du        
   6332 ****        -3.5000   3.0000  17.2500 Du        
   6333 ****        -3.5000   3.0000  17.5000 Du        
   6334 ****        -3.5000   3.0000  17.7500 Du        
   6335 ****        -3.5000   3.0000  18.0000 Du        
   6336 ****        -3.5000   3.0000  18.2500 Du        
   6337 ****        -3.5000   3.0000  18.5000 Du        
   6338 ****        -3.5000   3.0000  18.7500 Du        
   6339 ****        -3.5000   3.0000  19.0000 Du        
   6340 ****        -3.5000   3.0000  19.2500 Du        
   6341 ****        -3.5000   3.0000  19.5000 Du        
   6342 ****        -3.5000   3.0000  19.7500 Du        
   6343 ****        -3.5000   3.0000  20.0000 Du        
   6344 ****        -3.5000   3.0000  24.7500 Du        
   6345 ****        -3.5000   3.0000  25.0000 Du        
   6346 ****        -3.5000   3.0000  25.2500 Du        
   6347 ****        -3.5000   3.0000  25.5000 Du        
   6348 ****        -3.5000   3.0000  25.7500 Du        
   6349 ****        -3.5000   3.0000  26.0000 Du        
   6350 ****        -3.5000   3.0000  26.2500 Du        
   6351 ****        -3.5000   3.2500  19.0000 Du        
   6352 ****        -3.5000   3.2500  19.2500 Du        
   6353 ****        -3.5000   3.2500  19.5000 Du        
   6354 ****        -3.5000   3.2500  19.7500 Du        
   6355 ****        -3.5000   3.2500  20.0000 Du        
   6356 ****        -3.5000   3.2500  24.7500 Du        
   6357 ****        -3.5000   3.2500  25.0000 Du        
   6358 ****        -3.5000   3.2500  25.2500 Du        
   6359 ****        -3.5000   3.2500  25.5000 Du        
   6360 ****        -3.5000   3.2500  25.7500 Du        
   6361 ****        -3.5000   3.2500  26.0000 Du        
   6362 ****        -3.5000   3.5000  19.5000 Du        
   6363 ****        -3.5000   3.5000  19.7500 Du        
   6364 ****        -3.5000   3.5000  20.0000 Du        
   6365 ****        -3.5000   3.5000  24.7500 Du        
   6366 ****        -3.5000   3.5000  25.0000 Du        
   6367 ****        -3.5000   3.5000  25.2500 Du        
   6368 ****        -3.5000   3.5000  25.5000 Du        
   6369 ****        -3.5000   3.5000  25.7500 Du        
   6370 ****        -3.5000   3.5000  26.0000 Du        
   6371 ****        -3.5000   3.7500  24.7500 Du        
   6372 ****        -3.5000   3.7500  25.0000 Du        
   6373 ****        -3.5000   3.7500  25.2500 Du        
   6374 ****        -3.5000   3.7500  25.5000 Du        
   6375 ****        -3.5000   3.7500  25.7500 Du        
   6376 ****        -3.5000   3.7500  26.0000 Du        
   6377 ****        -3.5000   4.0000  24.7500 Du        
   6378 ****        -3.5000   4.0000  25.0000 Du        
   6379 ****        -3.5000   4.0000  25.2500 Du        
   6380 ****        -3.5000   4.0000  25.5000 Du        
   6381 ****        -3.5000   4.0000  25.7500 Du        
   6382 ****        -3.5000   4.0000  26.0000 Du        
   6383 ****        -3.5000   4.2500  24.7500 Du        
   6384 ****        -3.5000   4.2500  25.0000 Du        
   6385 ****        -3.5000   4.2500  25.2500 Du        
   6386 ****        -3.5000   4.2500  25.5000 Du        
   6387 ****        -3.5000   4.2500  25.7500 Du        
   6388 ****        -3.5000   4.2500  26.0000 Du        
   6389 ****        -3.5000   4.5000  24.7500 Du        
   6390 ****        -3.5000   4.5000  25.0000 Du        
   6391 ****        -3.5000   4.5000  25.2500 Du        
   6392 ****        -3.5000   4.5000  25.5000 Du        
   6393 ****        -3.5000   4.5000  25.7500 Du        
   6394 ****        -3.5000   4.7500  24.7500 Du        
   6395 ****        -3.5000   4.7500  25.0000 Du        
   6396 ****        -3.5000   4.7500  25.2500 Du        
   6397 ****        -3.5000   4.7500  25.5000 Du        
   6398 ****        -3.5000   5.0000  24.7500 Du        
   6399 ****        -3.5000   5.0000  25.5000 Du        
   6400 ****        -3.5000   7.5000  20.0000 Du        
   6401 ****        -3.5000   7.5000  20.2500 Du        
   6402 ****        -3.5000   7.5000  24.0000 Du        
   6403 ****        -3.5000   7.7500  20.0000 Du        
   6404 ****        -3.5000   7.7500  20.2500 Du        
   6405 ****        -3.5000   7.7500  20.5000 Du        
   6406 ****        -3.5000   7.7500  24.0000 Du        
   6407 ****        -3.5000   7.7500  24.2500 Du        
   6408 ****        -3.5000   8.0000  19.7500 Du        
   6409 ****        -3.5000   8.0000  20.0000 Du        
   6410 ****        -3.5000   8.0000  20.2500 Du        
   6411 ****        -3.5000   8.0000  20.5000 Du        
   6412 ****        -3.5000   8.0000  23.7500 Du        
   6413 ****        -3.5000   8.0000  24.0000 Du        
   6414 ****        -3.5000   8.2500  19.5000 Du        
   6415 ****        -3.5000   8.2500  19.7500 Du        
   6416 ****        -3.5000   8.2500  20.0000 Du        
   6417 ****        -3.5000   8.2500  20.2500 Du        
   6418 ****        -3.5000   8.2500  20.5000 Du        
   6419 ****        -3.5000   8.2500  20.7500 Du        
   6420 ****        -3.5000   8.2500  24.0000 Du        
   6421 ****        -3.5000   8.5000  20.0000 Du        
   6422 ****        -3.5000   8.5000  20.2500 Du        
   6423 ****        -3.5000   8.5000  20.5000 Du        
   6424 ****        -3.5000   8.5000  20.7500 Du        
   6425 ****        -3.5000   8.5000  21.0000 Du        
   6426 ****        -3.5000   8.5000  21.2500 Du        
   6427 ****        -3.5000   8.5000  22.7500 Du        
   6428 ****        -3.5000   8.5000  23.0000 Du        
   6429 ****        -3.5000   8.5000  23.2500 Du        
   6430 ****        -3.5000   8.5000  23.5000 Du        
   6431 ****        -3.5000   8.5000  23.7500 Du        
   6432 ****        -3.5000   8.5000  24.0000 Du        
   6433 ****        -3.5000   8.7500  20.7500 Du        
   6434 ****        -3.5000   8.7500  21.0000 Du        
   6435 ****        -3.5000   8.7500  21.2500 Du        
   6436 ****        -3.5000   8.7500  21.5000 Du        
   6437 ****        -3.5000   8.7500  21.7500 Du        
   6438 ****        -3.5000   8.7500  22.0000 Du        
   6439 ****        -3.5000   8.7500  22.2500 Du        
   6440 ****        -3.5000   8.7500  22.5000 Du        
   6441 ****        -3.5000   8.7500  22.7500 Du        
   6442 ****        -3.5000   8.7500  23.0000 Du        
   6443 ****        -3.5000   8.7500  23.2500 Du        
   6444 ****        -3.5000   8.7500  23.5000 Du        
   6445 ****        -3.5000   8.7500  23.7500 Du        
   6446 ****        -3.5000   8.7500  24.0000 Du        
   6447 ****        -3.5000   8.7500  24.2500 Du        
   6448 ****        -3.5000   9.0000  21.2500 Du        
   6449 ****        -3.5000   9.0000  21.5000 Du        
   6450 ****        -3.5000   9.0000  21.7500 Du        
   6451 ****        -3.5000   9.0000  22.0000 Du        
   6452 ****        -3.5000   9.0000  22.2500 Du        
   6453 ****        -3.5000   9.0000  22.5000 Du        
   6454 ****        -3.5000   9.0000  22.7500 Du        
   6455 ****        -3.5000   9.0000  23.0000 Du        
   6456 ****        -3.5000   9.0000  23.2500 Du        
   6457 ****        -3.5000   9.0000  23.5000 Du        
   6458 ****        -3.5000   9.0000  23.7500 Du        
   6459 ****        -3.5000   9.0000  24.0000 Du        
   6460 ****        -3.5000   9.2500  21.5000 Du        
   6461 ****        -3.5000   9.2500  21.7500 Du        
   6462 ****        -3.5000   9.2500  22.0000 Du        
   6463 ****        -3.5000   9.2500  22.2500 Du        
   6464 ****        -3.5000   9.2500  22.5000 Du        
   6465 ****        -3.5000   9.2500  22.7500 Du        
   6466 ****        -3.5000   9.2500  23.0000 Du        
   6467 ****        -3.5000   9.2500  23.2500 Du        
   6468 ****        -3.5000   9.2500  23.5000 Du        
   6469 ****        -3.5000   9.2500  23.7500 Du        
   6470 ****        -3.5000   9.2500  24.0000 Du        
   6471 ****        -3.5000   9.5000  21.7500 Du        
   6472 ****        -3.5000   9.5000  22.0000 Du        
   6473 ****        -3.5000   9.5000  22.2500 Du        
   6474 ****        -3.5000   9.5000  22.5000 Du        
   6475 ****        -3.5000   9.5000  22.7500 Du        
   6476 ****        -3.5000   9.5000  23.0000 Du        
   6477 ****        -3.5000   9.5000  23.2500 Du        
   6478 ****        -3.5000   9.5000  23.5000 Du        
   6479 ****        -3.5000   9.5000  23.7500 Du        
   6480 ****        -3.5000   9.7500  22.0000 Du        
   6481 ****        -3.5000   9.7500  22.2500 Du        
   6482 ****        -3.5000   9.7500  22.5000 Du        
   6483 ****        -3.5000   9.7500  22.7500 Du        
   6484 ****        -3.5000   9.7500  23.0000 Du        
   6485 ****        -3.5000   9.7500  23.2500 Du        
   6486 ****        -3.5000   9.7500  23.5000 Du        
   6487 ****        -3.5000   9.7500  23.7500 Du        
   6488 ****        -3.5000  10.0000  22.2500 Du        
   6489 ****        -3.5000  10.0000  22.5000 Du        
   6490 ****        -3.5000  10.0000  22.7500 Du        
   6491 ****        -3.5000  10.0000  23.0000 Du        
   6492 ****        -3.5000  10.0000  23.2500 Du        
   6493 ****        -3.5000  10.0000  23.5000 Du        
   6494 ****        -3.5000  10.2500  22.5000 Du        
   6495 ****        -3.5000  10.2500  22.7500 Du        
   6496 ****        -3.5000  10.2500  23.0000 Du        
   6497 ****        -3.5000  10.2500  23.2500 Du        
   6498 ****        -3.5000  10.5000  22.7500 Du        
   6499 ****        -3.5000  10.5000  23.0000 Du        
   6500 ****        -3.5000  10.5000  23.2500 Du        
   6501 ****        -3.5000  10.7500  23.0000 Du        
   6502 ****        -3.2500  -9.0000   8.5000 Du        
   6503 ****        -3.2500  -9.0000   8.7500 Du        
   6504 ****        -3.2500  -9.0000   9.0000 Du        
   6505 ****        -3.2500  -9.0000   9.2500 Du        
   6506 ****        -3.2500  -9.0000   9.5000 Du        
   6507 ****        -3.2500  -9.0000   9.7500 Du        
   6508 ****        -3.2500  -9.0000  10.0000 Du        
   6509 ****        -3.2500  -9.0000  10.2500 Du        
   6510 ****        -3.2500  -9.0000  10.5000 Du        
   6511 ****        -3.2500  -9.0000  10.7500 Du        
   6512 ****        -3.2500  -9.0000  11.0000 Du        
   6513 ****        -3.2500  -9.0000  11.2500 Du        
   6514 ****        -3.2500  -9.0000  11.5000 Du        
   6515 ****        -3.2500  -9.0000  11.7500 Du        
   6516 ****        -3.2500  -9.0000  12.0000 Du        
   6517 ****        -3.2500  -9.0000  12.2500 Du        
   6518 ****        -3.2500  -9.0000  12.5000 Du        
   6519 ****        -3.2500  -8.7500   8.5000 Du        
   6520 ****        -3.2500  -8.7500   8.7500 Du        
   6521 ****        -3.2500  -8.7500   9.0000 Du        
   6522 ****        -3.2500  -8.7500   9.2500 Du        
   6523 ****        -3.2500  -8.7500   9.5000 Du        
   6524 ****        -3.2500  -8.7500   9.7500 Du        
   6525 ****        -3.2500  -8.7500  10.0000 Du        
   6526 ****        -3.2500  -8.7500  10.2500 Du        
   6527 ****        -3.2500  -8.7500  10.5000 Du        
   6528 ****        -3.2500  -8.7500  10.7500 Du        
   6529 ****        -3.2500  -8.7500  11.0000 Du        
   6530 ****        -3.2500  -8.7500  11.2500 Du        
   6531 ****        -3.2500  -8.7500  11.5000 Du        
   6532 ****        -3.2500  -8.7500  11.7500 Du        
   6533 ****        -3.2500  -8.7500  12.0000 Du        
   6534 ****        -3.2500  -8.7500  12.2500 Du        
   6535 ****        -3.2500  -8.7500  12.5000 Du        
   6536 ****        -3.2500  -8.5000   8.5000 Du        
   6537 ****        -3.2500  -8.5000   8.7500 Du        
   6538 ****        -3.2500  -8.5000   9.0000 Du        
   6539 ****        -3.2500  -8.5000   9.2500 Du        
   6540 ****        -3.2500  -8.5000   9.5000 Du        
   6541 ****        -3.2500  -8.5000   9.7500 Du        
   6542 ****        -3.2500  -8.5000  10.0000 Du        
   6543 ****        -3.2500  -8.5000  10.2500 Du        
   6544 ****        -3.2500  -8.5000  10.5000 Du        
   6545 ****        -3.2500  -8.5000  10.7500 Du        
   6546 ****        -3.2500  -8.5000  11.0000 Du        
   6547 ****        -3.2500  -8.5000  11.2500 Du        
   6548 ****        -3.2500  -8.5000  11.5000 Du        
   6549 ****        -3.2500  -8.5000  11.7500 Du        
   6550 ****        -3.2500  -8.5000  12.0000 Du        
   6551 ****        -3.2500  -8.5000  12.2500 Du        
   6552 ****        -3.2500  -8.5000  12.5000 Du        
   6553 ****        -3.2500  -8.2500   8.5000 Du        
   6554 ****        -3.2500  -8.2500   8.7500 Du        
   6555 ****        -3.2500  -8.2500   9.0000 Du        
   6556 ****        -3.2500  -8.2500   9.2500 Du        
   6557 ****        -3.2500  -8.2500   9.5000 Du        
   6558 ****        -3.2500  -8.2500   9.7500 Du        
   6559 ****        -3.2500  -8.2500  10.0000 Du        
   6560 ****        -3.2500  -8.2500  10.2500 Du        
   6561 ****        -3.2500  -8.2500  10.5000 Du        
   6562 ****        -3.2500  -8.2500  10.7500 Du        
   6563 ****        -3.2500  -8.2500  11.0000 Du        
   6564 ****        -3.2500  -8.2500  11.2500 Du        
   6565 ****        -3.2500  -8.2500  11.5000 Du        
   6566 ****        -3.2500  -8.2500  11.7500 Du        
   6567 ****        -3.2500  -8.2500  12.0000 Du        
   6568 ****        -3.2500  -8.2500  12.2500 Du        
   6569 ****        -3.2500  -8.2500  12.5000 Du        
   6570 ****        -3.2500  -8.0000   8.7500 Du        
   6571 ****        -3.2500  -8.0000   9.0000 Du        
   6572 ****        -3.2500  -8.0000   9.2500 Du        
   6573 ****        -3.2500  -8.0000   9.5000 Du        
   6574 ****        -3.2500  -8.0000   9.7500 Du        
   6575 ****        -3.2500  -8.0000  10.0000 Du        
   6576 ****        -3.2500  -8.0000  10.2500 Du        
   6577 ****        -3.2500  -8.0000  10.5000 Du        
   6578 ****        -3.2500  -8.0000  10.7500 Du        
   6579 ****        -3.2500  -8.0000  11.0000 Du        
   6580 ****        -3.2500  -8.0000  12.2500 Du        
   6581 ****        -3.2500  -8.0000  12.5000 Du        
   6582 ****        -3.2500  -7.7500   8.7500 Du        
   6583 ****        -3.2500  -7.7500   9.0000 Du        
   6584 ****        -3.2500  -7.7500   9.2500 Du        
   6585 ****        -3.2500  -7.7500   9.5000 Du        
   6586 ****        -3.2500  -7.7500   9.7500 Du        
   6587 ****        -3.2500  -7.7500  10.0000 Du        
   6588 ****        -3.2500  -7.7500  10.2500 Du        
   6589 ****        -3.2500  -7.7500  10.5000 Du        
   6590 ****        -3.2500  -7.5000   8.7500 Du        
   6591 ****        -3.2500  -7.5000   9.0000 Du        
   6592 ****        -3.2500  -7.5000   9.2500 Du        
   6593 ****        -3.2500  -7.5000   9.5000 Du        
   6594 ****        -3.2500  -7.5000   9.7500 Du        
   6595 ****        -3.2500  -7.5000  10.0000 Du        
   6596 ****        -3.2500  -7.2500   8.7500 Du        
   6597 ****        -3.2500  -7.2500   9.0000 Du        
   6598 ****        -3.2500  -7.2500   9.2500 Du        
   6599 ****        -3.2500  -7.2500   9.5000 Du        
   6600 ****        -3.2500  -7.2500   9.7500 Du        
   6601 ****        -3.2500  -7.0000   8.7500 Du        
   6602 ****        -3.2500  -7.0000   9.0000 Du        
   6603 ****        -3.2500  -7.0000   9.2500 Du        
   6604 ****        -3.2500  -7.0000   9.5000 Du        
   6605 ****        -3.2500  -6.7500   9.0000 Du        
   6606 ****        -3.2500  -6.7500   9.2500 Du        
   6607 ****        -3.2500  -1.7500  20.5000 Du        
   6608 ****        -3.2500  -1.7500  20.7500 Du        
   6609 ****        -3.2500  -1.7500  21.0000 Du        
   6610 ****        -3.2500  -1.5000  20.5000 Du        
   6611 ****        -3.2500  -1.5000  20.7500 Du        
   6612 ****        -3.2500  -1.5000  21.0000 Du        
   6613 ****        -3.2500  -1.5000  21.2500 Du        
   6614 ****        -3.2500  -1.5000  24.2500 Du        
   6615 ****        -3.2500  -1.5000  24.5000 Du        
   6616 ****        -3.2500  -1.5000  24.7500 Du        
   6617 ****        -3.2500  -1.5000  25.0000 Du        
   6618 ****        -3.2500  -1.5000  25.2500 Du        
   6619 ****        -3.2500  -1.5000  25.5000 Du        
   6620 ****        -3.2500  -1.5000  25.7500 Du        
   6621 ****        -3.2500  -1.5000  26.0000 Du        
   6622 ****        -3.2500  -1.5000  26.2500 Du        
   6623 ****        -3.2500  -1.2500  20.5000 Du        
   6624 ****        -3.2500  -1.2500  20.7500 Du        
   6625 ****        -3.2500  -1.2500  21.0000 Du        
   6626 ****        -3.2500  -1.2500  21.2500 Du        
   6627 ****        -3.2500  -1.2500  24.0000 Du        
   6628 ****        -3.2500  -1.2500  24.2500 Du        
   6629 ****        -3.2500  -1.2500  24.5000 Du        
   6630 ****        -3.2500  -1.2500  24.7500 Du        
   6631 ****        -3.2500  -1.2500  25.0000 Du        
   6632 ****        -3.2500  -1.2500  25.2500 Du        
   6633 ****        -3.2500  -1.2500  25.5000 Du        
   6634 ****        -3.2500  -1.2500  25.7500 Du        
   6635 ****        -3.2500  -1.2500  26.0000 Du        
   6636 ****        -3.2500  -1.2500  26.2500 Du        
   6637 ****        -3.2500  -1.2500  26.5000 Du        
   6638 ****        -3.2500  -1.2500  26.7500 Du        
   6639 ****        -3.2500  -1.2500  27.0000 Du        
   6640 ****        -3.2500  -1.0000  20.5000 Du        
   6641 ****        -3.2500  -1.0000  20.7500 Du        
   6642 ****        -3.2500  -1.0000  24.0000 Du        
   6643 ****        -3.2500  -1.0000  24.2500 Du        
   6644 ****        -3.2500  -1.0000  24.5000 Du        
   6645 ****        -3.2500  -1.0000  24.7500 Du        
   6646 ****        -3.2500  -1.0000  25.0000 Du        
   6647 ****        -3.2500  -1.0000  25.2500 Du        
   6648 ****        -3.2500  -1.0000  25.5000 Du        
   6649 ****        -3.2500  -1.0000  25.7500 Du        
   6650 ****        -3.2500  -1.0000  26.0000 Du        
   6651 ****        -3.2500  -1.0000  26.2500 Du        
   6652 ****        -3.2500  -1.0000  26.5000 Du        
   6653 ****        -3.2500  -1.0000  26.7500 Du        
   6654 ****        -3.2500  -1.0000  27.0000 Du        
   6655 ****        -3.2500  -0.7500  24.2500 Du        
   6656 ****        -3.2500  -0.7500  24.5000 Du        
   6657 ****        -3.2500  -0.7500  24.7500 Du        
   6658 ****        -3.2500  -0.7500  25.0000 Du        
   6659 ****        -3.2500  -0.7500  25.2500 Du        
   6660 ****        -3.2500  -0.7500  25.5000 Du        
   6661 ****        -3.2500  -0.7500  25.7500 Du        
   6662 ****        -3.2500  -0.7500  26.0000 Du        
   6663 ****        -3.2500  -0.7500  26.2500 Du        
   6664 ****        -3.2500  -0.7500  26.5000 Du        
   6665 ****        -3.2500  -0.5000  24.7500 Du        
   6666 ****        -3.2500  -0.5000  25.0000 Du        
   6667 ****        -3.2500  -0.5000  25.2500 Du        
   6668 ****        -3.2500  -0.5000  25.5000 Du        
   6669 ****        -3.2500  -0.5000  25.7500 Du        
   6670 ****        -3.2500  -0.5000  26.0000 Du        
   6671 ****        -3.2500  -0.5000  26.2500 Du        
   6672 ****        -3.2500  -0.2500  24.7500 Du        
   6673 ****        -3.2500  -0.2500  25.0000 Du        
   6674 ****        -3.2500  -0.2500  25.2500 Du        
   6675 ****        -3.2500  -0.2500  25.5000 Du        
   6676 ****        -3.2500  -0.2500  25.7500 Du        
   6677 ****        -3.2500  -0.2500  26.0000 Du        
   6678 ****        -3.2500  -0.2500  26.2500 Du        
   6679 ****        -3.2500   0.0000  25.0000 Du        
   6680 ****        -3.2500   0.0000  25.2500 Du        
   6681 ****        -3.2500   0.0000  25.5000 Du        
   6682 ****        -3.2500   0.0000  25.7500 Du        
   6683 ****        -3.2500   0.0000  26.0000 Du        
   6684 ****        -3.2500   0.2500  25.0000 Du        
   6685 ****        -3.2500   0.2500  25.2500 Du        
   6686 ****        -3.2500   0.2500  25.5000 Du        
   6687 ****        -3.2500   0.2500  25.7500 Du        
   6688 ****        -3.2500   0.5000  25.5000 Du        
   6689 ****        -3.2500   0.7500  25.5000 Du        
   6690 ****        -3.2500   0.7500  25.7500 Du        
   6691 ****        -3.2500   1.0000  18.7500 Du        
   6692 ****        -3.2500   1.0000  19.0000 Du        
   6693 ****        -3.2500   1.0000  19.2500 Du        
   6694 ****        -3.2500   1.0000  19.5000 Du        
   6695 ****        -3.2500   1.0000  25.5000 Du        
   6696 ****        -3.2500   1.2500  18.0000 Du        
   6697 ****        -3.2500   1.2500  18.2500 Du        
   6698 ****        -3.2500   1.2500  18.5000 Du        
   6699 ****        -3.2500   1.2500  18.7500 Du        
   6700 ****        -3.2500   1.2500  19.0000 Du        
   6701 ****        -3.2500   1.2500  19.2500 Du        
   6702 ****        -3.2500   1.2500  19.5000 Du        
   6703 ****        -3.2500   1.2500  19.7500 Du        
   6704 ****        -3.2500   1.5000  15.7500 Du        
   6705 ****        -3.2500   1.5000  16.0000 Du        
   6706 ****        -3.2500   1.5000  16.2500 Du        
   6707 ****        -3.2500   1.5000  16.5000 Du        
   6708 ****        -3.2500   1.5000  16.7500 Du        
   6709 ****        -3.2500   1.5000  17.0000 Du        
   6710 ****        -3.2500   1.5000  17.2500 Du        
   6711 ****        -3.2500   1.5000  17.5000 Du        
   6712 ****        -3.2500   1.5000  17.7500 Du        
   6713 ****        -3.2500   1.5000  18.0000 Du        
   6714 ****        -3.2500   1.5000  18.2500 Du        
   6715 ****        -3.2500   1.5000  18.5000 Du        
   6716 ****        -3.2500   1.5000  18.7500 Du        
   6717 ****        -3.2500   1.5000  19.0000 Du        
   6718 ****        -3.2500   1.5000  19.2500 Du        
   6719 ****        -3.2500   1.5000  19.5000 Du        
   6720 ****        -3.2500   1.5000  19.7500 Du        
   6721 ****        -3.2500   1.5000  20.0000 Du        
   6722 ****        -3.2500   1.7500  15.7500 Du        
   6723 ****        -3.2500   1.7500  16.0000 Du        
   6724 ****        -3.2500   1.7500  16.2500 Du        
   6725 ****        -3.2500   1.7500  16.5000 Du        
   6726 ****        -3.2500   1.7500  16.7500 Du        
   6727 ****        -3.2500   1.7500  17.0000 Du        
   6728 ****        -3.2500   1.7500  17.2500 Du        
   6729 ****        -3.2500   1.7500  17.5000 Du        
   6730 ****        -3.2500   1.7500  17.7500 Du        
   6731 ****        -3.2500   1.7500  18.0000 Du        
   6732 ****        -3.2500   1.7500  18.2500 Du        
   6733 ****        -3.2500   1.7500  18.5000 Du        
   6734 ****        -3.2500   1.7500  18.7500 Du        
   6735 ****        -3.2500   1.7500  19.0000 Du        
   6736 ****        -3.2500   1.7500  19.2500 Du        
   6737 ****        -3.2500   1.7500  19.5000 Du        
   6738 ****        -3.2500   1.7500  19.7500 Du        
   6739 ****        -3.2500   1.7500  20.0000 Du        
   6740 ****        -3.2500   2.0000  15.7500 Du        
   6741 ****        -3.2500   2.0000  16.0000 Du        
   6742 ****        -3.2500   2.0000  16.2500 Du        
   6743 ****        -3.2500   2.0000  16.5000 Du        
   6744 ****        -3.2500   2.0000  16.7500 Du        
   6745 ****        -3.2500   2.0000  17.0000 Du        
   6746 ****        -3.2500   2.0000  17.2500 Du        
   6747 ****        -3.2500   2.0000  17.5000 Du        
   6748 ****        -3.2500   2.0000  17.7500 Du        
   6749 ****        -3.2500   2.0000  18.0000 Du        
   6750 ****        -3.2500   2.0000  18.2500 Du        
   6751 ****        -3.2500   2.0000  18.5000 Du        
   6752 ****        -3.2500   2.0000  18.7500 Du        
   6753 ****        -3.2500   2.0000  19.0000 Du        
   6754 ****        -3.2500   2.0000  19.2500 Du        
   6755 ****        -3.2500   2.0000  19.5000 Du        
   6756 ****        -3.2500   2.0000  19.7500 Du        
   6757 ****        -3.2500   2.0000  20.0000 Du        
   6758 ****        -3.2500   2.2500  15.7500 Du        
   6759 ****        -3.2500   2.2500  16.0000 Du        
   6760 ****        -3.2500   2.2500  16.2500 Du        
   6761 ****        -3.2500   2.2500  16.5000 Du        
   6762 ****        -3.2500   2.2500  16.7500 Du        
   6763 ****        -3.2500   2.2500  17.0000 Du        
   6764 ****        -3.2500   2.2500  17.2500 Du        
   6765 ****        -3.2500   2.2500  17.5000 Du        
   6766 ****        -3.2500   2.2500  17.7500 Du        
   6767 ****        -3.2500   2.2500  18.0000 Du        
   6768 ****        -3.2500   2.2500  18.2500 Du        
   6769 ****        -3.2500   2.2500  18.5000 Du        
   6770 ****        -3.2500   2.2500  18.7500 Du        
   6771 ****        -3.2500   2.2500  19.0000 Du        
   6772 ****        -3.2500   2.2500  19.2500 Du        
   6773 ****        -3.2500   2.2500  19.5000 Du        
   6774 ****        -3.2500   2.2500  19.7500 Du        
   6775 ****        -3.2500   2.2500  20.0000 Du        
   6776 ****        -3.2500   2.5000  16.0000 Du        
   6777 ****        -3.2500   2.5000  16.2500 Du        
   6778 ****        -3.2500   2.5000  16.5000 Du        
   6779 ****        -3.2500   2.5000  16.7500 Du        
   6780 ****        -3.2500   2.5000  17.0000 Du        
   6781 ****        -3.2500   2.5000  17.2500 Du        
   6782 ****        -3.2500   2.5000  17.5000 Du        
   6783 ****        -3.2500   2.5000  17.7500 Du        
   6784 ****        -3.2500   2.5000  18.0000 Du        
   6785 ****        -3.2500   2.5000  18.2500 Du        
   6786 ****        -3.2500   2.5000  18.5000 Du        
   6787 ****        -3.2500   2.5000  18.7500 Du        
   6788 ****        -3.2500   2.5000  19.0000 Du        
   6789 ****        -3.2500   2.5000  19.2500 Du        
   6790 ****        -3.2500   2.5000  19.5000 Du        
   6791 ****        -3.2500   2.5000  19.7500 Du        
   6792 ****        -3.2500   2.5000  20.0000 Du        
   6793 ****        -3.2500   2.5000  25.2500 Du        
   6794 ****        -3.2500   2.5000  25.5000 Du        
   6795 ****        -3.2500   2.5000  25.7500 Du        
   6796 ****        -3.2500   2.5000  26.0000 Du        
   6797 ****        -3.2500   2.7500  16.0000 Du        
   6798 ****        -3.2500   2.7500  16.2500 Du        
   6799 ****        -3.2500   2.7500  16.5000 Du        
   6800 ****        -3.2500   2.7500  16.7500 Du        
   6801 ****        -3.2500   2.7500  17.0000 Du        
   6802 ****        -3.2500   2.7500  17.2500 Du        
   6803 ****        -3.2500   2.7500  17.5000 Du        
   6804 ****        -3.2500   2.7500  17.7500 Du        
   6805 ****        -3.2500   2.7500  18.0000 Du        
   6806 ****        -3.2500   2.7500  18.2500 Du        
   6807 ****        -3.2500   2.7500  18.5000 Du        
   6808 ****        -3.2500   2.7500  18.7500 Du        
   6809 ****        -3.2500   2.7500  19.0000 Du        
   6810 ****        -3.2500   2.7500  19.2500 Du        
   6811 ****        -3.2500   2.7500  19.5000 Du        
   6812 ****        -3.2500   2.7500  19.7500 Du        
   6813 ****        -3.2500   2.7500  20.0000 Du        
   6814 ****        -3.2500   2.7500  25.2500 Du        
   6815 ****        -3.2500   2.7500  25.5000 Du        
   6816 ****        -3.2500   2.7500  25.7500 Du        
   6817 ****        -3.2500   2.7500  26.0000 Du        
   6818 ****        -3.2500   3.0000  16.2500 Du        
   6819 ****        -3.2500   3.0000  16.5000 Du        
   6820 ****        -3.2500   3.0000  16.7500 Du        
   6821 ****        -3.2500   3.0000  17.0000 Du        
   6822 ****        -3.2500   3.0000  17.2500 Du        
   6823 ****        -3.2500   3.0000  17.5000 Du        
   6824 ****        -3.2500   3.0000  17.7500 Du        
   6825 ****        -3.2500   3.0000  18.0000 Du        
   6826 ****        -3.2500   3.0000  18.2500 Du        
   6827 ****        -3.2500   3.0000  18.5000 Du        
   6828 ****        -3.2500   3.0000  18.7500 Du        
   6829 ****        -3.2500   3.0000  19.0000 Du        
   6830 ****        -3.2500   3.0000  19.2500 Du        
   6831 ****        -3.2500   3.0000  19.5000 Du        
   6832 ****        -3.2500   3.0000  19.7500 Du        
   6833 ****        -3.2500   3.0000  25.0000 Du        
   6834 ****        -3.2500   3.0000  25.2500 Du        
   6835 ****        -3.2500   3.0000  25.5000 Du        
   6836 ****        -3.2500   3.0000  25.7500 Du        
   6837 ****        -3.2500   3.0000  26.0000 Du        
   6838 ****        -3.2500   3.2500  18.5000 Du        
   6839 ****        -3.2500   3.2500  18.7500 Du        
   6840 ****        -3.2500   3.2500  19.0000 Du        
   6841 ****        -3.2500   3.2500  19.2500 Du        
   6842 ****        -3.2500   3.2500  19.5000 Du        
   6843 ****        -3.2500   3.2500  19.7500 Du        
   6844 ****        -3.2500   3.2500  25.0000 Du        
   6845 ****        -3.2500   3.2500  25.2500 Du        
   6846 ****        -3.2500   3.2500  25.5000 Du        
   6847 ****        -3.2500   3.2500  25.7500 Du        
   6848 ****        -3.2500   3.2500  26.0000 Du        
   6849 ****        -3.2500   3.5000  19.2500 Du        
   6850 ****        -3.2500   3.5000  19.5000 Du        
   6851 ****        -3.2500   3.5000  19.7500 Du        
   6852 ****        -3.2500   3.5000  25.0000 Du        
   6853 ****        -3.2500   3.5000  25.2500 Du        
   6854 ****        -3.2500   3.5000  25.5000 Du        
   6855 ****        -3.2500   3.5000  25.7500 Du        
   6856 ****        -3.2500   3.5000  26.0000 Du        
   6857 ****        -3.2500   3.7500  25.0000 Du        
   6858 ****        -3.2500   3.7500  25.2500 Du        
   6859 ****        -3.2500   3.7500  25.5000 Du        
   6860 ****        -3.2500   3.7500  25.7500 Du        
   6861 ****        -3.2500   3.7500  26.0000 Du        
   6862 ****        -3.2500   4.0000  25.0000 Du        
   6863 ****        -3.2500   4.0000  25.2500 Du        
   6864 ****        -3.2500   4.0000  25.5000 Du        
   6865 ****        -3.2500   4.0000  25.7500 Du        
   6866 ****        -3.2500   4.0000  26.0000 Du        
   6867 ****        -3.2500   4.2500  25.0000 Du        
   6868 ****        -3.2500   4.2500  25.2500 Du        
   6869 ****        -3.2500   4.2500  25.5000 Du        
   6870 ****        -3.2500   4.2500  25.7500 Du        
   6871 ****        -3.2500   4.5000  25.0000 Du        
   6872 ****        -3.2500   4.5000  25.2500 Du        
   6873 ****        -3.2500   4.7500  25.0000 Du        
   6874 ****        -3.2500   8.0000  19.5000 Du        
   6875 ****        -3.2500   8.0000  19.7500 Du        
   6876 ****        -3.2500   8.0000  20.0000 Du        
   6877 ****        -3.2500   8.2500  19.5000 Du        
   6878 ****        -3.2500   8.2500  19.7500 Du        
   6879 ****        -3.2500   8.2500  20.0000 Du        
   6880 ****        -3.2500   8.2500  20.2500 Du        
   6881 ****        -3.2500   8.5000  19.5000 Du        
   6882 ****        -3.2500   8.5000  19.7500 Du        
   6883 ****        -3.2500   8.5000  20.0000 Du        
   6884 ****        -3.2500   8.5000  20.2500 Du        
   6885 ****        -3.2500   8.7500  23.0000 Du        
   6886 ****        -3.2500   8.7500  23.2500 Du        
   6887 ****        -3.2500   8.7500  23.5000 Du        
   6888 ****        -3.2500   8.7500  23.7500 Du        
   6889 ****        -3.2500   8.7500  24.0000 Du        
   6890 ****        -3.2500   8.7500  24.2500 Du        
   6891 ****        -3.2500   9.0000  21.7500 Du        
   6892 ****        -3.2500   9.0000  22.0000 Du        
   6893 ****        -3.2500   9.0000  22.2500 Du        
   6894 ****        -3.2500   9.0000  22.5000 Du        
   6895 ****        -3.2500   9.0000  22.7500 Du        
   6896 ****        -3.2500   9.0000  23.0000 Du        
   6897 ****        -3.2500   9.0000  23.2500 Du        
   6898 ****        -3.2500   9.0000  23.5000 Du        
   6899 ****        -3.2500   9.0000  23.7500 Du        
   6900 ****        -3.2500   9.0000  24.0000 Du        
   6901 ****        -3.2500   9.2500  21.5000 Du        
   6902 ****        -3.2500   9.2500  21.7500 Du        
   6903 ****        -3.2500   9.2500  22.0000 Du        
   6904 ****        -3.2500   9.2500  22.2500 Du        
   6905 ****        -3.2500   9.2500  22.5000 Du        
   6906 ****        -3.2500   9.2500  22.7500 Du        
   6907 ****        -3.2500   9.2500  23.0000 Du        
   6908 ****        -3.2500   9.2500  23.2500 Du        
   6909 ****        -3.2500   9.2500  23.5000 Du        
   6910 ****        -3.2500   9.2500  23.7500 Du        
   6911 ****        -3.2500   9.2500  24.0000 Du        
   6912 ****        -3.2500   9.5000  21.7500 Du        
   6913 ****        -3.2500   9.5000  22.0000 Du        
   6914 ****        -3.2500   9.5000  22.2500 Du        
   6915 ****        -3.2500   9.5000  22.5000 Du        
   6916 ****        -3.2500   9.5000  22.7500 Du        
   6917 ****        -3.2500   9.5000  23.0000 Du        
   6918 ****        -3.2500   9.5000  23.2500 Du        
   6919 ****        -3.2500   9.5000  23.5000 Du        
   6920 ****        -3.2500   9.5000  23.7500 Du        
   6921 ****        -3.2500   9.5000  24.0000 Du        
   6922 ****        -3.2500   9.7500  21.7500 Du        
   6923 ****        -3.2500   9.7500  22.0000 Du        
   6924 ****        -3.2500   9.7500  22.2500 Du        
   6925 ****        -3.2500   9.7500  22.5000 Du        
   6926 ****        -3.2500   9.7500  22.7500 Du        
   6927 ****        -3.2500   9.7500  23.0000 Du        
   6928 ****        -3.2500   9.7500  23.2500 Du        
   6929 ****        -3.2500   9.7500  23.5000 Du        
   6930 ****        -3.2500   9.7500  23.7500 Du        
   6931 ****        -3.2500  10.0000  22.0000 Du        
   6932 ****        -3.2500  10.0000  22.2500 Du        
   6933 ****        -3.2500  10.0000  22.5000 Du        
   6934 ****        -3.2500  10.0000  22.7500 Du        
   6935 ****        -3.2500  10.0000  23.0000 Du        
   6936 ****        -3.2500  10.0000  23.2500 Du        
   6937 ****        -3.2500  10.0000  23.5000 Du        
   6938 ****        -3.2500  10.0000  23.7500 Du        
   6939 ****        -3.2500  10.2500  22.2500 Du        
   6940 ****        -3.2500  10.2500  22.5000 Du        
   6941 ****        -3.2500  10.2500  22.7500 Du        
   6942 ****        -3.2500  10.2500  23.0000 Du        
   6943 ****        -3.2500  10.2500  23.2500 Du        
   6944 ****        -3.2500  10.2500  23.5000 Du        
   6945 ****        -3.2500  10.5000  22.5000 Du        
   6946 ****        -3.2500  10.5000  22.7500 Du        
   6947 ****        -3.2500  10.5000  23.0000 Du        
   6948 ****        -3.2500  10.5000  23.2500 Du        
   6949 ****        -3.2500  10.7500  22.7500 Du        
   6950 ****        -3.2500  10.7500  23.0000 Du        
   6951 ****        -3.2500  10.7500  23.2500 Du        
   6952 ****        -3.2500  11.0000  23.0000 Du        
   6953 ****        -3.0000  -9.0000   8.5000 Du        
   6954 ****        -3.0000  -9.0000   8.7500 Du        
   6955 ****        -3.0000  -9.0000   9.0000 Du        
   6956 ****        -3.0000  -9.0000   9.2500 Du        
   6957 ****        -3.0000  -9.0000   9.5000 Du        
   6958 ****        -3.0000  -9.0000   9.7500 Du        
   6959 ****        -3.0000  -9.0000  10.0000 Du        
   6960 ****        -3.0000  -9.0000  10.2500 Du        
   6961 ****        -3.0000  -9.0000  10.5000 Du        
   6962 ****        -3.0000  -9.0000  10.7500 Du        
   6963 ****        -3.0000  -9.0000  11.0000 Du        
   6964 ****        -3.0000  -9.0000  11.2500 Du        
   6965 ****        -3.0000  -9.0000  11.5000 Du        
   6966 ****        -3.0000  -9.0000  11.7500 Du        
   6967 ****        -3.0000  -9.0000  12.0000 Du        
   6968 ****        -3.0000  -9.0000  12.2500 Du        
   6969 ****        -3.0000  -9.0000  12.5000 Du        
   6970 ****        -3.0000  -8.7500   8.5000 Du        
   6971 ****        -3.0000  -8.7500   8.7500 Du        
   6972 ****        -3.0000  -8.7500   9.0000 Du        
   6973 ****        -3.0000  -8.7500   9.2500 Du        
   6974 ****        -3.0000  -8.7500   9.5000 Du        
   6975 ****        -3.0000  -8.7500   9.7500 Du        
   6976 ****        -3.0000  -8.7500  10.0000 Du        
   6977 ****        -3.0000  -8.7500  10.2500 Du        
   6978 ****        -3.0000  -8.7500  10.5000 Du        
   6979 ****        -3.0000  -8.7500  10.7500 Du        
   6980 ****        -3.0000  -8.7500  11.0000 Du        
   6981 ****        -3.0000  -8.7500  11.2500 Du        
   6982 ****        -3.0000  -8.7500  11.5000 Du        
   6983 ****        -3.0000  -8.7500  11.7500 Du        
   6984 ****        -3.0000  -8.7500  12.0000 Du        
   6985 ****        -3.0000  -8.7500  12.2500 Du        
   6986 ****        -3.0000  -8.7500  12.5000 Du        
   6987 ****        -3.0000  -8.5000   8.7500 Du        
   6988 ****        -3.0000  -8.5000   9.0000 Du        
   6989 ****        -3.0000  -8.5000   9.2500 Du        
   6990 ****        -3.0000  -8.5000   9.5000 Du        
   6991 ****        -3.0000  -8.5000   9.7500 Du        
   6992 ****        -3.0000  -8.5000  10.0000 Du        
   6993 ****        -3.0000  -8.5000  10.2500 Du        
   6994 ****        -3.0000  -8.5000  10.5000 Du        
   6995 ****        -3.0000  -8.5000  10.7500 Du        
   6996 ****        -3.0000  -8.5000  11.0000 Du        
   6997 ****        -3.0000  -8.5000  11.2500 Du        
   6998 ****        -3.0000  -8.5000  11.5000 Du        
   6999 ****        -3.0000  -8.5000  11.7500 Du        
   7000 ****        -3.0000  -8.5000  12.0000 Du        
   7001 ****        -3.0000  -8.5000  12.2500 Du        
   7002 ****        -3.0000  -8.5000  12.5000 Du        
   7003 ****        -3.0000  -8.5000  12.7500 Du        
   7004 ****        -3.0000  -8.2500   8.7500 Du        
   7005 ****        -3.0000  -8.2500   9.0000 Du        
   7006 ****        -3.0000  -8.2500   9.2500 Du        
   7007 ****        -3.0000  -8.2500   9.5000 Du        
   7008 ****        -3.0000  -8.2500   9.7500 Du        
   7009 ****        -3.0000  -8.2500  10.0000 Du        
   7010 ****        -3.0000  -8.2500  10.2500 Du        
   7011 ****        -3.0000  -8.2500  10.5000 Du        
   7012 ****        -3.0000  -8.2500  10.7500 Du        
   7013 ****        -3.0000  -8.2500  11.0000 Du        
   7014 ****        -3.0000  -8.2500  11.2500 Du        
   7015 ****        -3.0000  -8.2500  11.5000 Du        
   7016 ****        -3.0000  -8.2500  11.7500 Du        
   7017 ****        -3.0000  -8.2500  12.0000 Du        
   7018 ****        -3.0000  -8.2500  12.2500 Du        
   7019 ****        -3.0000  -8.2500  12.5000 Du        
   7020 ****        -3.0000  -8.2500  12.7500 Du        
   7021 ****        -3.0000  -8.0000   8.7500 Du        
   7022 ****        -3.0000  -8.0000   9.0000 Du        
   7023 ****        -3.0000  -8.0000   9.2500 Du        
   7024 ****        -3.0000  -8.0000   9.5000 Du        
   7025 ****        -3.0000  -8.0000   9.7500 Du        
   7026 ****        -3.0000  -8.0000  10.0000 Du        
   7027 ****        -3.0000  -8.0000  10.2500 Du        
   7028 ****        -3.0000  -8.0000  10.5000 Du        
   7029 ****        -3.0000  -8.0000  10.7500 Du        
   7030 ****        -3.0000  -8.0000  12.7500 Du        
   7031 ****        -3.0000  -7.7500   9.0000 Du        
   7032 ****        -3.0000  -7.7500   9.2500 Du        
   7033 ****        -3.0000  -7.7500   9.5000 Du        
   7034 ****        -3.0000  -7.7500   9.7500 Du        
   7035 ****        -3.0000  -7.7500  10.0000 Du        
   7036 ****        -3.0000  -7.7500  10.2500 Du        
   7037 ****        -3.0000  -7.5000   9.0000 Du        
   7038 ****        -3.0000  -7.5000   9.2500 Du        
   7039 ****        -3.0000  -7.5000   9.5000 Du        
   7040 ****        -3.0000  -7.5000   9.7500 Du        
   7041 ****        -3.0000  -7.5000  10.0000 Du        
   7042 ****        -3.0000  -7.2500   9.0000 Du        
   7043 ****        -3.0000  -7.2500   9.2500 Du        
   7044 ****        -3.0000  -7.2500   9.5000 Du        
   7045 ****        -3.0000  -7.0000   9.0000 Du        
   7046 ****        -3.0000  -7.0000   9.2500 Du        
   7047 ****        -3.0000  -1.5000  25.0000 Du        
   7048 ****        -3.0000  -1.5000  25.2500 Du        
   7049 ****        -3.0000  -1.5000  25.5000 Du        
   7050 ****        -3.0000  -1.5000  25.7500 Du        
   7051 ****        -3.0000  -1.5000  26.0000 Du        
   7052 ****        -3.0000  -1.2500  24.2500 Du        
   7053 ****        -3.0000  -1.2500  24.5000 Du        
   7054 ****        -3.0000  -1.2500  24.7500 Du        
   7055 ****        -3.0000  -1.2500  25.0000 Du        
   7056 ****        -3.0000  -1.2500  25.2500 Du        
   7057 ****        -3.0000  -1.2500  25.5000 Du        
   7058 ****        -3.0000  -1.2500  25.7500 Du        
   7059 ****        -3.0000  -1.2500  26.0000 Du        
   7060 ****        -3.0000  -1.2500  26.2500 Du        
   7061 ****        -3.0000  -1.0000  24.5000 Du        
   7062 ****        -3.0000  -1.0000  24.7500 Du        
   7063 ****        -3.0000  -1.0000  25.0000 Du        
   7064 ****        -3.0000  -1.0000  25.2500 Du        
   7065 ****        -3.0000  -1.0000  25.5000 Du        
   7066 ****        -3.0000  -1.0000  25.7500 Du        
   7067 ****        -3.0000  -1.0000  26.0000 Du        
   7068 ****        -3.0000  -1.0000  26.2500 Du        
   7069 ****        -3.0000  -1.0000  26.5000 Du        
   7070 ****        -3.0000  -0.7500  24.5000 Du        
   7071 ****        -3.0000  -0.7500  24.7500 Du        
   7072 ****        -3.0000  -0.7500  25.0000 Du        
   7073 ****        -3.0000  -0.7500  25.2500 Du        
   7074 ****        -3.0000  -0.7500  25.5000 Du        
   7075 ****        -3.0000  -0.7500  25.7500 Du        
   7076 ****        -3.0000  -0.7500  26.0000 Du        
   7077 ****        -3.0000  -0.7500  26.2500 Du        
   7078 ****        -3.0000  -0.5000  25.0000 Du        
   7079 ****        -3.0000  -0.5000  25.2500 Du        
   7080 ****        -3.0000  -0.5000  25.5000 Du        
   7081 ****        -3.0000  -0.5000  25.7500 Du        
   7082 ****        -3.0000  -0.5000  26.0000 Du        
   7083 ****        -3.0000  -0.5000  26.2500 Du        
   7084 ****        -3.0000  -0.2500  25.2500 Du        
   7085 ****        -3.0000  -0.2500  25.5000 Du        
   7086 ****        -3.0000  -0.2500  25.7500 Du        
   7087 ****        -3.0000  -0.2500  26.0000 Du        
   7088 ****        -3.0000  -0.2500  26.2500 Du        
   7089 ****        -3.0000   0.0000  25.2500 Du        
   7090 ****        -3.0000   0.0000  25.5000 Du        
   7091 ****        -3.0000   0.0000  25.7500 Du        
   7092 ****        -3.0000   0.0000  26.0000 Du        
   7093 ****        -3.0000   0.2500  25.2500 Du        
   7094 ****        -3.0000   1.0000  25.7500 Du        
   7095 ****        -3.0000   1.5000  17.7500 Du        
   7096 ****        -3.0000   1.5000  18.0000 Du        
   7097 ****        -3.0000   1.5000  18.2500 Du        
   7098 ****        -3.0000   1.5000  18.5000 Du        
   7099 ****        -3.0000   1.5000  18.7500 Du        
   7100 ****        -3.0000   1.5000  19.0000 Du        
   7101 ****        -3.0000   1.5000  19.2500 Du        
   7102 ****        -3.0000   1.7500  15.7500 Du        
   7103 ****        -3.0000   1.7500  16.0000 Du        
   7104 ****        -3.0000   1.7500  16.2500 Du        
   7105 ****        -3.0000   1.7500  16.5000 Du        
   7106 ****        -3.0000   1.7500  16.7500 Du        
   7107 ****        -3.0000   1.7500  17.0000 Du        
   7108 ****        -3.0000   1.7500  17.2500 Du        
   7109 ****        -3.0000   1.7500  17.5000 Du        
   7110 ****        -3.0000   1.7500  17.7500 Du        
   7111 ****        -3.0000   1.7500  18.0000 Du        
   7112 ****        -3.0000   1.7500  18.2500 Du        
   7113 ****        -3.0000   1.7500  18.5000 Du        
   7114 ****        -3.0000   1.7500  18.7500 Du        
   7115 ****        -3.0000   1.7500  19.0000 Du        
   7116 ****        -3.0000   1.7500  19.2500 Du        
   7117 ****        -3.0000   1.7500  19.5000 Du        
   7118 ****        -3.0000   2.0000  15.7500 Du        
   7119 ****        -3.0000   2.0000  16.0000 Du        
   7120 ****        -3.0000   2.0000  16.2500 Du        
   7121 ****        -3.0000   2.0000  16.5000 Du        
   7122 ****        -3.0000   2.0000  16.7500 Du        
   7123 ****        -3.0000   2.0000  17.0000 Du        
   7124 ****        -3.0000   2.0000  17.2500 Du        
   7125 ****        -3.0000   2.0000  17.5000 Du        
   7126 ****        -3.0000   2.0000  17.7500 Du        
   7127 ****        -3.0000   2.0000  18.0000 Du        
   7128 ****        -3.0000   2.0000  18.2500 Du        
   7129 ****        -3.0000   2.0000  18.5000 Du        
   7130 ****        -3.0000   2.0000  18.7500 Du        
   7131 ****        -3.0000   2.0000  19.0000 Du        
   7132 ****        -3.0000   2.0000  19.2500 Du        
   7133 ****        -3.0000   2.0000  19.5000 Du        
   7134 ****        -3.0000   2.0000  19.7500 Du        
   7135 ****        -3.0000   2.2500  15.7500 Du        
   7136 ****        -3.0000   2.2500  16.0000 Du        
   7137 ****        -3.0000   2.2500  16.2500 Du        
   7138 ****        -3.0000   2.2500  16.5000 Du        
   7139 ****        -3.0000   2.2500  16.7500 Du        
   7140 ****        -3.0000   2.2500  17.0000 Du        
   7141 ****        -3.0000   2.2500  17.2500 Du        
   7142 ****        -3.0000   2.2500  17.5000 Du        
   7143 ****        -3.0000   2.2500  17.7500 Du        
   7144 ****        -3.0000   2.2500  18.0000 Du        
   7145 ****        -3.0000   2.2500  18.2500 Du        
   7146 ****        -3.0000   2.2500  18.5000 Du        
   7147 ****        -3.0000   2.2500  18.7500 Du        
   7148 ****        -3.0000   2.2500  19.0000 Du        
   7149 ****        -3.0000   2.2500  19.2500 Du        
   7150 ****        -3.0000   2.2500  19.5000 Du        
   7151 ****        -3.0000   2.2500  19.7500 Du        
   7152 ****        -3.0000   2.5000  15.7500 Du        
   7153 ****        -3.0000   2.5000  16.0000 Du        
   7154 ****        -3.0000   2.5000  16.2500 Du        
   7155 ****        -3.0000   2.5000  16.5000 Du        
   7156 ****        -3.0000   2.5000  16.7500 Du        
   7157 ****        -3.0000   2.5000  17.0000 Du        
   7158 ****        -3.0000   2.5000  17.2500 Du        
   7159 ****        -3.0000   2.5000  17.5000 Du        
   7160 ****        -3.0000   2.5000  17.7500 Du        
   7161 ****        -3.0000   2.5000  18.0000 Du        
   7162 ****        -3.0000   2.5000  18.2500 Du        
   7163 ****        -3.0000   2.5000  18.5000 Du        
   7164 ****        -3.0000   2.5000  18.7500 Du        
   7165 ****        -3.0000   2.5000  19.0000 Du        
   7166 ****        -3.0000   2.5000  19.2500 Du        
   7167 ****        -3.0000   2.5000  19.5000 Du        
   7168 ****        -3.0000   2.5000  19.7500 Du        
   7169 ****        -3.0000   2.5000  25.7500 Du        
   7170 ****        -3.0000   2.7500  16.0000 Du        
   7171 ****        -3.0000   2.7500  16.2500 Du        
   7172 ****        -3.0000   2.7500  16.5000 Du        
   7173 ****        -3.0000   2.7500  16.7500 Du        
   7174 ****        -3.0000   2.7500  17.0000 Du        
   7175 ****        -3.0000   2.7500  17.2500 Du        
   7176 ****        -3.0000   2.7500  17.5000 Du        
   7177 ****        -3.0000   2.7500  17.7500 Du        
   7178 ****        -3.0000   2.7500  18.0000 Du        
   7179 ****        -3.0000   2.7500  18.2500 Du        
   7180 ****        -3.0000   2.7500  18.5000 Du        
   7181 ****        -3.0000   2.7500  18.7500 Du        
   7182 ****        -3.0000   2.7500  19.0000 Du        
   7183 ****        -3.0000   2.7500  19.2500 Du        
   7184 ****        -3.0000   2.7500  19.5000 Du        
   7185 ****        -3.0000   2.7500  19.7500 Du        
   7186 ****        -3.0000   2.7500  25.5000 Du        
   7187 ****        -3.0000   2.7500  25.7500 Du        
   7188 ****        -3.0000   3.0000  16.0000 Du        
   7189 ****        -3.0000   3.0000  16.2500 Du        
   7190 ****        -3.0000   3.0000  16.5000 Du        
   7191 ****        -3.0000   3.0000  16.7500 Du        
   7192 ****        -3.0000   3.0000  17.0000 Du        
   7193 ****        -3.0000   3.0000  17.2500 Du        
   7194 ****        -3.0000   3.0000  17.5000 Du        
   7195 ****        -3.0000   3.0000  17.7500 Du        
   7196 ****        -3.0000   3.0000  18.0000 Du        
   7197 ****        -3.0000   3.0000  18.2500 Du        
   7198 ****        -3.0000   3.0000  18.5000 Du        
   7199 ****        -3.0000   3.0000  18.7500 Du        
   7200 ****        -3.0000   3.0000  19.0000 Du        
   7201 ****        -3.0000   3.0000  19.2500 Du        
   7202 ****        -3.0000   3.0000  19.5000 Du        
   7203 ****        -3.0000   3.0000  19.7500 Du        
   7204 ****        -3.0000   3.0000  25.5000 Du        
   7205 ****        -3.0000   3.0000  25.7500 Du        
   7206 ****        -3.0000   3.0000  26.0000 Du        
   7207 ****        -3.0000   3.2500  16.7500 Du        
   7208 ****        -3.0000   3.2500  17.0000 Du        
   7209 ****        -3.0000   3.2500  17.2500 Du        
   7210 ****        -3.0000   3.2500  17.5000 Du        
   7211 ****        -3.0000   3.2500  17.7500 Du        
   7212 ****        -3.0000   3.2500  18.0000 Du        
   7213 ****        -3.0000   3.2500  18.2500 Du        
   7214 ****        -3.0000   3.2500  18.5000 Du        
   7215 ****        -3.0000   3.2500  18.7500 Du        
   7216 ****        -3.0000   3.2500  19.0000 Du        
   7217 ****        -3.0000   3.2500  19.2500 Du        
   7218 ****        -3.0000   3.2500  19.5000 Du        
   7219 ****        -3.0000   3.2500  19.7500 Du        
   7220 ****        -3.0000   3.2500  25.2500 Du        
   7221 ****        -3.0000   3.2500  25.5000 Du        
   7222 ****        -3.0000   3.2500  25.7500 Du        
   7223 ****        -3.0000   3.2500  26.0000 Du        
   7224 ****        -3.0000   3.5000  19.0000 Du        
   7225 ****        -3.0000   3.5000  19.2500 Du        
   7226 ****        -3.0000   3.5000  19.5000 Du        
   7227 ****        -3.0000   3.5000  25.2500 Du        
   7228 ****        -3.0000   3.5000  25.5000 Du        
   7229 ****        -3.0000   3.5000  25.7500 Du        
   7230 ****        -3.0000   3.7500  25.2500 Du        
   7231 ****        -3.0000   3.7500  25.5000 Du        
   7232 ****        -3.0000   4.0000  25.2500 Du        
   7233 ****        -3.0000   4.0000  26.0000 Du        
   7234 ****        -3.0000   8.0000  19.5000 Du        
   7235 ****        -3.0000   8.2500  19.2500 Du        
   7236 ****        -3.0000   8.2500  19.5000 Du        
   7237 ****        -3.0000   8.2500  19.7500 Du        
   7238 ****        -3.0000   8.5000  19.2500 Du        
   7239 ****        -3.0000   8.5000  19.5000 Du        
   7240 ****        -3.0000   9.0000  23.0000 Du        
   7241 ****        -3.0000   9.0000  23.7500 Du        
   7242 ****        -3.0000   9.2500  22.5000 Du        
   7243 ****        -3.0000   9.2500  22.7500 Du        
   7244 ****        -3.0000   9.2500  23.0000 Du        
   7245 ****        -3.0000   9.2500  23.2500 Du        
   7246 ****        -3.0000   9.2500  23.7500 Du        
   7247 ****        -3.0000   9.2500  24.0000 Du        
   7248 ****        -3.0000   9.5000  21.7500 Du        
   7249 ****        -3.0000   9.5000  22.0000 Du        
   7250 ****        -3.0000   9.5000  22.2500 Du        
   7251 ****        -3.0000   9.5000  22.5000 Du        
   7252 ****        -3.0000   9.5000  22.7500 Du        
   7253 ****        -3.0000   9.5000  23.0000 Du        
   7254 ****        -3.0000   9.5000  23.2500 Du        
   7255 ****        -3.0000   9.5000  23.5000 Du        
   7256 ****        -3.0000   9.5000  23.7500 Du        
   7257 ****        -3.0000   9.7500  21.7500 Du        
   7258 ****        -3.0000   9.7500  22.0000 Du        
   7259 ****        -3.0000   9.7500  22.2500 Du        
   7260 ****        -3.0000   9.7500  22.5000 Du        
   7261 ****        -3.0000   9.7500  22.7500 Du        
   7262 ****        -3.0000   9.7500  23.0000 Du        
   7263 ****        -3.0000   9.7500  23.2500 Du        
   7264 ****        -3.0000   9.7500  23.5000 Du        
   7265 ****        -3.0000   9.7500  23.7500 Du        
   7266 ****        -3.0000   9.7500  24.0000 Du        
   7267 ****        -3.0000  10.0000  22.0000 Du        
   7268 ****        -3.0000  10.0000  22.2500 Du        
   7269 ****        -3.0000  10.0000  22.5000 Du        
   7270 ****        -3.0000  10.0000  22.7500 Du        
   7271 ****        -3.0000  10.0000  23.0000 Du        
   7272 ****        -3.0000  10.0000  23.2500 Du        
   7273 ****        -3.0000  10.0000  23.5000 Du        
   7274 ****        -3.0000  10.0000  23.7500 Du        
   7275 ****        -3.0000  10.2500  22.2500 Du        
   7276 ****        -3.0000  10.2500  22.5000 Du        
   7277 ****        -3.0000  10.2500  22.7500 Du        
   7278 ****        -3.0000  10.2500  23.0000 Du        
   7279 ****        -3.0000  10.2500  23.2500 Du        
   7280 ****        -3.0000  10.2500  23.5000 Du        
   7281 ****        -3.0000  10.5000  22.5000 Du        
   7282 ****        -3.0000  10.5000  22.7500 Du        
   7283 ****        -3.0000  10.5000  23.0000 Du        
   7284 ****        -3.0000  10.5000  23.2500 Du        
   7285 ****        -3.0000  10.5000  23.5000 Du        
   7286 ****        -3.0000  10.7500  22.7500 Du        
   7287 ****        -3.0000  10.7500  23.0000 Du        
   7288 ****        -3.0000  10.7500  23.2500 Du        
   7289 ****        -3.0000  10.7500  23.5000 Du        
   7290 ****        -3.0000  11.0000  22.7500 Du        
   7291 ****        -3.0000  11.0000  23.0000 Du        
   7292 ****        -3.0000  11.0000  23.2500 Du        
   7293 ****        -3.0000  11.2500  23.0000 Du        
   7294 ****        -3.0000  11.2500  23.2500 Du        
   7295 ****        -2.7500  -9.0000   8.7500 Du        
   7296 ****        -2.7500  -9.0000   9.0000 Du        
   7297 ****        -2.7500  -9.0000   9.2500 Du        
   7298 ****        -2.7500  -9.0000   9.5000 Du        
   7299 ****        -2.7500  -9.0000   9.7500 Du        
   7300 ****        -2.7500  -9.0000  10.0000 Du        
   7301 ****        -2.7500  -9.0000  10.2500 Du        
   7302 ****        -2.7500  -9.0000  10.5000 Du        
   7303 ****        -2.7500  -9.0000  11.0000 Du        
   7304 ****        -2.7500  -9.0000  11.2500 Du        
   7305 ****        -2.7500  -9.0000  11.5000 Du        
   7306 ****        -2.7500  -9.0000  11.7500 Du        
   7307 ****        -2.7500  -9.0000  12.0000 Du        
   7308 ****        -2.7500  -9.0000  12.2500 Du        
   7309 ****        -2.7500  -9.0000  12.5000 Du        
   7310 ****        -2.7500  -8.7500   8.7500 Du        
   7311 ****        -2.7500  -8.7500   9.0000 Du        
   7312 ****        -2.7500  -8.7500   9.2500 Du        
   7313 ****        -2.7500  -8.7500   9.5000 Du        
   7314 ****        -2.7500  -8.7500   9.7500 Du        
   7315 ****        -2.7500  -8.7500  10.0000 Du        
   7316 ****        -2.7500  -8.7500  10.2500 Du        
   7317 ****        -2.7500  -8.7500  10.5000 Du        
   7318 ****        -2.7500  -8.7500  10.7500 Du        
   7319 ****        -2.7500  -8.7500  11.0000 Du        
   7320 ****        -2.7500  -8.7500  11.2500 Du        
   7321 ****        -2.7500  -8.7500  11.5000 Du        
   7322 ****        -2.7500  -8.7500  11.7500 Du        
   7323 ****        -2.7500  -8.7500  12.0000 Du        
   7324 ****        -2.7500  -8.7500  12.2500 Du        
   7325 ****        -2.7500  -8.7500  12.5000 Du        
   7326 ****        -2.7500  -8.7500  12.7500 Du        
   7327 ****        -2.7500  -8.5000   9.0000 Du        
   7328 ****        -2.7500  -8.5000   9.2500 Du        
   7329 ****        -2.7500  -8.5000   9.5000 Du        
   7330 ****        -2.7500  -8.5000   9.7500 Du        
   7331 ****        -2.7500  -8.5000  10.0000 Du        
   7332 ****        -2.7500  -8.5000  10.2500 Du        
   7333 ****        -2.7500  -8.5000  10.5000 Du        
   7334 ****        -2.7500  -8.5000  10.7500 Du        
   7335 ****        -2.7500  -8.5000  11.0000 Du        
   7336 ****        -2.7500  -8.5000  11.2500 Du        
   7337 ****        -2.7500  -8.5000  11.5000 Du        
   7338 ****        -2.7500  -8.5000  11.7500 Du        
   7339 ****        -2.7500  -8.5000  12.0000 Du        
   7340 ****        -2.7500  -8.5000  12.2500 Du        
   7341 ****        -2.7500  -8.5000  12.5000 Du        
   7342 ****        -2.7500  -8.5000  12.7500 Du        
   7343 ****        -2.7500  -8.2500   9.0000 Du        
   7344 ****        -2.7500  -8.2500   9.2500 Du        
   7345 ****        -2.7500  -8.2500   9.5000 Du        
   7346 ****        -2.7500  -8.2500   9.7500 Du        
   7347 ****        -2.7500  -8.2500  10.0000 Du        
   7348 ****        -2.7500  -8.2500  10.2500 Du        
   7349 ****        -2.7500  -8.2500  10.5000 Du        
   7350 ****        -2.7500  -8.2500  10.7500 Du        
   7351 ****        -2.7500  -8.2500  11.0000 Du        
   7352 ****        -2.7500  -8.2500  11.2500 Du        
   7353 ****        -2.7500  -8.2500  11.7500 Du        
   7354 ****        -2.7500  -8.2500  12.0000 Du        
   7355 ****        -2.7500  -8.2500  12.2500 Du        
   7356 ****        -2.7500  -8.2500  12.5000 Du        
   7357 ****        -2.7500  -8.2500  12.7500 Du        
   7358 ****        -2.7500  -8.0000   9.0000 Du        
   7359 ****        -2.7500  -8.0000   9.2500 Du        
   7360 ****        -2.7500  -8.0000   9.5000 Du        
   7361 ****        -2.7500  -8.0000   9.7500 Du        
   7362 ****        -2.7500  -8.0000  10.0000 Du        
   7363 ****        -2.7500  -8.0000  10.2500 Du        
   7364 ****        -2.7500  -8.0000  10.5000 Du        
   7365 ****        -2.7500  -7.7500   9.2500 Du        
   7366 ****        -2.7500  -7.7500   9.5000 Du        
   7367 ****        -2.7500  -7.7500   9.7500 Du        
   7368 ****        -2.7500  -7.7500  10.0000 Du        
   7369 ****        -2.7500  -7.5000   9.2500 Du        
   7370 ****        -2.7500  -7.5000   9.5000 Du        
   7371 ****        -2.7500  -7.5000   9.7500 Du        
   7372 ****        -2.7500  -1.5000  25.2500 Du        
   7373 ****        -2.7500  -1.2500  24.7500 Du        
   7374 ****        -2.7500  -1.2500  25.0000 Du        
   7375 ****        -2.7500  -1.2500  25.2500 Du        
   7376 ****        -2.7500  -1.2500  25.5000 Du        
   7377 ****        -2.7500  -1.2500  25.7500 Du        
   7378 ****        -2.7500  -1.2500  26.0000 Du        
   7379 ****        -2.7500  -1.2500  26.2500 Du        
   7380 ****        -2.7500  -1.0000  24.7500 Du        
   7381 ****        -2.7500  -1.0000  25.0000 Du        
   7382 ****        -2.7500  -1.0000  25.2500 Du        
   7383 ****        -2.7500  -1.0000  25.5000 Du        
   7384 ****        -2.7500  -1.0000  25.7500 Du        
   7385 ****        -2.7500  -1.0000  26.0000 Du        
   7386 ****        -2.7500  -1.0000  26.2500 Du        
   7387 ****        -2.7500  -0.7500  24.7500 Du        
   7388 ****        -2.7500  -0.7500  25.0000 Du        
   7389 ****        -2.7500  -0.7500  25.2500 Du        
   7390 ****        -2.7500  -0.7500  25.5000 Du        
   7391 ****        -2.7500  -0.7500  25.7500 Du        
   7392 ****        -2.7500  -0.7500  26.0000 Du        
   7393 ****        -2.7500  -0.7500  26.2500 Du        
   7394 ****        -2.7500  -0.5000  25.2500 Du        
   7395 ****        -2.7500  -0.5000  25.5000 Du        
   7396 ****        -2.7500  -0.5000  25.7500 Du        
   7397 ****        -2.7500  -0.5000  26.0000 Du        
   7398 ****        -2.7500  -0.5000  26.2500 Du        
   7399 ****        -2.7500  -0.2500  25.5000 Du        
   7400 ****        -2.7500  -0.2500  25.7500 Du        
   7401 ****        -2.7500  -0.2500  26.0000 Du        
   7402 ****        -2.7500  -0.2500  26.2500 Du        
   7403 ****        -2.7500   0.0000  25.7500 Du        
   7404 ****        -2.7500   0.0000  26.0000 Du        
   7405 ****        -2.7500   1.7500  15.7500 Du        
   7406 ****        -2.7500   1.7500  16.0000 Du        
   7407 ****        -2.7500   1.7500  16.2500 Du        
   7408 ****        -2.7500   1.7500  16.5000 Du        
   7409 ****        -2.7500   1.7500  16.7500 Du        
   7410 ****        -2.7500   1.7500  17.0000 Du        
   7411 ****        -2.7500   1.7500  17.2500 Du        
   7412 ****        -2.7500   1.7500  17.5000 Du        
   7413 ****        -2.7500   1.7500  17.7500 Du        
   7414 ****        -2.7500   1.7500  18.0000 Du        
   7415 ****        -2.7500   1.7500  18.2500 Du        
   7416 ****        -2.7500   1.7500  18.5000 Du        
   7417 ****        -2.7500   1.7500  18.7500 Du        
   7418 ****        -2.7500   1.7500  19.0000 Du        
   7419 ****        -2.7500   2.0000  15.7500 Du        
   7420 ****        -2.7500   2.0000  16.0000 Du        
   7421 ****        -2.7500   2.0000  16.2500 Du        
   7422 ****        -2.7500   2.0000  16.5000 Du        
   7423 ****        -2.7500   2.0000  16.7500 Du        
   7424 ****        -2.7500   2.0000  17.0000 Du        
   7425 ****        -2.7500   2.0000  17.2500 Du        
   7426 ****        -2.7500   2.0000  17.5000 Du        
   7427 ****        -2.7500   2.0000  17.7500 Du        
   7428 ****        -2.7500   2.0000  18.0000 Du        
   7429 ****        -2.7500   2.0000  18.2500 Du        
   7430 ****        -2.7500   2.0000  18.5000 Du        
   7431 ****        -2.7500   2.0000  18.7500 Du        
   7432 ****        -2.7500   2.0000  19.0000 Du        
   7433 ****        -2.7500   2.0000  19.2500 Du        
   7434 ****        -2.7500   2.2500  15.7500 Du        
   7435 ****        -2.7500   2.2500  16.0000 Du        
   7436 ****        -2.7500   2.2500  16.2500 Du        
   7437 ****        -2.7500   2.2500  16.5000 Du        
   7438 ****        -2.7500   2.2500  16.7500 Du        
   7439 ****        -2.7500   2.2500  17.0000 Du        
   7440 ****        -2.7500   2.2500  17.2500 Du        
   7441 ****        -2.7500   2.2500  17.5000 Du        
   7442 ****        -2.7500   2.2500  17.7500 Du        
   7443 ****        -2.7500   2.2500  18.0000 Du        
   7444 ****        -2.7500   2.2500  18.2500 Du        
   7445 ****        -2.7500   2.2500  18.5000 Du        
   7446 ****        -2.7500   2.2500  18.7500 Du        
   7447 ****        -2.7500   2.2500  19.0000 Du        
   7448 ****        -2.7500   2.2500  19.2500 Du        
   7449 ****        -2.7500   2.2500  19.5000 Du        
   7450 ****        -2.7500   2.5000  15.7500 Du        
   7451 ****        -2.7500   2.5000  16.0000 Du        
   7452 ****        -2.7500   2.5000  16.2500 Du        
   7453 ****        -2.7500   2.5000  16.5000 Du        
   7454 ****        -2.7500   2.5000  16.7500 Du        
   7455 ****        -2.7500   2.5000  17.0000 Du        
   7456 ****        -2.7500   2.5000  17.2500 Du        
   7457 ****        -2.7500   2.5000  17.5000 Du        
   7458 ****        -2.7500   2.5000  17.7500 Du        
   7459 ****        -2.7500   2.5000  18.0000 Du        
   7460 ****        -2.7500   2.5000  18.2500 Du        
   7461 ****        -2.7500   2.5000  18.5000 Du        
   7462 ****        -2.7500   2.5000  18.7500 Du        
   7463 ****        -2.7500   2.5000  19.0000 Du        
   7464 ****        -2.7500   2.5000  19.2500 Du        
   7465 ****        -2.7500   2.5000  19.5000 Du        
   7466 ****        -2.7500   2.7500  15.7500 Du        
   7467 ****        -2.7500   2.7500  16.0000 Du        
   7468 ****        -2.7500   2.7500  16.2500 Du        
   7469 ****        -2.7500   2.7500  16.5000 Du        
   7470 ****        -2.7500   2.7500  16.7500 Du        
   7471 ****        -2.7500   2.7500  17.0000 Du        
   7472 ****        -2.7500   2.7500  17.2500 Du        
   7473 ****        -2.7500   2.7500  17.5000 Du        
   7474 ****        -2.7500   2.7500  17.7500 Du        
   7475 ****        -2.7500   2.7500  18.0000 Du        
   7476 ****        -2.7500   2.7500  18.2500 Du        
   7477 ****        -2.7500   2.7500  18.5000 Du        
   7478 ****        -2.7500   2.7500  18.7500 Du        
   7479 ****        -2.7500   2.7500  19.0000 Du        
   7480 ****        -2.7500   2.7500  19.2500 Du        
   7481 ****        -2.7500   2.7500  19.5000 Du        
   7482 ****        -2.7500   3.0000  16.0000 Du        
   7483 ****        -2.7500   3.0000  16.2500 Du        
   7484 ****        -2.7500   3.0000  16.5000 Du        
   7485 ****        -2.7500   3.0000  16.7500 Du        
   7486 ****        -2.7500   3.0000  17.0000 Du        
   7487 ****        -2.7500   3.0000  17.2500 Du        
   7488 ****        -2.7500   3.0000  17.5000 Du        
   7489 ****        -2.7500   3.0000  17.7500 Du        
   7490 ****        -2.7500   3.0000  18.0000 Du        
   7491 ****        -2.7500   3.0000  18.2500 Du        
   7492 ****        -2.7500   3.0000  18.5000 Du        
   7493 ****        -2.7500   3.0000  18.7500 Du        
   7494 ****        -2.7500   3.0000  19.0000 Du        
   7495 ****        -2.7500   3.0000  19.2500 Du        
   7496 ****        -2.7500   3.0000  19.5000 Du        
   7497 ****        -2.7500   3.2500  16.2500 Du        
   7498 ****        -2.7500   3.2500  16.5000 Du        
   7499 ****        -2.7500   3.2500  16.7500 Du        
   7500 ****        -2.7500   3.2500  17.0000 Du        
   7501 ****        -2.7500   3.2500  17.2500 Du        
   7502 ****        -2.7500   3.2500  17.5000 Du        
   7503 ****        -2.7500   3.2500  17.7500 Du        
   7504 ****        -2.7500   3.2500  18.0000 Du        
   7505 ****        -2.7500   3.2500  18.2500 Du        
   7506 ****        -2.7500   3.2500  18.5000 Du        
   7507 ****        -2.7500   3.2500  18.7500 Du        
   7508 ****        -2.7500   3.2500  19.0000 Du        
   7509 ****        -2.7500   3.2500  19.2500 Du        
   7510 ****        -2.7500   3.5000  18.7500 Du        
   7511 ****        -2.7500   3.5000  19.0000 Du        
   7512 ****        -2.7500   3.5000  19.2500 Du        
   7513 ****        -2.7500   9.2500  23.0000 Du        
   7514 ****        -2.7500   9.2500  23.2500 Du        
   7515 ****        -2.7500   9.5000  22.2500 Du        
   7516 ****        -2.7500   9.5000  22.5000 Du        
   7517 ****        -2.7500   9.5000  22.7500 Du        
   7518 ****        -2.7500   9.5000  23.0000 Du        
   7519 ****        -2.7500   9.5000  23.2500 Du        
   7520 ****        -2.7500   9.5000  23.5000 Du        
   7521 ****        -2.7500   9.7500  21.7500 Du        
   7522 ****        -2.7500   9.7500  22.0000 Du        
   7523 ****        -2.7500   9.7500  22.2500 Du        
   7524 ****        -2.7500   9.7500  22.5000 Du        
   7525 ****        -2.7500   9.7500  22.7500 Du        
   7526 ****        -2.7500   9.7500  23.0000 Du        
   7527 ****        -2.7500   9.7500  23.2500 Du        
   7528 ****        -2.7500   9.7500  23.5000 Du        
   7529 ****        -2.7500   9.7500  23.7500 Du        
   7530 ****        -2.7500  10.0000  21.7500 Du        
   7531 ****        -2.7500  10.0000  22.0000 Du        
   7532 ****        -2.7500  10.0000  22.2500 Du        
   7533 ****        -2.7500  10.0000  22.5000 Du        
   7534 ****        -2.7500  10.0000  22.7500 Du        
   7535 ****        -2.7500  10.0000  23.0000 Du        
   7536 ****        -2.7500  10.0000  23.2500 Du        
   7537 ****        -2.7500  10.0000  23.5000 Du        
   7538 ****        -2.7500  10.0000  23.7500 Du        
   7539 ****        -2.7500  10.2500  22.0000 Du        
   7540 ****        -2.7500  10.2500  22.2500 Du        
   7541 ****        -2.7500  10.2500  22.5000 Du        
   7542 ****        -2.7500  10.2500  22.7500 Du        
   7543 ****        -2.7500  10.2500  23.0000 Du        
   7544 ****        -2.7500  10.2500  23.2500 Du        
   7545 ****        -2.7500  10.2500  23.5000 Du        
   7546 ****        -2.7500  10.2500  23.7500 Du        
   7547 ****        -2.7500  10.5000  22.2500 Du        
   7548 ****        -2.7500  10.5000  22.5000 Du        
   7549 ****        -2.7500  10.5000  22.7500 Du        
   7550 ****        -2.7500  10.5000  23.0000 Du        
   7551 ****        -2.7500  10.5000  23.2500 Du        
   7552 ****        -2.7500  10.5000  23.5000 Du        
   7553 ****        -2.7500  10.5000  23.7500 Du        
   7554 ****        -2.7500  10.7500  22.5000 Du        
   7555 ****        -2.7500  10.7500  22.7500 Du        
   7556 ****        -2.7500  10.7500  23.0000 Du        
   7557 ****        -2.7500  10.7500  23.2500 Du        
   7558 ****        -2.7500  10.7500  23.5000 Du        
   7559 ****        -2.7500  10.7500  23.7500 Du        
   7560 ****        -2.7500  11.0000  22.7500 Du        
   7561 ****        -2.7500  11.0000  23.0000 Du        
   7562 ****        -2.7500  11.0000  23.2500 Du        
   7563 ****        -2.7500  11.0000  23.5000 Du        
   7564 ****        -2.7500  11.2500  22.7500 Du        
   7565 ****        -2.7500  11.2500  23.0000 Du        
   7566 ****        -2.7500  11.2500  23.2500 Du        
   7567 ****        -2.7500  11.2500  23.5000 Du        
   7568 ****        -2.7500  11.5000  23.0000 Du        
   7569 ****        -2.7500  11.5000  23.2500 Du        
   7570 ****        -2.7500  11.7500  23.2500 Du        
   7571 ****        -2.5000  -9.0000   9.0000 Du        
   7572 ****        -2.5000  -9.0000   9.2500 Du        
   7573 ****        -2.5000  -9.0000   9.5000 Du        
   7574 ****        -2.5000  -9.0000   9.7500 Du        
   7575 ****        -2.5000  -9.0000  10.0000 Du        
   7576 ****        -2.5000  -9.0000  10.5000 Du        
   7577 ****        -2.5000  -9.0000  10.7500 Du        
   7578 ****        -2.5000  -9.0000  11.0000 Du        
   7579 ****        -2.5000  -9.0000  11.5000 Du        
   7580 ****        -2.5000  -9.0000  11.7500 Du        
   7581 ****        -2.5000  -9.0000  12.0000 Du        
   7582 ****        -2.5000  -9.0000  12.2500 Du        
   7583 ****        -2.5000  -8.7500   9.2500 Du        
   7584 ****        -2.5000  -8.7500   9.5000 Du        
   7585 ****        -2.5000  -8.7500   9.7500 Du        
   7586 ****        -2.5000  -8.7500  10.0000 Du        
   7587 ****        -2.5000  -8.7500  10.2500 Du        
   7588 ****        -2.5000  -8.7500  10.5000 Du        
   7589 ****        -2.5000  -8.7500  10.7500 Du        
   7590 ****        -2.5000  -8.7500  11.0000 Du        
   7591 ****        -2.5000  -8.7500  11.2500 Du        
   7592 ****        -2.5000  -8.7500  11.5000 Du        
   7593 ****        -2.5000  -8.7500  11.7500 Du        
   7594 ****        -2.5000  -8.7500  12.0000 Du        
   7595 ****        -2.5000  -8.7500  12.2500 Du        
   7596 ****        -2.5000  -8.7500  12.5000 Du        
   7597 ****        -2.5000  -8.7500  12.7500 Du        
   7598 ****        -2.5000  -8.5000   9.2500 Du        
   7599 ****        -2.5000  -8.5000   9.5000 Du        
   7600 ****        -2.5000  -8.5000   9.7500 Du        
   7601 ****        -2.5000  -8.5000  10.0000 Du        
   7602 ****        -2.5000  -8.5000  10.2500 Du        
   7603 ****        -2.5000  -8.5000  10.5000 Du        
   7604 ****        -2.5000  -8.5000  10.7500 Du        
   7605 ****        -2.5000  -8.5000  11.0000 Du        
   7606 ****        -2.5000  -8.5000  11.2500 Du        
   7607 ****        -2.5000  -8.5000  11.5000 Du        
   7608 ****        -2.5000  -8.5000  11.7500 Du        
   7609 ****        -2.5000  -8.5000  12.0000 Du        
   7610 ****        -2.5000  -8.5000  12.2500 Du        
   7611 ****        -2.5000  -8.5000  12.5000 Du        
   7612 ****        -2.5000  -8.5000  12.7500 Du        
   7613 ****        -2.5000  -8.2500   9.5000 Du        
   7614 ****        -2.5000  -8.2500   9.7500 Du        
   7615 ****        -2.5000  -8.2500  10.0000 Du        
   7616 ****        -2.5000  -8.2500  10.2500 Du        
   7617 ****        -2.5000  -8.2500  10.5000 Du        
   7618 ****        -2.5000  -8.2500  10.7500 Du        
   7619 ****        -2.5000  -8.2500  12.0000 Du        
   7620 ****        -2.5000  -8.2500  12.2500 Du        
   7621 ****        -2.5000  -8.2500  12.5000 Du        
   7622 ****        -2.5000  -8.2500  12.7500 Du        
   7623 ****        -2.5000  -8.0000   9.5000 Du        
   7624 ****        -2.5000  -8.0000   9.7500 Du        
   7625 ****        -2.5000  -8.0000  10.0000 Du        
   7626 ****        -2.5000  -8.0000  10.2500 Du        
   7627 ****        -2.5000  -7.7500   9.7500 Du        
   7628 ****        -2.5000  -1.2500  25.2500 Du        
   7629 ****        -2.5000  -1.2500  25.5000 Du        
   7630 ****        -2.5000  -1.2500  25.7500 Du        
   7631 ****        -2.5000  -1.2500  26.0000 Du        
   7632 ****        -2.5000  -1.2500  26.2500 Du        
   7633 ****        -2.5000  -1.0000  25.0000 Du        
   7634 ****        -2.5000  -1.0000  25.2500 Du        
   7635 ****        -2.5000  -1.0000  25.5000 Du        
   7636 ****        -2.5000  -1.0000  25.7500 Du        
   7637 ****        -2.5000  -1.0000  26.0000 Du        
   7638 ****        -2.5000  -1.0000  26.2500 Du        
   7639 ****        -2.5000  -0.7500  25.2500 Du        
   7640 ****        -2.5000  -0.7500  25.5000 Du        
   7641 ****        -2.5000  -0.7500  25.7500 Du        
   7642 ****        -2.5000  -0.7500  26.0000 Du        
   7643 ****        -2.5000  -0.7500  26.2500 Du        
   7644 ****        -2.5000  -0.5000  25.5000 Du        
   7645 ****        -2.5000  -0.5000  25.7500 Du        
   7646 ****        -2.5000  -0.5000  26.0000 Du        
   7647 ****        -2.5000  -0.5000  26.2500 Du        
   7648 ****        -2.5000  -0.2500  25.7500 Du        
   7649 ****        -2.5000  -0.2500  26.0000 Du        
   7650 ****        -2.5000   1.7500  16.0000 Du        
   7651 ****        -2.5000   1.7500  16.2500 Du        
   7652 ****        -2.5000   1.7500  17.2500 Du        
   7653 ****        -2.5000   1.7500  17.5000 Du        
   7654 ****        -2.5000   1.7500  17.7500 Du        
   7655 ****        -2.5000   1.7500  18.0000 Du        
   7656 ****        -2.5000   1.7500  18.2500 Du        
   7657 ****        -2.5000   2.0000  15.7500 Du        
   7658 ****        -2.5000   2.0000  16.0000 Du        
   7659 ****        -2.5000   2.0000  16.2500 Du        
   7660 ****        -2.5000   2.0000  16.5000 Du        
   7661 ****        -2.5000   2.0000  16.7500 Du        
   7662 ****        -2.5000   2.0000  17.0000 Du        
   7663 ****        -2.5000   2.0000  17.2500 Du        
   7664 ****        -2.5000   2.0000  17.5000 Du        
   7665 ****        -2.5000   2.0000  17.7500 Du        
   7666 ****        -2.5000   2.0000  18.0000 Du        
   7667 ****        -2.5000   2.0000  18.2500 Du        
   7668 ****        -2.5000   2.0000  18.5000 Du        
   7669 ****        -2.5000   2.0000  18.7500 Du        
   7670 ****        -2.5000   2.2500  15.7500 Du        
   7671 ****        -2.5000   2.2500  16.0000 Du        
   7672 ****        -2.5000   2.2500  16.2500 Du        
   7673 ****        -2.5000   2.2500  16.5000 Du        
   7674 ****        -2.5000   2.2500  16.7500 Du        
   7675 ****        -2.5000   2.2500  17.0000 Du        
   7676 ****        -2.5000   2.2500  17.2500 Du        
   7677 ****        -2.5000   2.2500  17.5000 Du        
   7678 ****        -2.5000   2.2500  17.7500 Du        
   7679 ****        -2.5000   2.2500  18.0000 Du        
   7680 ****        -2.5000   2.2500  18.2500 Du        
   7681 ****        -2.5000   2.2500  18.5000 Du        
   7682 ****        -2.5000   2.2500  18.7500 Du        
   7683 ****        -2.5000   2.2500  19.0000 Du        
   7684 ****        -2.5000   2.2500  19.2500 Du        
   7685 ****        -2.5000   2.5000  15.7500 Du        
   7686 ****        -2.5000   2.5000  16.0000 Du        
   7687 ****        -2.5000   2.5000  16.2500 Du        
   7688 ****        -2.5000   2.5000  16.5000 Du        
   7689 ****        -2.5000   2.5000  16.7500 Du        
   7690 ****        -2.5000   2.5000  17.0000 Du        
   7691 ****        -2.5000   2.5000  17.2500 Du        
   7692 ****        -2.5000   2.5000  17.5000 Du        
   7693 ****        -2.5000   2.5000  17.7500 Du        
   7694 ****        -2.5000   2.5000  18.0000 Du        
   7695 ****        -2.5000   2.5000  18.2500 Du        
   7696 ****        -2.5000   2.5000  18.5000 Du        
   7697 ****        -2.5000   2.5000  18.7500 Du        
   7698 ****        -2.5000   2.5000  19.0000 Du        
   7699 ****        -2.5000   2.5000  19.2500 Du        
   7700 ****        -2.5000   2.7500  15.7500 Du        
   7701 ****        -2.5000   2.7500  16.0000 Du        
   7702 ****        -2.5000   2.7500  16.2500 Du        
   7703 ****        -2.5000   2.7500  16.5000 Du        
   7704 ****        -2.5000   2.7500  16.7500 Du        
   7705 ****        -2.5000   2.7500  17.0000 Du        
   7706 ****        -2.5000   2.7500  17.2500 Du        
   7707 ****        -2.5000   2.7500  17.5000 Du        
   7708 ****        -2.5000   2.7500  17.7500 Du        
   7709 ****        -2.5000   2.7500  18.0000 Du        
   7710 ****        -2.5000   2.7500  18.2500 Du        
   7711 ****        -2.5000   2.7500  18.5000 Du        
   7712 ****        -2.5000   2.7500  18.7500 Du        
   7713 ****        -2.5000   2.7500  19.0000 Du        
   7714 ****        -2.5000   2.7500  19.2500 Du        
   7715 ****        -2.5000   3.0000  15.7500 Du        
   7716 ****        -2.5000   3.0000  16.0000 Du        
   7717 ****        -2.5000   3.0000  16.2500 Du        
   7718 ****        -2.5000   3.0000  16.5000 Du        
   7719 ****        -2.5000   3.0000  16.7500 Du        
   7720 ****        -2.5000   3.0000  17.0000 Du        
   7721 ****        -2.5000   3.0000  17.2500 Du        
   7722 ****        -2.5000   3.0000  17.5000 Du        
   7723 ****        -2.5000   3.0000  17.7500 Du        
   7724 ****        -2.5000   3.0000  18.0000 Du        
   7725 ****        -2.5000   3.0000  18.2500 Du        
   7726 ****        -2.5000   3.0000  18.5000 Du        
   7727 ****        -2.5000   3.0000  18.7500 Du        
   7728 ****        -2.5000   3.0000  19.0000 Du        
   7729 ****        -2.5000   3.0000  19.2500 Du        
   7730 ****        -2.5000   3.2500  16.0000 Du        
   7731 ****        -2.5000   3.2500  16.2500 Du        
   7732 ****        -2.5000   3.2500  16.5000 Du        
   7733 ****        -2.5000   3.2500  16.7500 Du        
   7734 ****        -2.5000   3.2500  17.0000 Du        
   7735 ****        -2.5000   3.2500  17.2500 Du        
   7736 ****        -2.5000   3.2500  17.5000 Du        
   7737 ****        -2.5000   3.2500  17.7500 Du        
   7738 ****        -2.5000   3.2500  18.0000 Du        
   7739 ****        -2.5000   3.2500  18.2500 Du        
   7740 ****        -2.5000   3.2500  18.5000 Du        
   7741 ****        -2.5000   3.2500  18.7500 Du        
   7742 ****        -2.5000   3.2500  19.0000 Du        
   7743 ****        -2.5000   3.2500  19.2500 Du        
   7744 ****        -2.5000   3.5000  16.5000 Du        
   7745 ****        -2.5000   3.5000  16.7500 Du        
   7746 ****        -2.5000   3.5000  17.0000 Du        
   7747 ****        -2.5000   3.5000  17.2500 Du        
   7748 ****        -2.5000   9.7500  22.7500 Du        
   7749 ****        -2.5000   9.7500  23.0000 Du        
   7750 ****        -2.5000   9.7500  23.2500 Du        
   7751 ****        -2.5000  10.0000  22.0000 Du        
   7752 ****        -2.5000  10.0000  22.2500 Du        
   7753 ****        -2.5000  10.0000  22.5000 Du        
   7754 ****        -2.5000  10.0000  22.7500 Du        
   7755 ****        -2.5000  10.0000  23.0000 Du        
   7756 ****        -2.5000  10.0000  23.2500 Du        
   7757 ****        -2.5000  10.2500  22.0000 Du        
   7758 ****        -2.5000  10.2500  22.2500 Du        
   7759 ****        -2.5000  10.2500  22.5000 Du        
   7760 ****        -2.5000  10.2500  22.7500 Du        
   7761 ****        -2.5000  10.2500  23.0000 Du        
   7762 ****        -2.5000  10.2500  23.2500 Du        
   7763 ****        -2.5000  10.5000  22.0000 Du        
   7764 ****        -2.5000  10.5000  22.2500 Du        
   7765 ****        -2.5000  10.5000  22.5000 Du        
   7766 ****        -2.5000  10.5000  22.7500 Du        
   7767 ****        -2.5000  10.5000  23.0000 Du        
   7768 ****        -2.5000  10.5000  23.2500 Du        
   7769 ****        -2.5000  10.5000  23.5000 Du        
   7770 ****        -2.5000  10.7500  22.2500 Du        
   7771 ****        -2.5000  10.7500  22.5000 Du        
   7772 ****        -2.5000  10.7500  22.7500 Du        
   7773 ****        -2.5000  10.7500  23.0000 Du        
   7774 ****        -2.5000  10.7500  23.2500 Du        
   7775 ****        -2.5000  10.7500  23.5000 Du        
   7776 ****        -2.5000  11.0000  22.5000 Du        
   7777 ****        -2.5000  11.0000  22.7500 Du        
   7778 ****        -2.5000  11.0000  23.0000 Du        
   7779 ****        -2.5000  11.0000  23.2500 Du        
   7780 ****        -2.5000  11.0000  23.5000 Du        
   7781 ****        -2.5000  11.2500  22.7500 Du        
   7782 ****        -2.5000  11.2500  23.0000 Du        
   7783 ****        -2.5000  11.2500  23.2500 Du        
   7784 ****        -2.5000  11.2500  23.5000 Du        
   7785 ****        -2.5000  11.5000  22.7500 Du        
   7786 ****        -2.5000  11.5000  23.0000 Du        
   7787 ****        -2.5000  11.5000  23.2500 Du        
   7788 ****        -2.5000  11.5000  23.5000 Du        
   7789 ****        -2.5000  11.7500  23.0000 Du        
   7790 ****        -2.5000  11.7500  23.2500 Du        
   7791 ****        -2.5000  11.7500  23.5000 Du        
   7792 ****        -2.5000  12.0000  23.2500 Du        
   7793 ****        -2.2500  -9.0000   9.7500 Du        
   7794 ****        -2.2500  -9.0000  10.0000 Du        
   7795 ****        -2.2500  -9.0000  10.2500 Du        
   7796 ****        -2.2500  -9.0000  10.5000 Du        
   7797 ****        -2.2500  -9.0000  10.7500 Du        
   7798 ****        -2.2500  -9.0000  11.0000 Du        
   7799 ****        -2.2500  -9.0000  11.2500 Du        
   7800 ****        -2.2500  -9.0000  11.5000 Du        
   7801 ****        -2.2500  -9.0000  11.7500 Du        
   7802 ****        -2.2500  -9.0000  12.0000 Du        
   7803 ****        -2.2500  -9.0000  12.2500 Du        
   7804 ****        -2.2500  -9.0000  12.5000 Du        
   7805 ****        -2.2500  -9.0000  12.7500 Du        
   7806 ****        -2.2500  -9.0000  13.0000 Du        
   7807 ****        -2.2500  -9.0000  21.2500 Du        
   7808 ****        -2.2500  -9.0000  21.5000 Du        
   7809 ****        -2.2500  -8.7500   9.7500 Du        
   7810 ****        -2.2500  -8.7500  10.0000 Du        
   7811 ****        -2.2500  -8.7500  10.2500 Du        
   7812 ****        -2.2500  -8.7500  10.5000 Du        
   7813 ****        -2.2500  -8.7500  10.7500 Du        
   7814 ****        -2.2500  -8.7500  11.0000 Du        
   7815 ****        -2.2500  -8.7500  11.2500 Du        
   7816 ****        -2.2500  -8.7500  11.5000 Du        
   7817 ****        -2.2500  -8.7500  11.7500 Du        
   7818 ****        -2.2500  -8.7500  12.0000 Du        
   7819 ****        -2.2500  -8.7500  12.2500 Du        
   7820 ****        -2.2500  -8.7500  12.5000 Du        
   7821 ****        -2.2500  -8.7500  12.7500 Du        
   7822 ****        -2.2500  -8.7500  13.0000 Du        
   7823 ****        -2.2500  -8.5000   9.7500 Du        
   7824 ****        -2.2500  -8.5000  10.0000 Du        
   7825 ****        -2.2500  -8.5000  10.2500 Du        
   7826 ****        -2.2500  -8.5000  10.5000 Du        
   7827 ****        -2.2500  -8.5000  10.7500 Du        
   7828 ****        -2.2500  -8.5000  11.0000 Du        
   7829 ****        -2.2500  -8.5000  11.2500 Du        
   7830 ****        -2.2500  -8.5000  11.5000 Du        
   7831 ****        -2.2500  -8.5000  11.7500 Du        
   7832 ****        -2.2500  -8.5000  12.0000 Du        
   7833 ****        -2.2500  -8.5000  12.2500 Du        
   7834 ****        -2.2500  -8.5000  12.5000 Du        
   7835 ****        -2.2500  -8.5000  12.7500 Du        
   7836 ****        -2.2500  -8.5000  13.0000 Du        
   7837 ****        -2.2500  -8.2500   9.7500 Du        
   7838 ****        -2.2500  -8.2500  10.0000 Du        
   7839 ****        -2.2500  -8.2500  10.2500 Du        
   7840 ****        -2.2500  -8.2500  10.5000 Du        
   7841 ****        -2.2500  -8.2500  10.7500 Du        
   7842 ****        -2.2500  -8.2500  11.2500 Du        
   7843 ****        -2.2500  -8.2500  11.7500 Du        
   7844 ****        -2.2500  -8.2500  12.0000 Du        
   7845 ****        -2.2500  -8.2500  12.2500 Du        
   7846 ****        -2.2500  -8.2500  12.5000 Du        
   7847 ****        -2.2500  -8.2500  12.7500 Du        
   7848 ****        -2.2500  -8.2500  13.0000 Du        
   7849 ****        -2.2500  -8.0000  10.0000 Du        
   7850 ****        -2.2500  -8.0000  10.2500 Du        
   7851 ****        -2.2500  -8.0000  13.0000 Du        
   7852 ****        -2.2500  -1.2500  25.2500 Du        
   7853 ****        -2.2500  -1.2500  25.5000 Du        
   7854 ****        -2.2500  -1.2500  25.7500 Du        
   7855 ****        -2.2500  -1.2500  26.0000 Du        
   7856 ****        -2.2500  -1.2500  26.2500 Du        
   7857 ****        -2.2500  -1.0000  25.2500 Du        
   7858 ****        -2.2500  -1.0000  25.5000 Du        
   7859 ****        -2.2500  -1.0000  25.7500 Du        
   7860 ****        -2.2500  -1.0000  26.0000 Du        
   7861 ****        -2.2500  -1.0000  26.2500 Du        
   7862 ****        -2.2500  -0.7500  25.2500 Du        
   7863 ****        -2.2500  -0.7500  25.5000 Du        
   7864 ****        -2.2500  -0.7500  25.7500 Du        
   7865 ****        -2.2500  -0.7500  26.0000 Du        
   7866 ****        -2.2500  -0.7500  26.2500 Du        
   7867 ****        -2.2500  -0.5000  25.7500 Du        
   7868 ****        -2.2500  -0.5000  26.0000 Du        
   7869 ****        -2.2500  -0.5000  26.2500 Du        
   7870 ****        -2.2500  -0.2500  25.7500 Du        
   7871 ****        -2.2500  -0.2500  26.0000 Du        
   7872 ****        -2.2500   2.0000  15.7500 Du        
   7873 ****        -2.2500   2.0000  16.0000 Du        
   7874 ****        -2.2500   2.0000  16.2500 Du        
   7875 ****        -2.2500   2.0000  16.5000 Du        
   7876 ****        -2.2500   2.0000  16.7500 Du        
   7877 ****        -2.2500   2.0000  17.0000 Du        
   7878 ****        -2.2500   2.0000  17.2500 Du        
   7879 ****        -2.2500   2.0000  17.5000 Du        
   7880 ****        -2.2500   2.0000  17.7500 Du        
   7881 ****        -2.2500   2.0000  18.0000 Du        
   7882 ****        -2.2500   2.0000  18.2500 Du        
   7883 ****        -2.2500   2.2500  15.7500 Du        
   7884 ****        -2.2500   2.2500  16.0000 Du        
   7885 ****        -2.2500   2.2500  16.2500 Du        
   7886 ****        -2.2500   2.2500  16.5000 Du        
   7887 ****        -2.2500   2.2500  16.7500 Du        
   7888 ****        -2.2500   2.2500  17.0000 Du        
   7889 ****        -2.2500   2.2500  17.2500 Du        
   7890 ****        -2.2500   2.2500  17.5000 Du        
   7891 ****        -2.2500   2.2500  17.7500 Du        
   7892 ****        -2.2500   2.2500  18.0000 Du        
   7893 ****        -2.2500   2.2500  18.2500 Du        
   7894 ****        -2.2500   2.2500  18.5000 Du        
   7895 ****        -2.2500   2.2500  18.7500 Du        
   7896 ****        -2.2500   2.5000  15.5000 Du        
   7897 ****        -2.2500   2.5000  15.7500 Du        
   7898 ****        -2.2500   2.5000  16.0000 Du        
   7899 ****        -2.2500   2.5000  16.2500 Du        
   7900 ****        -2.2500   2.5000  16.5000 Du        
   7901 ****        -2.2500   2.5000  16.7500 Du        
   7902 ****        -2.2500   2.5000  17.0000 Du        
   7903 ****        -2.2500   2.5000  17.2500 Du        
   7904 ****        -2.2500   2.5000  17.5000 Du        
   7905 ****        -2.2500   2.5000  17.7500 Du        
   7906 ****        -2.2500   2.5000  18.0000 Du        
   7907 ****        -2.2500   2.5000  18.2500 Du        
   7908 ****        -2.2500   2.5000  18.5000 Du        
   7909 ****        -2.2500   2.5000  18.7500 Du        
   7910 ****        -2.2500   2.5000  19.0000 Du        
   7911 ****        -2.2500   2.7500  15.5000 Du        
   7912 ****        -2.2500   2.7500  15.7500 Du        
   7913 ****        -2.2500   2.7500  16.0000 Du        
   7914 ****        -2.2500   2.7500  16.2500 Du        
   7915 ****        -2.2500   2.7500  16.5000 Du        
   7916 ****        -2.2500   2.7500  16.7500 Du        
   7917 ****        -2.2500   2.7500  17.0000 Du        
   7918 ****        -2.2500   2.7500  17.2500 Du        
   7919 ****        -2.2500   2.7500  17.5000 Du        
   7920 ****        -2.2500   2.7500  17.7500 Du        
   7921 ****        -2.2500   2.7500  18.0000 Du        
   7922 ****        -2.2500   2.7500  18.2500 Du        
   7923 ****        -2.2500   2.7500  18.5000 Du        
   7924 ****        -2.2500   2.7500  18.7500 Du        
   7925 ****        -2.2500   2.7500  19.0000 Du        
   7926 ****        -2.2500   2.7500  19.2500 Du        
   7927 ****        -2.2500   3.0000  15.5000 Du        
   7928 ****        -2.2500   3.0000  15.7500 Du        
   7929 ****        -2.2500   3.0000  16.0000 Du        
   7930 ****        -2.2500   3.0000  16.2500 Du        
   7931 ****        -2.2500   3.0000  16.5000 Du        
   7932 ****        -2.2500   3.0000  16.7500 Du        
   7933 ****        -2.2500   3.0000  17.0000 Du        
   7934 ****        -2.2500   3.0000  17.2500 Du        
   7935 ****        -2.2500   3.0000  17.5000 Du        
   7936 ****        -2.2500   3.0000  17.7500 Du        
   7937 ****        -2.2500   3.0000  18.0000 Du        
   7938 ****        -2.2500   3.0000  18.2500 Du        
   7939 ****        -2.2500   3.0000  18.5000 Du        
   7940 ****        -2.2500   3.0000  18.7500 Du        
   7941 ****        -2.2500   3.0000  19.0000 Du        
   7942 ****        -2.2500   3.2500  15.7500 Du        
   7943 ****        -2.2500   3.2500  16.0000 Du        
   7944 ****        -2.2500   3.2500  16.2500 Du        
   7945 ****        -2.2500   3.2500  16.5000 Du        
   7946 ****        -2.2500   3.2500  16.7500 Du        
   7947 ****        -2.2500   3.2500  17.0000 Du        
   7948 ****        -2.2500   3.2500  17.2500 Du        
   7949 ****        -2.2500   3.2500  17.5000 Du        
   7950 ****        -2.2500   3.2500  17.7500 Du        
   7951 ****        -2.2500   3.2500  18.0000 Du        
   7952 ****        -2.2500   3.2500  18.2500 Du        
   7953 ****        -2.2500   3.2500  18.5000 Du        
   7954 ****        -2.2500   3.2500  18.7500 Du        
   7955 ****        -2.2500   3.5000  16.0000 Du        
   7956 ****        -2.2500   3.5000  16.2500 Du        
   7957 ****        -2.2500   3.5000  16.5000 Du        
   7958 ****        -2.2500   3.5000  16.7500 Du        
   7959 ****        -2.2500   3.5000  17.0000 Du        
   7960 ****        -2.2500   3.5000  17.2500 Du        
   7961 ****        -2.2500   8.0000  15.7500 Du        
   7962 ****        -2.2500   8.0000  16.0000 Du        
   7963 ****        -2.2500   8.0000  16.2500 Du        
   7964 ****        -2.2500   8.2500  15.5000 Du        
   7965 ****        -2.2500   8.2500  15.7500 Du        
   7966 ****        -2.2500   8.2500  16.0000 Du        
   7967 ****        -2.2500   8.2500  16.2500 Du        
   7968 ****        -2.2500   8.2500  16.5000 Du        
   7969 ****        -2.2500   8.2500  16.7500 Du        
   7970 ****        -2.2500   8.2500  17.0000 Du        
   7971 ****        -2.2500   8.2500  17.2500 Du        
   7972 ****        -2.2500   8.2500  17.5000 Du        
   7973 ****        -2.2500   8.2500  17.7500 Du        
   7974 ****        -2.2500   8.2500  18.0000 Du        
   7975 ****        -2.2500   8.5000  15.2500 Du        
   7976 ****        -2.2500   8.5000  15.5000 Du        
   7977 ****        -2.2500   8.5000  15.7500 Du        
   7978 ****        -2.2500   8.5000  16.0000 Du        
   7979 ****        -2.2500   8.5000  16.2500 Du        
   7980 ****        -2.2500  10.0000  22.7500 Du        
   7981 ****        -2.2500  10.0000  23.0000 Du        
   7982 ****        -2.2500  10.0000  23.2500 Du        
   7983 ****        -2.2500  10.2500  22.0000 Du        
   7984 ****        -2.2500  10.2500  22.2500 Du        
   7985 ****        -2.2500  10.2500  22.5000 Du        
   7986 ****        -2.2500  10.2500  22.7500 Du        
   7987 ****        -2.2500  10.2500  23.0000 Du        
   7988 ****        -2.2500  10.2500  23.2500 Du        
   7989 ****        -2.2500  10.5000  22.0000 Du        
   7990 ****        -2.2500  10.5000  22.2500 Du        
   7991 ****        -2.2500  10.5000  22.5000 Du        
   7992 ****        -2.2500  10.5000  22.7500 Du        
   7993 ****        -2.2500  10.5000  23.0000 Du        
   7994 ****        -2.2500  10.5000  23.2500 Du        
   7995 ****        -2.2500  10.5000  23.5000 Du        
   7996 ****        -2.2500  10.7500  22.0000 Du        
   7997 ****        -2.2500  10.7500  22.2500 Du        
   7998 ****        -2.2500  10.7500  22.5000 Du        
   7999 ****        -2.2500  10.7500  22.7500 Du        
   8000 ****        -2.2500  10.7500  23.0000 Du        
   8001 ****        -2.2500  10.7500  23.2500 Du        
   8002 ****        -2.2500  10.7500  23.5000 Du        
   8003 ****        -2.2500  10.7500  23.7500 Du        
   8004 ****        -2.2500  11.0000  22.2500 Du        
   8005 ****        -2.2500  11.0000  22.5000 Du        
   8006 ****        -2.2500  11.0000  22.7500 Du        
   8007 ****        -2.2500  11.0000  23.0000 Du        
   8008 ****        -2.2500  11.0000  23.2500 Du        
   8009 ****        -2.2500  11.0000  23.5000 Du        
   8010 ****        -2.2500  11.0000  23.7500 Du        
   8011 ****        -2.2500  11.2500  22.2500 Du        
   8012 ****        -2.2500  11.2500  22.5000 Du        
   8013 ****        -2.2500  11.2500  22.7500 Du        
   8014 ****        -2.2500  11.2500  23.0000 Du        
   8015 ****        -2.2500  11.2500  23.2500 Du        
   8016 ****        -2.2500  11.2500  23.5000 Du        
   8017 ****        -2.2500  11.2500  23.7500 Du        
   8018 ****        -2.2500  11.5000  22.5000 Du        
   8019 ****        -2.2500  11.5000  22.7500 Du        
   8020 ****        -2.2500  11.5000  23.0000 Du        
   8021 ****        -2.2500  11.5000  23.2500 Du        
   8022 ****        -2.2500  11.5000  23.5000 Du        
   8023 ****        -2.2500  11.5000  23.7500 Du        
   8024 ****        -2.2500  11.7500  22.7500 Du        
   8025 ****        -2.2500  11.7500  23.0000 Du        
   8026 ****        -2.2500  11.7500  23.2500 Du        
   8027 ****        -2.2500  11.7500  23.5000 Du        
   8028 ****        -2.2500  11.7500  23.7500 Du        
   8029 ****        -2.2500  12.0000  22.7500 Du        
   8030 ****        -2.2500  12.0000  23.0000 Du        
   8031 ****        -2.2500  12.0000  23.2500 Du        
   8032 ****        -2.2500  12.0000  23.5000 Du        
   8033 ****        -2.2500  12.0000  23.7500 Du        
   8034 ****        -2.2500  12.2500  23.0000 Du        
   8035 ****        -2.2500  12.2500  23.2500 Du        
   8036 ****        -2.2500  12.2500  23.5000 Du        
   8037 ****        -2.0000  -9.0000   9.7500 Du        
   8038 ****        -2.0000  -9.0000  10.0000 Du        
   8039 ****        -2.0000  -9.0000  10.2500 Du        
   8040 ****        -2.0000  -9.0000  10.5000 Du        
   8041 ****        -2.0000  -9.0000  10.7500 Du        
   8042 ****        -2.0000  -9.0000  11.0000 Du        
   8043 ****        -2.0000  -9.0000  11.2500 Du        
   8044 ****        -2.0000  -9.0000  11.5000 Du        
   8045 ****        -2.0000  -9.0000  11.7500 Du        
   8046 ****        -2.0000  -9.0000  12.0000 Du        
   8047 ****        -2.0000  -9.0000  12.2500 Du        
   8048 ****        -2.0000  -9.0000  12.5000 Du        
   8049 ****        -2.0000  -9.0000  12.7500 Du        
   8050 ****        -2.0000  -9.0000  13.0000 Du        
   8051 ****        -2.0000  -9.0000  13.2500 Du        
   8052 ****        -2.0000  -9.0000  21.0000 Du        
   8053 ****        -2.0000  -9.0000  21.2500 Du        
   8054 ****        -2.0000  -9.0000  21.5000 Du        
   8055 ****        -2.0000  -9.0000  21.7500 Du        
   8056 ****        -2.0000  -8.7500  10.0000 Du        
   8057 ****        -2.0000  -8.7500  10.2500 Du        
   8058 ****        -2.0000  -8.7500  10.5000 Du        
   8059 ****        -2.0000  -8.7500  10.7500 Du        
   8060 ****        -2.0000  -8.7500  11.0000 Du        
   8061 ****        -2.0000  -8.7500  11.2500 Du        
   8062 ****        -2.0000  -8.7500  11.5000 Du        
   8063 ****        -2.0000  -8.7500  11.7500 Du        
   8064 ****        -2.0000  -8.7500  12.0000 Du        
   8065 ****        -2.0000  -8.7500  12.2500 Du        
   8066 ****        -2.0000  -8.7500  12.5000 Du        
   8067 ****        -2.0000  -8.7500  12.7500 Du        
   8068 ****        -2.0000  -8.7500  13.0000 Du        
   8069 ****        -2.0000  -8.7500  13.2500 Du        
   8070 ****        -2.0000  -8.5000  10.0000 Du        
   8071 ****        -2.0000  -8.5000  10.2500 Du        
   8072 ****        -2.0000  -8.5000  10.5000 Du        
   8073 ****        -2.0000  -8.5000  10.7500 Du        
   8074 ****        -2.0000  -8.5000  11.0000 Du        
   8075 ****        -2.0000  -8.5000  11.2500 Du        
   8076 ****        -2.0000  -8.5000  11.5000 Du        
   8077 ****        -2.0000  -8.5000  11.7500 Du        
   8078 ****        -2.0000  -8.5000  12.0000 Du        
   8079 ****        -2.0000  -8.5000  12.2500 Du        
   8080 ****        -2.0000  -8.5000  12.5000 Du        
   8081 ****        -2.0000  -8.5000  12.7500 Du        
   8082 ****        -2.0000  -8.5000  13.0000 Du        
   8083 ****        -2.0000  -8.5000  13.2500 Du        
   8084 ****        -2.0000  -8.2500  10.0000 Du        
   8085 ****        -2.0000  -8.2500  10.2500 Du        
   8086 ****        -2.0000  -8.2500  10.5000 Du        
   8087 ****        -2.0000  -8.2500  10.7500 Du        
   8088 ****        -2.0000  -8.2500  11.0000 Du        
   8089 ****        -2.0000  -8.2500  11.2500 Du        
   8090 ****        -2.0000  -8.2500  11.7500 Du        
   8091 ****        -2.0000  -8.2500  12.0000 Du        
   8092 ****        -2.0000  -8.2500  12.2500 Du        
   8093 ****        -2.0000  -8.2500  12.5000 Du        
   8094 ****        -2.0000  -8.2500  12.7500 Du        
   8095 ****        -2.0000  -8.2500  13.0000 Du        
   8096 ****        -2.0000  -8.2500  13.2500 Du        
   8097 ****        -2.0000  -8.0000  12.7500 Du        
   8098 ****        -2.0000  -8.0000  13.0000 Du        
   8099 ****        -2.0000  -8.0000  13.2500 Du        
   8100 ****        -2.0000  -8.0000  13.5000 Du        
   8101 ****        -2.0000  -1.2500  25.2500 Du        
   8102 ****        -2.0000  -1.2500  25.5000 Du        
   8103 ****        -2.0000  -1.2500  25.7500 Du        
   8104 ****        -2.0000  -1.2500  26.0000 Du        
   8105 ****        -2.0000  -1.0000  25.2500 Du        
   8106 ****        -2.0000  -1.0000  25.5000 Du        
   8107 ****        -2.0000  -1.0000  25.7500 Du        
   8108 ****        -2.0000  -1.0000  26.0000 Du        
   8109 ****        -2.0000  -1.0000  26.2500 Du        
   8110 ****        -2.0000  -0.7500  25.5000 Du        
   8111 ****        -2.0000  -0.7500  25.7500 Du        
   8112 ****        -2.0000  -0.7500  26.0000 Du        
   8113 ****        -2.0000  -0.7500  26.2500 Du        
   8114 ****        -2.0000  -0.5000  25.7500 Du        
   8115 ****        -2.0000  -0.5000  26.0000 Du        
   8116 ****        -2.0000  -0.5000  26.2500 Du        
   8117 ****        -2.0000  -0.2500  25.7500 Du        
   8118 ****        -2.0000  -0.2500  26.0000 Du        
   8119 ****        -2.0000  -0.2500  26.2500 Du        
   8120 ****        -2.0000   2.0000  15.7500 Du        
   8121 ****        -2.0000   2.0000  16.0000 Du        
   8122 ****        -2.0000   2.0000  16.2500 Du        
   8123 ****        -2.0000   2.0000  16.5000 Du        
   8124 ****        -2.0000   2.0000  16.7500 Du        
   8125 ****        -2.0000   2.0000  17.0000 Du        
   8126 ****        -2.0000   2.0000  17.2500 Du        
   8127 ****        -2.0000   2.0000  17.5000 Du        
   8128 ****        -2.0000   2.0000  17.7500 Du        
   8129 ****        -2.0000   2.2500  15.5000 Du        
   8130 ****        -2.0000   2.2500  15.7500 Du        
   8131 ****        -2.0000   2.2500  16.0000 Du        
   8132 ****        -2.0000   2.2500  16.2500 Du        
   8133 ****        -2.0000   2.2500  16.5000 Du        
   8134 ****        -2.0000   2.2500  16.7500 Du        
   8135 ****        -2.0000   2.2500  17.0000 Du        
   8136 ****        -2.0000   2.2500  17.2500 Du        
   8137 ****        -2.0000   2.2500  17.5000 Du        
   8138 ****        -2.0000   2.2500  17.7500 Du        
   8139 ****        -2.0000   2.2500  18.0000 Du        
   8140 ****        -2.0000   2.2500  18.2500 Du        
   8141 ****        -2.0000   2.5000  15.5000 Du        
   8142 ****        -2.0000   2.5000  15.7500 Du        
   8143 ****        -2.0000   2.5000  16.0000 Du        
   8144 ****        -2.0000   2.5000  16.2500 Du        
   8145 ****        -2.0000   2.5000  16.5000 Du        
   8146 ****        -2.0000   2.5000  16.7500 Du        
   8147 ****        -2.0000   2.5000  17.0000 Du        
   8148 ****        -2.0000   2.5000  17.2500 Du        
   8149 ****        -2.0000   2.5000  17.5000 Du        
   8150 ****        -2.0000   2.5000  17.7500 Du        
   8151 ****        -2.0000   2.5000  18.0000 Du        
   8152 ****        -2.0000   2.5000  18.2500 Du        
   8153 ****        -2.0000   2.5000  18.5000 Du        
   8154 ****        -2.0000   2.7500  15.5000 Du        
   8155 ****        -2.0000   2.7500  15.7500 Du        
   8156 ****        -2.0000   2.7500  16.0000 Du        
   8157 ****        -2.0000   2.7500  16.2500 Du        
   8158 ****        -2.0000   2.7500  16.5000 Du        
   8159 ****        -2.0000   2.7500  16.7500 Du        
   8160 ****        -2.0000   2.7500  17.0000 Du        
   8161 ****        -2.0000   2.7500  17.2500 Du        
   8162 ****        -2.0000   2.7500  17.5000 Du        
   8163 ****        -2.0000   2.7500  17.7500 Du        
   8164 ****        -2.0000   2.7500  18.0000 Du        
   8165 ****        -2.0000   2.7500  18.2500 Du        
   8166 ****        -2.0000   2.7500  18.5000 Du        
   8167 ****        -2.0000   2.7500  18.7500 Du        
   8168 ****        -2.0000   3.0000  15.5000 Du        
   8169 ****        -2.0000   3.0000  15.7500 Du        
   8170 ****        -2.0000   3.0000  16.0000 Du        
   8171 ****        -2.0000   3.0000  16.2500 Du        
   8172 ****        -2.0000   3.0000  16.5000 Du        
   8173 ****        -2.0000   3.0000  16.7500 Du        
   8174 ****        -2.0000   3.0000  17.0000 Du        
   8175 ****        -2.0000   3.0000  17.2500 Du        
   8176 ****        -2.0000   3.0000  17.5000 Du        
   8177 ****        -2.0000   3.0000  17.7500 Du        
   8178 ****        -2.0000   3.0000  18.0000 Du        
   8179 ****        -2.0000   3.0000  18.2500 Du        
   8180 ****        -2.0000   3.0000  18.5000 Du        
   8181 ****        -2.0000   3.0000  18.7500 Du        
   8182 ****        -2.0000   3.2500  15.5000 Du        
   8183 ****        -2.0000   3.2500  15.7500 Du        
   8184 ****        -2.0000   3.2500  16.0000 Du        
   8185 ****        -2.0000   3.2500  16.2500 Du        
   8186 ****        -2.0000   3.2500  16.5000 Du        
   8187 ****        -2.0000   3.2500  16.7500 Du        
   8188 ****        -2.0000   3.2500  17.0000 Du        
   8189 ****        -2.0000   3.2500  17.2500 Du        
   8190 ****        -2.0000   3.2500  17.5000 Du        
   8191 ****        -2.0000   3.5000  15.5000 Du        
   8192 ****        -2.0000   3.5000  15.7500 Du        
   8193 ****        -2.0000   3.5000  16.0000 Du        
   8194 ****        -2.0000   3.5000  16.2500 Du        
   8195 ****        -2.0000   3.5000  16.5000 Du        
   8196 ****        -2.0000   3.5000  16.7500 Du        
   8197 ****        -2.0000   3.5000  17.0000 Du        
   8198 ****        -2.0000   3.7500  16.0000 Du        
   8199 ****        -2.0000   3.7500  16.2500 Du        
   8200 ****        -2.0000   7.7500  15.7500 Du        
   8201 ****        -2.0000   7.7500  16.0000 Du        
   8202 ****        -2.0000   7.7500  16.2500 Du        
   8203 ****        -2.0000   7.7500  16.5000 Du        
   8204 ****        -2.0000   7.7500  16.7500 Du        
   8205 ****        -2.0000   7.7500  17.0000 Du        
   8206 ****        -2.0000   7.7500  17.2500 Du        
   8207 ****        -2.0000   7.7500  17.5000 Du        
   8208 ****        -2.0000   7.7500  17.7500 Du        
   8209 ****        -2.0000   7.7500  18.0000 Du        
   8210 ****        -2.0000   8.0000  15.2500 Du        
   8211 ****        -2.0000   8.0000  15.5000 Du        
   8212 ****        -2.0000   8.0000  15.7500 Du        
   8213 ****        -2.0000   8.0000  16.0000 Du        
   8214 ****        -2.0000   8.0000  16.2500 Du        
   8215 ****        -2.0000   8.0000  16.5000 Du        
   8216 ****        -2.0000   8.0000  16.7500 Du        
   8217 ****        -2.0000   8.0000  17.0000 Du        
   8218 ****        -2.0000   8.0000  17.2500 Du        
   8219 ****        -2.0000   8.0000  17.5000 Du        
   8220 ****        -2.0000   8.0000  17.7500 Du        
   8221 ****        -2.0000   8.0000  18.0000 Du        
   8222 ****        -2.0000   8.2500  15.0000 Du        
   8223 ****        -2.0000   8.2500  15.2500 Du        
   8224 ****        -2.0000   8.2500  15.5000 Du        
   8225 ****        -2.0000   8.2500  15.7500 Du        
   8226 ****        -2.0000   8.2500  16.0000 Du        
   8227 ****        -2.0000   8.2500  16.2500 Du        
   8228 ****        -2.0000   8.2500  16.5000 Du        
   8229 ****        -2.0000   8.2500  16.7500 Du        
   8230 ****        -2.0000   8.2500  17.0000 Du        
   8231 ****        -2.0000   8.2500  17.2500 Du        
   8232 ****        -2.0000   8.2500  17.5000 Du        
   8233 ****        -2.0000   8.2500  17.7500 Du        
   8234 ****        -2.0000   8.2500  18.0000 Du        
   8235 ****        -2.0000   8.5000  14.7500 Du        
   8236 ****        -2.0000   8.5000  15.0000 Du        
   8237 ****        -2.0000   8.5000  15.2500 Du        
   8238 ****        -2.0000   8.5000  15.5000 Du        
   8239 ****        -2.0000   8.5000  15.7500 Du        
   8240 ****        -2.0000   8.5000  16.0000 Du        
   8241 ****        -2.0000   8.5000  16.2500 Du        
   8242 ****        -2.0000   8.5000  16.5000 Du        
   8243 ****        -2.0000   8.5000  16.7500 Du        
   8244 ****        -2.0000   8.5000  17.0000 Du        
   8245 ****        -2.0000   8.5000  17.2500 Du        
   8246 ****        -2.0000   8.5000  17.5000 Du        
   8247 ****        -2.0000   8.5000  17.7500 Du        
   8248 ****        -2.0000   8.7500  14.5000 Du        
   8249 ****        -2.0000   8.7500  14.7500 Du        
   8250 ****        -2.0000   8.7500  15.0000 Du        
   8251 ****        -2.0000   9.0000  14.0000 Du        
   8252 ****        -2.0000   9.0000  14.2500 Du        
   8253 ****        -2.0000  10.2500  23.0000 Du        
   8254 ****        -2.0000  10.2500  23.2500 Du        
   8255 ****        -2.0000  10.5000  22.7500 Du        
   8256 ****        -2.0000  10.5000  23.0000 Du        
   8257 ****        -2.0000  10.5000  23.2500 Du        
   8258 ****        -2.0000  10.7500  22.2500 Du        
   8259 ****        -2.0000  10.7500  22.5000 Du        
   8260 ****        -2.0000  10.7500  22.7500 Du        
   8261 ****        -2.0000  10.7500  23.0000 Du        
   8262 ****        -2.0000  10.7500  23.2500 Du        
   8263 ****        -2.0000  10.7500  23.5000 Du        
   8264 ****        -2.0000  11.0000  22.0000 Du        
   8265 ****        -2.0000  11.0000  22.2500 Du        
   8266 ****        -2.0000  11.0000  22.5000 Du        
   8267 ****        -2.0000  11.0000  22.7500 Du        
   8268 ****        -2.0000  11.0000  23.0000 Du        
   8269 ****        -2.0000  11.0000  23.2500 Du        
   8270 ****        -2.0000  11.0000  23.5000 Du        
   8271 ****        -2.0000  11.2500  22.2500 Du        
   8272 ****        -2.0000  11.2500  22.5000 Du        
   8273 ****        -2.0000  11.2500  22.7500 Du        
   8274 ****        -2.0000  11.2500  23.0000 Du        
   8275 ****        -2.0000  11.2500  23.2500 Du        
   8276 ****        -2.0000  11.2500  23.5000 Du        
   8277 ****        -2.0000  11.2500  23.7500 Du        
   8278 ****        -2.0000  11.5000  22.2500 Du        
   8279 ****        -2.0000  11.5000  22.5000 Du        
   8280 ****        -2.0000  11.5000  22.7500 Du        
   8281 ****        -2.0000  11.5000  23.0000 Du        
   8282 ****        -2.0000  11.5000  23.2500 Du        
   8283 ****        -2.0000  11.5000  23.5000 Du        
   8284 ****        -2.0000  11.5000  23.7500 Du        
   8285 ****        -2.0000  11.7500  22.2500 Du        
   8286 ****        -2.0000  11.7500  22.5000 Du        
   8287 ****        -2.0000  11.7500  22.7500 Du        
   8288 ****        -2.0000  11.7500  23.0000 Du        
   8289 ****        -2.0000  11.7500  23.2500 Du        
   8290 ****        -2.0000  11.7500  23.5000 Du        
   8291 ****        -2.0000  11.7500  23.7500 Du        
   8292 ****        -2.0000  12.0000  22.5000 Du        
   8293 ****        -2.0000  12.0000  22.7500 Du        
   8294 ****        -2.0000  12.0000  23.0000 Du        
   8295 ****        -2.0000  12.0000  23.2500 Du        
   8296 ****        -2.0000  12.0000  23.5000 Du        
   8297 ****        -2.0000  12.0000  23.7500 Du        
   8298 ****        -2.0000  12.2500  22.7500 Du        
   8299 ****        -2.0000  12.2500  23.0000 Du        
   8300 ****        -2.0000  12.2500  23.2500 Du        
   8301 ****        -2.0000  12.2500  23.5000 Du        
   8302 ****        -2.0000  12.2500  23.7500 Du        
   8303 ****        -2.0000  12.5000  23.0000 Du        
   8304 ****        -2.0000  12.5000  23.2500 Du        
   8305 ****        -1.7500  -9.0000  10.5000 Du        
   8306 ****        -1.7500  -9.0000  10.7500 Du        
   8307 ****        -1.7500  -9.0000  11.0000 Du        
   8308 ****        -1.7500  -9.0000  11.2500 Du        
   8309 ****        -1.7500  -9.0000  11.5000 Du        
   8310 ****        -1.7500  -9.0000  11.7500 Du        
   8311 ****        -1.7500  -9.0000  12.0000 Du        
   8312 ****        -1.7500  -9.0000  12.2500 Du        
   8313 ****        -1.7500  -9.0000  12.5000 Du        
   8314 ****        -1.7500  -9.0000  12.7500 Du        
   8315 ****        -1.7500  -9.0000  13.0000 Du        
   8316 ****        -1.7500  -9.0000  13.2500 Du        
   8317 ****        -1.7500  -9.0000  13.5000 Du        
   8318 ****        -1.7500  -9.0000  21.2500 Du        
   8319 ****        -1.7500  -9.0000  21.7500 Du        
   8320 ****        -1.7500  -9.0000  22.0000 Du        
   8321 ****        -1.7500  -8.7500  10.5000 Du        
   8322 ****        -1.7500  -8.7500  10.7500 Du        
   8323 ****        -1.7500  -8.7500  11.0000 Du        
   8324 ****        -1.7500  -8.7500  11.2500 Du        
   8325 ****        -1.7500  -8.7500  11.5000 Du        
   8326 ****        -1.7500  -8.7500  11.7500 Du        
   8327 ****        -1.7500  -8.7500  12.0000 Du        
   8328 ****        -1.7500  -8.7500  12.2500 Du        
   8329 ****        -1.7500  -8.7500  12.5000 Du        
   8330 ****        -1.7500  -8.7500  12.7500 Du        
   8331 ****        -1.7500  -8.7500  13.0000 Du        
   8332 ****        -1.7500  -8.7500  13.2500 Du        
   8333 ****        -1.7500  -8.7500  13.5000 Du        
   8334 ****        -1.7500  -8.5000  10.5000 Du        
   8335 ****        -1.7500  -8.5000  10.7500 Du        
   8336 ****        -1.7500  -8.5000  11.0000 Du        
   8337 ****        -1.7500  -8.5000  11.2500 Du        
   8338 ****        -1.7500  -8.5000  11.5000 Du        
   8339 ****        -1.7500  -8.5000  11.7500 Du        
   8340 ****        -1.7500  -8.5000  12.0000 Du        
   8341 ****        -1.7500  -8.5000  12.2500 Du        
   8342 ****        -1.7500  -8.5000  12.5000 Du        
   8343 ****        -1.7500  -8.5000  12.7500 Du        
   8344 ****        -1.7500  -8.5000  13.0000 Du        
   8345 ****        -1.7500  -8.5000  13.2500 Du        
   8346 ****        -1.7500  -8.5000  13.5000 Du        
   8347 ****        -1.7500  -8.2500  10.7500 Du        
   8348 ****        -1.7500  -8.2500  11.0000 Du        
   8349 ****        -1.7500  -8.2500  11.2500 Du        
   8350 ****        -1.7500  -8.2500  11.5000 Du        
   8351 ****        -1.7500  -8.2500  11.7500 Du        
   8352 ****        -1.7500  -8.2500  12.0000 Du        
   8353 ****        -1.7500  -8.2500  12.2500 Du        
   8354 ****        -1.7500  -8.2500  12.5000 Du        
   8355 ****        -1.7500  -8.2500  12.7500 Du        
   8356 ****        -1.7500  -8.2500  13.0000 Du        
   8357 ****        -1.7500  -8.2500  13.2500 Du        
   8358 ****        -1.7500  -8.2500  13.5000 Du        
   8359 ****        -1.7500  -8.2500  13.7500 Du        
   8360 ****        -1.7500  -8.0000  12.7500 Du        
   8361 ****        -1.7500  -8.0000  13.0000 Du        
   8362 ****        -1.7500  -8.0000  13.2500 Du        
   8363 ****        -1.7500  -8.0000  13.5000 Du        
   8364 ****        -1.7500  -8.0000  13.7500 Du        
   8365 ****        -1.7500  -7.7500  13.2500 Du        
   8366 ****        -1.7500  -7.7500  13.5000 Du        
   8367 ****        -1.7500  -7.7500  13.7500 Du        
   8368 ****        -1.7500  -1.2500  25.5000 Du        
   8369 ****        -1.7500  -1.2500  25.7500 Du        
   8370 ****        -1.7500  -1.2500  26.0000 Du        
   8371 ****        -1.7500  -1.0000  25.2500 Du        
   8372 ****        -1.7500  -1.0000  25.5000 Du        
   8373 ****        -1.7500  -1.0000  25.7500 Du        
   8374 ****        -1.7500  -1.0000  26.0000 Du        
   8375 ****        -1.7500  -1.0000  26.2500 Du        
   8376 ****        -1.7500  -0.7500  25.5000 Du        
   8377 ****        -1.7500  -0.7500  25.7500 Du        
   8378 ****        -1.7500  -0.7500  26.0000 Du        
   8379 ****        -1.7500  -0.7500  26.2500 Du        
   8380 ****        -1.7500  -0.5000  26.0000 Du        
   8381 ****        -1.7500  -0.5000  26.2500 Du        
   8382 ****        -1.7500  -0.2500  26.0000 Du        
   8383 ****        -1.7500  -0.2500  26.5000 Du        
   8384 ****        -1.7500   2.0000  15.7500 Du        
   8385 ****        -1.7500   2.0000  16.0000 Du        
   8386 ****        -1.7500   2.0000  16.2500 Du        
   8387 ****        -1.7500   2.0000  16.5000 Du        
   8388 ****        -1.7500   2.0000  16.7500 Du        
   8389 ****        -1.7500   2.0000  17.0000 Du        
   8390 ****        -1.7500   2.0000  17.2500 Du        
   8391 ****        -1.7500   2.2500  15.7500 Du        
   8392 ****        -1.7500   2.2500  16.0000 Du        
   8393 ****        -1.7500   2.2500  16.2500 Du        
   8394 ****        -1.7500   2.2500  16.5000 Du        
   8395 ****        -1.7500   2.2500  16.7500 Du        
   8396 ****        -1.7500   2.2500  17.0000 Du        
   8397 ****        -1.7500   2.2500  17.2500 Du        
   8398 ****        -1.7500   2.2500  17.5000 Du        
   8399 ****        -1.7500   2.2500  17.7500 Du        
   8400 ****        -1.7500   2.5000  15.5000 Du        
   8401 ****        -1.7500   2.5000  15.7500 Du        
   8402 ****        -1.7500   2.5000  16.0000 Du        
   8403 ****        -1.7500   2.5000  16.2500 Du        
   8404 ****        -1.7500   2.5000  16.5000 Du        
   8405 ****        -1.7500   2.5000  16.7500 Du        
   8406 ****        -1.7500   2.5000  17.0000 Du        
   8407 ****        -1.7500   2.5000  17.2500 Du        
   8408 ****        -1.7500   2.5000  17.5000 Du        
   8409 ****        -1.7500   2.5000  17.7500 Du        
   8410 ****        -1.7500   2.5000  18.0000 Du        
   8411 ****        -1.7500   2.7500  15.5000 Du        
   8412 ****        -1.7500   2.7500  15.7500 Du        
   8413 ****        -1.7500   2.7500  16.0000 Du        
   8414 ****        -1.7500   2.7500  16.2500 Du        
   8415 ****        -1.7500   2.7500  16.5000 Du        
   8416 ****        -1.7500   2.7500  16.7500 Du        
   8417 ****        -1.7500   2.7500  17.0000 Du        
   8418 ****        -1.7500   2.7500  17.2500 Du        
   8419 ****        -1.7500   2.7500  17.5000 Du        
   8420 ****        -1.7500   2.7500  17.7500 Du        
   8421 ****        -1.7500   2.7500  18.0000 Du        
   8422 ****        -1.7500   3.0000  15.2500 Du        
   8423 ****        -1.7500   3.0000  15.5000 Du        
   8424 ****        -1.7500   3.0000  15.7500 Du        
   8425 ****        -1.7500   3.0000  16.0000 Du        
   8426 ****        -1.7500   3.0000  16.2500 Du        
   8427 ****        -1.7500   3.0000  16.5000 Du        
   8428 ****        -1.7500   3.0000  16.7500 Du        
   8429 ****        -1.7500   3.0000  17.0000 Du        
   8430 ****        -1.7500   3.0000  17.2500 Du        
   8431 ****        -1.7500   3.2500  15.2500 Du        
   8432 ****        -1.7500   3.2500  15.5000 Du        
   8433 ****        -1.7500   3.2500  15.7500 Du        
   8434 ****        -1.7500   3.2500  16.0000 Du        
   8435 ****        -1.7500   3.2500  16.2500 Du        
   8436 ****        -1.7500   3.2500  16.5000 Du        
   8437 ****        -1.7500   3.2500  16.7500 Du        
   8438 ****        -1.7500   3.2500  17.0000 Du        
   8439 ****        -1.7500   3.5000  15.2500 Du        
   8440 ****        -1.7500   3.5000  15.5000 Du        
   8441 ****        -1.7500   3.5000  15.7500 Du        
   8442 ****        -1.7500   3.5000  16.0000 Du        
   8443 ****        -1.7500   3.5000  16.2500 Du        
   8444 ****        -1.7500   3.5000  16.5000 Du        
   8445 ****        -1.7500   3.7500  15.5000 Du        
   8446 ****        -1.7500   3.7500  15.7500 Du        
   8447 ****        -1.7500   3.7500  16.0000 Du        
   8448 ****        -1.7500   3.7500  16.2500 Du        
   8449 ****        -1.7500   4.0000  15.7500 Du        
   8450 ****        -1.7500   4.0000  16.0000 Du        
   8451 ****        -1.7500   7.2500  15.7500 Du        
   8452 ****        -1.7500   7.2500  16.0000 Du        
   8453 ****        -1.7500   7.2500  16.2500 Du        
   8454 ****        -1.7500   7.2500  16.5000 Du        
   8455 ****        -1.7500   7.2500  16.7500 Du        
   8456 ****        -1.7500   7.5000  15.5000 Du        
   8457 ****        -1.7500   7.5000  15.7500 Du        
   8458 ****        -1.7500   7.5000  16.0000 Du        
   8459 ****        -1.7500   7.5000  16.2500 Du        
   8460 ****        -1.7500   7.5000  16.5000 Du        
   8461 ****        -1.7500   7.5000  16.7500 Du        
   8462 ****        -1.7500   7.5000  17.0000 Du        
   8463 ****        -1.7500   7.5000  17.2500 Du        
   8464 ****        -1.7500   7.5000  17.5000 Du        
   8465 ****        -1.7500   7.7500  15.2500 Du        
   8466 ****        -1.7500   7.7500  15.5000 Du        
   8467 ****        -1.7500   7.7500  15.7500 Du        
   8468 ****        -1.7500   7.7500  16.0000 Du        
   8469 ****        -1.7500   7.7500  16.2500 Du        
   8470 ****        -1.7500   7.7500  16.5000 Du        
   8471 ****        -1.7500   7.7500  16.7500 Du        
   8472 ****        -1.7500   7.7500  17.0000 Du        
   8473 ****        -1.7500   7.7500  17.2500 Du        
   8474 ****        -1.7500   7.7500  17.5000 Du        
   8475 ****        -1.7500   7.7500  17.7500 Du        
   8476 ****        -1.7500   8.0000  14.7500 Du        
   8477 ****        -1.7500   8.0000  15.0000 Du        
   8478 ****        -1.7500   8.0000  15.2500 Du        
   8479 ****        -1.7500   8.0000  15.5000 Du        
   8480 ****        -1.7500   8.0000  15.7500 Du        
   8481 ****        -1.7500   8.0000  16.0000 Du        
   8482 ****        -1.7500   8.0000  16.2500 Du        
   8483 ****        -1.7500   8.0000  16.5000 Du        
   8484 ****        -1.7500   8.0000  16.7500 Du        
   8485 ****        -1.7500   8.0000  17.0000 Du        
   8486 ****        -1.7500   8.0000  17.2500 Du        
   8487 ****        -1.7500   8.0000  17.5000 Du        
   8488 ****        -1.7500   8.0000  17.7500 Du        
   8489 ****        -1.7500   8.2500  14.5000 Du        
   8490 ****        -1.7500   8.2500  14.7500 Du        
   8491 ****        -1.7500   8.2500  15.0000 Du        
   8492 ****        -1.7500   8.2500  15.2500 Du        
   8493 ****        -1.7500   8.2500  15.5000 Du        
   8494 ****        -1.7500   8.2500  15.7500 Du        
   8495 ****        -1.7500   8.2500  16.0000 Du        
   8496 ****        -1.7500   8.2500  16.2500 Du        
   8497 ****        -1.7500   8.2500  16.5000 Du        
   8498 ****        -1.7500   8.2500  16.7500 Du        
   8499 ****        -1.7500   8.2500  17.0000 Du        
   8500 ****        -1.7500   8.2500  17.2500 Du        
   8501 ****        -1.7500   8.2500  17.5000 Du        
   8502 ****        -1.7500   8.2500  17.7500 Du        
   8503 ****        -1.7500   8.5000  14.2500 Du        
   8504 ****        -1.7500   8.5000  14.5000 Du        
   8505 ****        -1.7500   8.5000  14.7500 Du        
   8506 ****        -1.7500   8.5000  15.0000 Du        
   8507 ****        -1.7500   8.5000  15.2500 Du        
   8508 ****        -1.7500   8.5000  15.5000 Du        
   8509 ****        -1.7500   8.5000  15.7500 Du        
   8510 ****        -1.7500   8.5000  16.0000 Du        
   8511 ****        -1.7500   8.5000  16.2500 Du        
   8512 ****        -1.7500   8.5000  16.5000 Du        
   8513 ****        -1.7500   8.5000  16.7500 Du        
   8514 ****        -1.7500   8.5000  17.0000 Du        
   8515 ****        -1.7500   8.5000  17.2500 Du        
   8516 ****        -1.7500   8.5000  17.5000 Du        
   8517 ****        -1.7500   8.7500  14.0000 Du        
   8518 ****        -1.7500   8.7500  14.2500 Du        
   8519 ****        -1.7500   8.7500  14.5000 Du        
   8520 ****        -1.7500   8.7500  14.7500 Du        
   8521 ****        -1.7500   8.7500  15.0000 Du        
   8522 ****        -1.7500   8.7500  16.5000 Du        
   8523 ****        -1.7500   8.7500  16.7500 Du        
   8524 ****        -1.7500   8.7500  17.0000 Du        
   8525 ****        -1.7500   8.7500  17.2500 Du        
   8526 ****        -1.7500   9.0000  13.7500 Du        
   8527 ****        -1.7500   9.0000  14.0000 Du        
   8528 ****        -1.7500   9.0000  14.2500 Du        
   8529 ****        -1.7500   9.2500  13.2500 Du        
   8530 ****        -1.7500   9.2500  13.5000 Du        
   8531 ****        -1.7500   9.2500  13.7500 Du        
   8532 ****        -1.7500   9.2500  14.0000 Du        
   8533 ****        -1.7500   9.5000  13.0000 Du        
   8534 ****        -1.7500   9.5000  13.2500 Du        
   8535 ****        -1.7500   9.5000  13.5000 Du        
   8536 ****        -1.7500   9.7500  12.2500 Du        
   8537 ****        -1.7500   9.7500  12.7500 Du        
   8538 ****        -1.7500   9.7500  13.0000 Du        
   8539 ****        -1.7500   9.7500  13.2500 Du        
   8540 ****        -1.7500  10.0000  12.0000 Du        
   8541 ****        -1.7500  10.0000  12.2500 Du        
   8542 ****        -1.7500  10.0000  13.0000 Du        
   8543 ****        -1.7500  11.0000  23.2500 Du        
   8544 ****        -1.7500  11.2500  22.7500 Du        
   8545 ****        -1.7500  11.2500  23.0000 Du        
   8546 ****        -1.7500  11.2500  23.2500 Du        
   8547 ****        -1.7500  11.5000  22.5000 Du        
   8548 ****        -1.7500  11.5000  22.7500 Du        
   8549 ****        -1.7500  11.5000  23.0000 Du        
   8550 ****        -1.7500  11.5000  23.2500 Du        
   8551 ****        -1.7500  11.5000  23.5000 Du        
   8552 ****        -1.7500  11.7500  22.5000 Du        
   8553 ****        -1.7500  11.7500  22.7500 Du        
   8554 ****        -1.7500  11.7500  23.0000 Du        
   8555 ****        -1.7500  11.7500  23.2500 Du        
   8556 ****        -1.7500  11.7500  23.5000 Du        
   8557 ****        -1.7500  12.0000  22.2500 Du        
   8558 ****        -1.7500  12.0000  22.5000 Du        
   8559 ****        -1.7500  12.0000  22.7500 Du        
   8560 ****        -1.7500  12.0000  23.0000 Du        
   8561 ****        -1.7500  12.0000  23.2500 Du        
   8562 ****        -1.7500  12.0000  23.5000 Du        
   8563 ****        -1.7500  12.2500  22.5000 Du        
   8564 ****        -1.7500  12.2500  22.7500 Du        
   8565 ****        -1.7500  12.2500  23.0000 Du        
   8566 ****        -1.7500  12.2500  23.2500 Du        
   8567 ****        -1.7500  12.2500  23.5000 Du        
   8568 ****        -1.7500  12.5000  22.7500 Du        
   8569 ****        -1.7500  12.5000  23.0000 Du        
   8570 ****        -1.7500  12.5000  23.2500 Du        
   8571 ****        -1.7500  12.7500  23.0000 Du        
   8572 ****        -1.7500  12.7500  23.2500 Du        
   8573 ****        -1.5000  -9.0000  10.7500 Du        
   8574 ****        -1.5000  -9.0000  11.0000 Du        
   8575 ****        -1.5000  -9.0000  11.2500 Du        
   8576 ****        -1.5000  -9.0000  11.5000 Du        
   8577 ****        -1.5000  -9.0000  11.7500 Du        
   8578 ****        -1.5000  -9.0000  12.0000 Du        
   8579 ****        -1.5000  -9.0000  12.2500 Du        
   8580 ****        -1.5000  -9.0000  12.5000 Du        
   8581 ****        -1.5000  -9.0000  12.7500 Du        
   8582 ****        -1.5000  -9.0000  13.0000 Du        
   8583 ****        -1.5000  -9.0000  13.2500 Du        
   8584 ****        -1.5000  -9.0000  13.5000 Du        
   8585 ****        -1.5000  -8.7500  10.7500 Du        
   8586 ****        -1.5000  -8.7500  11.0000 Du        
   8587 ****        -1.5000  -8.7500  11.2500 Du        
   8588 ****        -1.5000  -8.7500  11.5000 Du        
   8589 ****        -1.5000  -8.7500  11.7500 Du        
   8590 ****        -1.5000  -8.7500  12.0000 Du        
   8591 ****        -1.5000  -8.7500  12.2500 Du        
   8592 ****        -1.5000  -8.7500  12.5000 Du        
   8593 ****        -1.5000  -8.7500  12.7500 Du        
   8594 ****        -1.5000  -8.7500  13.0000 Du        
   8595 ****        -1.5000  -8.7500  13.2500 Du        
   8596 ****        -1.5000  -8.7500  13.5000 Du        
   8597 ****        -1.5000  -8.7500  13.7500 Du        
   8598 ****        -1.5000  -8.5000  10.7500 Du        
   8599 ****        -1.5000  -8.5000  11.0000 Du        
   8600 ****        -1.5000  -8.5000  11.2500 Du        
   8601 ****        -1.5000  -8.5000  11.5000 Du        
   8602 ****        -1.5000  -8.5000  11.7500 Du        
   8603 ****        -1.5000  -8.5000  12.0000 Du        
   8604 ****        -1.5000  -8.5000  12.2500 Du        
   8605 ****        -1.5000  -8.5000  12.5000 Du        
   8606 ****        -1.5000  -8.5000  12.7500 Du        
   8607 ****        -1.5000  -8.5000  13.0000 Du        
   8608 ****        -1.5000  -8.5000  13.2500 Du        
   8609 ****        -1.5000  -8.5000  13.5000 Du        
   8610 ****        -1.5000  -8.5000  13.7500 Du        
   8611 ****        -1.5000  -8.2500  11.0000 Du        
   8612 ****        -1.5000  -8.2500  11.2500 Du        
   8613 ****        -1.5000  -8.2500  11.5000 Du        
   8614 ****        -1.5000  -8.2500  11.7500 Du        
   8615 ****        -1.5000  -8.2500  12.0000 Du        
   8616 ****        -1.5000  -8.2500  12.2500 Du        
   8617 ****        -1.5000  -8.2500  12.5000 Du        
   8618 ****        -1.5000  -8.2500  12.7500 Du        
   8619 ****        -1.5000  -8.2500  13.0000 Du        
   8620 ****        -1.5000  -8.2500  13.2500 Du        
   8621 ****        -1.5000  -8.2500  13.5000 Du        
   8622 ****        -1.5000  -8.2500  13.7500 Du        
   8623 ****        -1.5000  -8.0000  12.5000 Du        
   8624 ****        -1.5000  -8.0000  12.7500 Du        
   8625 ****        -1.5000  -8.0000  13.0000 Du        
   8626 ****        -1.5000  -8.0000  13.2500 Du        
   8627 ****        -1.5000  -8.0000  13.5000 Du        
   8628 ****        -1.5000  -8.0000  13.7500 Du        
   8629 ****        -1.5000  -8.0000  14.0000 Du        
   8630 ****        -1.5000  -7.7500  13.0000 Du        
   8631 ****        -1.5000  -7.7500  13.2500 Du        
   8632 ****        -1.5000  -7.7500  13.5000 Du        
   8633 ****        -1.5000  -7.7500  13.7500 Du        
   8634 ****        -1.5000  -7.7500  14.0000 Du        
   8635 ****        -1.5000  -1.2500  25.5000 Du        
   8636 ****        -1.5000  -1.2500  25.7500 Du        
   8637 ****        -1.5000  -1.2500  26.0000 Du        
   8638 ****        -1.5000  -1.0000  25.5000 Du        
   8639 ****        -1.5000  -1.0000  25.7500 Du        
   8640 ****        -1.5000  -1.0000  26.0000 Du        
   8641 ****        -1.5000  -1.0000  26.2500 Du        
   8642 ****        -1.5000  -0.7500  25.5000 Du        
   8643 ****        -1.5000  -0.7500  25.7500 Du        
   8644 ****        -1.5000  -0.7500  26.0000 Du        
   8645 ****        -1.5000  -0.7500  26.2500 Du        
   8646 ****        -1.5000  -0.5000  25.7500 Du        
   8647 ****        -1.5000  -0.5000  26.0000 Du        
   8648 ****        -1.5000  -0.5000  26.2500 Du        
   8649 ****        -1.5000  -0.2500  26.0000 Du        
   8650 ****        -1.5000  -0.2500  26.2500 Du        
   8651 ****        -1.5000   2.0000  16.2500 Du        
   8652 ****        -1.5000   2.0000  16.5000 Du        
   8653 ****        -1.5000   2.2500  15.7500 Du        
   8654 ****        -1.5000   2.2500  16.0000 Du        
   8655 ****        -1.5000   2.2500  16.2500 Du        
   8656 ****        -1.5000   2.2500  16.5000 Du        
   8657 ****        -1.5000   2.2500  16.7500 Du        
   8658 ****        -1.5000   2.2500  17.0000 Du        
   8659 ****        -1.5000   2.5000  15.5000 Du        
   8660 ****        -1.5000   2.5000  15.7500 Du        
   8661 ****        -1.5000   2.5000  16.0000 Du        
   8662 ****        -1.5000   2.5000  16.2500 Du        
   8663 ****        -1.5000   2.5000  16.5000 Du        
   8664 ****        -1.5000   2.5000  16.7500 Du        
   8665 ****        -1.5000   2.5000  17.0000 Du        
   8666 ****        -1.5000   2.5000  17.2500 Du        
   8667 ****        -1.5000   2.7500  15.2500 Du        
   8668 ****        -1.5000   2.7500  15.5000 Du        
   8669 ****        -1.5000   2.7500  15.7500 Du        
   8670 ****        -1.5000   2.7500  16.0000 Du        
   8671 ****        -1.5000   2.7500  16.2500 Du        
   8672 ****        -1.5000   2.7500  16.5000 Du        
   8673 ****        -1.5000   2.7500  16.7500 Du        
   8674 ****        -1.5000   2.7500  17.0000 Du        
   8675 ****        -1.5000   3.0000  15.2500 Du        
   8676 ****        -1.5000   3.0000  15.5000 Du        
   8677 ****        -1.5000   3.0000  15.7500 Du        
   8678 ****        -1.5000   3.0000  16.0000 Du        
   8679 ****        -1.5000   3.0000  16.2500 Du        
   8680 ****        -1.5000   3.0000  16.5000 Du        
   8681 ****        -1.5000   3.0000  16.7500 Du        
   8682 ****        -1.5000   3.2500  15.2500 Du        
   8683 ****        -1.5000   3.2500  15.5000 Du        
   8684 ****        -1.5000   3.2500  15.7500 Du        
   8685 ****        -1.5000   3.2500  16.0000 Du        
   8686 ****        -1.5000   3.2500  16.2500 Du        
   8687 ****        -1.5000   3.2500  16.5000 Du        
   8688 ****        -1.5000   3.5000  15.0000 Du        
   8689 ****        -1.5000   3.5000  15.2500 Du        
   8690 ****        -1.5000   3.5000  15.5000 Du        
   8691 ****        -1.5000   3.5000  15.7500 Du        
   8692 ****        -1.5000   3.5000  16.0000 Du        
   8693 ****        -1.5000   3.5000  16.2500 Du        
   8694 ****        -1.5000   3.7500  15.0000 Du        
   8695 ****        -1.5000   3.7500  15.2500 Du        
   8696 ****        -1.5000   3.7500  15.5000 Du        
   8697 ****        -1.5000   3.7500  15.7500 Du        
   8698 ****        -1.5000   3.7500  16.0000 Du        
   8699 ****        -1.5000   4.0000  15.2500 Du        
   8700 ****        -1.5000   4.0000  15.5000 Du        
   8701 ****        -1.5000   4.0000  15.7500 Du        
   8702 ****        -1.5000   7.0000  15.7500 Du        
   8703 ****        -1.5000   7.0000  16.0000 Du        
   8704 ****        -1.5000   7.0000  16.2500 Du        
   8705 ****        -1.5000   7.2500  15.2500 Du        
   8706 ****        -1.5000   7.2500  15.5000 Du        
   8707 ****        -1.5000   7.2500  15.7500 Du        
   8708 ****        -1.5000   7.2500  16.0000 Du        
   8709 ****        -1.5000   7.2500  16.2500 Du        
   8710 ****        -1.5000   7.2500  16.5000 Du        
   8711 ****        -1.5000   7.2500  16.7500 Du        
   8712 ****        -1.5000   7.2500  17.0000 Du        
   8713 ****        -1.5000   7.5000  15.2500 Du        
   8714 ****        -1.5000   7.5000  15.5000 Du        
   8715 ****        -1.5000   7.5000  15.7500 Du        
   8716 ****        -1.5000   7.5000  16.0000 Du        
   8717 ****        -1.5000   7.5000  16.2500 Du        
   8718 ****        -1.5000   7.5000  16.5000 Du        
   8719 ****        -1.5000   7.5000  16.7500 Du        
   8720 ****        -1.5000   7.5000  17.0000 Du        
   8721 ****        -1.5000   7.5000  17.2500 Du        
   8722 ****        -1.5000   7.5000  17.5000 Du        
   8723 ****        -1.5000   7.7500  15.0000 Du        
   8724 ****        -1.5000   7.7500  15.2500 Du        
   8725 ****        -1.5000   7.7500  15.5000 Du        
   8726 ****        -1.5000   7.7500  15.7500 Du        
   8727 ****        -1.5000   7.7500  16.0000 Du        
   8728 ****        -1.5000   7.7500  16.2500 Du        
   8729 ****        -1.5000   7.7500  16.5000 Du        
   8730 ****        -1.5000   7.7500  16.7500 Du        
   8731 ****        -1.5000   7.7500  17.0000 Du        
   8732 ****        -1.5000   7.7500  17.2500 Du        
   8733 ****        -1.5000   7.7500  17.5000 Du        
   8734 ****        -1.5000   8.0000  14.7500 Du        
   8735 ****        -1.5000   8.0000  15.0000 Du        
   8736 ****        -1.5000   8.0000  15.2500 Du        
   8737 ****        -1.5000   8.0000  15.5000 Du        
   8738 ****        -1.5000   8.0000  15.7500 Du        
   8739 ****        -1.5000   8.0000  16.0000 Du        
   8740 ****        -1.5000   8.0000  16.2500 Du        
   8741 ****        -1.5000   8.0000  16.5000 Du        
   8742 ****        -1.5000   8.0000  16.7500 Du        
   8743 ****        -1.5000   8.0000  17.0000 Du        
   8744 ****        -1.5000   8.0000  17.2500 Du        
   8745 ****        -1.5000   8.0000  17.5000 Du        
   8746 ****        -1.5000   8.2500  14.5000 Du        
   8747 ****        -1.5000   8.2500  14.7500 Du        
   8748 ****        -1.5000   8.2500  15.0000 Du        
   8749 ****        -1.5000   8.2500  15.2500 Du        
   8750 ****        -1.5000   8.2500  15.5000 Du        
   8751 ****        -1.5000   8.2500  15.7500 Du        
   8752 ****        -1.5000   8.2500  16.0000 Du        
   8753 ****        -1.5000   8.2500  16.2500 Du        
   8754 ****        -1.5000   8.2500  16.5000 Du        
   8755 ****        -1.5000   8.2500  16.7500 Du        
   8756 ****        -1.5000   8.2500  17.0000 Du        
   8757 ****        -1.5000   8.2500  17.2500 Du        
   8758 ****        -1.5000   8.2500  17.5000 Du        
   8759 ****        -1.5000   8.5000  14.0000 Du        
   8760 ****        -1.5000   8.5000  14.2500 Du        
   8761 ****        -1.5000   8.5000  14.5000 Du        
   8762 ****        -1.5000   8.5000  14.7500 Du        
   8763 ****        -1.5000   8.5000  15.0000 Du        
   8764 ****        -1.5000   8.5000  15.2500 Du        
   8765 ****        -1.5000   8.5000  15.5000 Du        
   8766 ****        -1.5000   8.5000  15.7500 Du        
   8767 ****        -1.5000   8.5000  16.0000 Du        
   8768 ****        -1.5000   8.5000  16.2500 Du        
   8769 ****        -1.5000   8.5000  16.5000 Du        
   8770 ****        -1.5000   8.5000  16.7500 Du        
   8771 ****        -1.5000   8.5000  17.0000 Du        
   8772 ****        -1.5000   8.5000  17.2500 Du        
   8773 ****        -1.5000   8.7500  13.7500 Du        
   8774 ****        -1.5000   8.7500  14.0000 Du        
   8775 ****        -1.5000   8.7500  14.2500 Du        
   8776 ****        -1.5000   8.7500  14.5000 Du        
   8777 ****        -1.5000   8.7500  14.7500 Du        
   8778 ****        -1.5000   8.7500  15.0000 Du        
   8779 ****        -1.5000   8.7500  15.2500 Du        
   8780 ****        -1.5000   8.7500  15.5000 Du        
   8781 ****        -1.5000   8.7500  15.7500 Du        
   8782 ****        -1.5000   8.7500  16.0000 Du        
   8783 ****        -1.5000   8.7500  16.2500 Du        
   8784 ****        -1.5000   8.7500  16.5000 Du        
   8785 ****        -1.5000   8.7500  16.7500 Du        
   8786 ****        -1.5000   8.7500  17.0000 Du        
   8787 ****        -1.5000   8.7500  17.2500 Du        
   8788 ****        -1.5000   9.0000  13.7500 Du        
   8789 ****        -1.5000   9.0000  14.0000 Du        
   8790 ****        -1.5000   9.0000  14.2500 Du        
   8791 ****        -1.5000   9.2500  13.0000 Du        
   8792 ****        -1.5000   9.2500  13.2500 Du        
   8793 ****        -1.5000   9.2500  13.5000 Du        
   8794 ****        -1.5000   9.2500  13.7500 Du        
   8795 ****        -1.5000   9.2500  14.0000 Du        
   8796 ****        -1.5000   9.5000  12.0000 Du        
   8797 ****        -1.5000   9.5000  12.2500 Du        
   8798 ****        -1.5000   9.5000  12.5000 Du        
   8799 ****        -1.5000   9.5000  12.7500 Du        
   8800 ****        -1.5000   9.5000  13.0000 Du        
   8801 ****        -1.5000   9.5000  13.2500 Du        
   8802 ****        -1.5000   9.5000  13.5000 Du        
   8803 ****        -1.5000   9.5000  13.7500 Du        
   8804 ****        -1.5000   9.7500  11.7500 Du        
   8805 ****        -1.5000   9.7500  12.0000 Du        
   8806 ****        -1.5000   9.7500  12.2500 Du        
   8807 ****        -1.5000   9.7500  12.5000 Du        
   8808 ****        -1.5000   9.7500  12.7500 Du        
   8809 ****        -1.5000   9.7500  13.0000 Du        
   8810 ****        -1.5000   9.7500  13.2500 Du        
   8811 ****        -1.5000   9.7500  13.5000 Du        
   8812 ****        -1.5000  10.0000  11.5000 Du        
   8813 ****        -1.5000  10.0000  11.7500 Du        
   8814 ****        -1.5000  10.0000  12.0000 Du        
   8815 ****        -1.5000  10.0000  12.2500 Du        
   8816 ****        -1.5000  10.0000  12.5000 Du        
   8817 ****        -1.5000  10.0000  12.7500 Du        
   8818 ****        -1.5000  10.0000  13.0000 Du        
   8819 ****        -1.5000  10.0000  13.2500 Du        
   8820 ****        -1.5000  10.2500  11.7500 Du        
   8821 ****        -1.5000  10.2500  12.0000 Du        
   8822 ****        -1.5000  10.2500  12.2500 Du        
   8823 ****        -1.5000  12.2500  23.0000 Du        
   8824 ****        -1.2500  -9.0000  10.7500 Du        
   8825 ****        -1.2500  -9.0000  11.0000 Du        
   8826 ****        -1.2500  -9.0000  11.2500 Du        
   8827 ****        -1.2500  -9.0000  11.5000 Du        
   8828 ****        -1.2500  -9.0000  11.7500 Du        
   8829 ****        -1.2500  -9.0000  12.0000 Du        
   8830 ****        -1.2500  -9.0000  12.2500 Du        
   8831 ****        -1.2500  -9.0000  12.5000 Du        
   8832 ****        -1.2500  -9.0000  12.7500 Du        
   8833 ****        -1.2500  -9.0000  13.0000 Du        
   8834 ****        -1.2500  -9.0000  13.2500 Du        
   8835 ****        -1.2500  -9.0000  13.5000 Du        
   8836 ****        -1.2500  -8.7500  10.7500 Du        
   8837 ****        -1.2500  -8.7500  11.0000 Du        
   8838 ****        -1.2500  -8.7500  11.2500 Du        
   8839 ****        -1.2500  -8.7500  11.5000 Du        
   8840 ****        -1.2500  -8.7500  11.7500 Du        
   8841 ****        -1.2500  -8.7500  12.0000 Du        
   8842 ****        -1.2500  -8.7500  12.2500 Du        
   8843 ****        -1.2500  -8.7500  12.5000 Du        
   8844 ****        -1.2500  -8.7500  12.7500 Du        
   8845 ****        -1.2500  -8.7500  13.0000 Du        
   8846 ****        -1.2500  -8.7500  13.2500 Du        
   8847 ****        -1.2500  -8.7500  13.5000 Du        
   8848 ****        -1.2500  -8.5000  10.7500 Du        
   8849 ****        -1.2500  -8.5000  11.0000 Du        
   8850 ****        -1.2500  -8.5000  11.2500 Du        
   8851 ****        -1.2500  -8.5000  11.5000 Du        
   8852 ****        -1.2500  -8.5000  11.7500 Du        
   8853 ****        -1.2500  -8.5000  12.0000 Du        
   8854 ****        -1.2500  -8.5000  12.2500 Du        
   8855 ****        -1.2500  -8.5000  12.5000 Du        
   8856 ****        -1.2500  -8.5000  12.7500 Du        
   8857 ****        -1.2500  -8.5000  13.0000 Du        
   8858 ****        -1.2500  -8.5000  13.2500 Du        
   8859 ****        -1.2500  -8.5000  13.5000 Du        
   8860 ****        -1.2500  -8.2500  10.7500 Du        
   8861 ****        -1.2500  -8.2500  11.0000 Du        
   8862 ****        -1.2500  -8.2500  11.2500 Du        
   8863 ****        -1.2500  -8.2500  11.5000 Du        
   8864 ****        -1.2500  -8.2500  11.7500 Du        
   8865 ****        -1.2500  -8.2500  12.0000 Du        
   8866 ****        -1.2500  -8.2500  12.2500 Du        
   8867 ****        -1.2500  -8.2500  12.5000 Du        
   8868 ****        -1.2500  -8.2500  12.7500 Du        
   8869 ****        -1.2500  -8.2500  13.0000 Du        
   8870 ****        -1.2500  -8.2500  13.2500 Du        
   8871 ****        -1.2500  -8.2500  13.5000 Du        
   8872 ****        -1.2500  -8.2500  13.7500 Du        
   8873 ****        -1.2500  -8.0000  11.7500 Du        
   8874 ****        -1.2500  -8.0000  12.0000 Du        
   8875 ****        -1.2500  -8.0000  12.2500 Du        
   8876 ****        -1.2500  -8.0000  12.5000 Du        
   8877 ****        -1.2500  -8.0000  12.7500 Du        
   8878 ****        -1.2500  -8.0000  13.0000 Du        
   8879 ****        -1.2500  -8.0000  13.2500 Du        
   8880 ****        -1.2500  -8.0000  13.5000 Du        
   8881 ****        -1.2500  -8.0000  13.7500 Du        
   8882 ****        -1.2500  -8.0000  14.0000 Du        
   8883 ****        -1.2500  -7.7500  12.7500 Du        
   8884 ****        -1.2500  -7.7500  13.0000 Du        
   8885 ****        -1.2500  -7.7500  13.2500 Du        
   8886 ****        -1.2500  -7.7500  13.5000 Du        
   8887 ****        -1.2500  -7.7500  13.7500 Du        
   8888 ****        -1.2500  -7.7500  14.0000 Du        
   8889 ****        -1.2500  -7.5000  13.2500 Du        
   8890 ****        -1.2500  -7.5000  13.5000 Du        
   8891 ****        -1.2500  -7.5000  13.7500 Du        
   8892 ****        -1.2500  -7.5000  14.0000 Du        
   8893 ****        -1.2500  -1.2500  25.5000 Du        
   8894 ****        -1.2500  -1.2500  25.7500 Du        
   8895 ****        -1.2500  -1.2500  26.0000 Du        
   8896 ****        -1.2500  -1.0000  25.5000 Du        
   8897 ****        -1.2500  -1.0000  25.7500 Du        
   8898 ****        -1.2500  -1.0000  26.0000 Du        
   8899 ****        -1.2500  -1.0000  26.2500 Du        
   8900 ****        -1.2500  -0.7500  25.5000 Du        
   8901 ****        -1.2500  -0.7500  25.7500 Du        
   8902 ****        -1.2500  -0.7500  26.0000 Du        
   8903 ****        -1.2500  -0.7500  26.2500 Du        
   8904 ****        -1.2500  -0.5000  25.7500 Du        
   8905 ****        -1.2500  -0.5000  26.0000 Du        
   8906 ****        -1.2500  -0.5000  26.2500 Du        
   8907 ****        -1.2500  -0.5000  26.5000 Du        
   8908 ****        -1.2500  -0.2500  26.0000 Du        
   8909 ****        -1.2500  -0.2500  26.2500 Du        
   8910 ****        -1.2500  -0.2500  26.5000 Du        
   8911 ****        -1.2500  -0.2500  26.7500 Du        
   8912 ****        -1.2500   0.0000  26.0000 Du        
   8913 ****        -1.2500   0.0000  26.2500 Du        
   8914 ****        -1.2500   0.0000  26.5000 Du        
   8915 ****        -1.2500   0.0000  26.7500 Du        
   8916 ****        -1.2500   0.2500  26.2500 Du        
   8917 ****        -1.2500   2.2500  15.7500 Du        
   8918 ****        -1.2500   2.2500  16.0000 Du        
   8919 ****        -1.2500   2.2500  16.2500 Du        
   8920 ****        -1.2500   2.5000  15.5000 Du        
   8921 ****        -1.2500   2.5000  15.7500 Du        
   8922 ****        -1.2500   2.5000  16.0000 Du        
   8923 ****        -1.2500   2.5000  16.2500 Du        
   8924 ****        -1.2500   2.5000  16.5000 Du        
   8925 ****        -1.2500   2.7500  15.2500 Du        
   8926 ****        -1.2500   2.7500  15.5000 Du        
   8927 ****        -1.2500   2.7500  15.7500 Du        
   8928 ****        -1.2500   2.7500  16.0000 Du        
   8929 ****        -1.2500   2.7500  16.2500 Du        
   8930 ****        -1.2500   2.7500  16.5000 Du        
   8931 ****        -1.2500   3.0000  15.2500 Du        
   8932 ****        -1.2500   3.0000  15.5000 Du        
   8933 ****        -1.2500   3.0000  15.7500 Du        
   8934 ****        -1.2500   3.0000  16.0000 Du        
   8935 ****        -1.2500   3.0000  16.2500 Du        
   8936 ****        -1.2500   3.0000  16.5000 Du        
   8937 ****        -1.2500   3.2500  15.0000 Du        
   8938 ****        -1.2500   3.2500  15.2500 Du        
   8939 ****        -1.2500   3.2500  15.5000 Du        
   8940 ****        -1.2500   3.2500  15.7500 Du        
   8941 ****        -1.2500   3.2500  16.0000 Du        
   8942 ****        -1.2500   3.2500  16.2500 Du        
   8943 ****        -1.2500   3.5000  15.0000 Du        
   8944 ****        -1.2500   3.5000  15.2500 Du        
   8945 ****        -1.2500   3.5000  15.5000 Du        
   8946 ****        -1.2500   3.5000  15.7500 Du        
   8947 ****        -1.2500   3.5000  16.0000 Du        
   8948 ****        -1.2500   3.7500  14.7500 Du        
   8949 ****        -1.2500   3.7500  15.0000 Du        
   8950 ****        -1.2500   3.7500  15.2500 Du        
   8951 ****        -1.2500   3.7500  15.5000 Du        
   8952 ****        -1.2500   3.7500  15.7500 Du        
   8953 ****        -1.2500   4.0000  14.7500 Du        
   8954 ****        -1.2500   4.0000  15.0000 Du        
   8955 ****        -1.2500   4.0000  15.2500 Du        
   8956 ****        -1.2500   4.0000  15.5000 Du        
   8957 ****        -1.2500   4.2500  14.7500 Du        
   8958 ****        -1.2500   4.2500  15.0000 Du        
   8959 ****        -1.2500   4.2500  15.2500 Du        
   8960 ****        -1.2500   6.7500  15.2500 Du        
   8961 ****        -1.2500   7.0000  15.0000 Du        
   8962 ****        -1.2500   7.0000  15.2500 Du        
   8963 ****        -1.2500   7.0000  15.5000 Du        
   8964 ****        -1.2500   7.0000  15.7500 Du        
   8965 ****        -1.2500   7.0000  16.0000 Du        
   8966 ****        -1.2500   7.0000  16.2500 Du        
   8967 ****        -1.2500   7.2500  15.0000 Du        
   8968 ****        -1.2500   7.2500  15.2500 Du        
   8969 ****        -1.2500   7.2500  15.5000 Du        
   8970 ****        -1.2500   7.2500  15.7500 Du        
   8971 ****        -1.2500   7.2500  16.0000 Du        
   8972 ****        -1.2500   7.2500  16.2500 Du        
   8973 ****        -1.2500   7.2500  16.5000 Du        
   8974 ****        -1.2500   7.2500  16.7500 Du        
   8975 ****        -1.2500   7.5000  14.7500 Du        
   8976 ****        -1.2500   7.5000  15.0000 Du        
   8977 ****        -1.2500   7.5000  15.2500 Du        
   8978 ****        -1.2500   7.5000  15.5000 Du        
   8979 ****        -1.2500   7.5000  15.7500 Du        
   8980 ****        -1.2500   7.5000  16.0000 Du        
   8981 ****        -1.2500   7.5000  16.2500 Du        
   8982 ****        -1.2500   7.5000  16.5000 Du        
   8983 ****        -1.2500   7.5000  16.7500 Du        
   8984 ****        -1.2500   7.5000  17.0000 Du        
   8985 ****        -1.2500   7.7500  14.5000 Du        
   8986 ****        -1.2500   7.7500  14.7500 Du        
   8987 ****        -1.2500   7.7500  15.0000 Du        
   8988 ****        -1.2500   7.7500  15.2500 Du        
   8989 ****        -1.2500   7.7500  15.5000 Du        
   8990 ****        -1.2500   7.7500  15.7500 Du        
   8991 ****        -1.2500   7.7500  16.0000 Du        
   8992 ****        -1.2500   7.7500  16.2500 Du        
   8993 ****        -1.2500   7.7500  16.5000 Du        
   8994 ****        -1.2500   7.7500  16.7500 Du        
   8995 ****        -1.2500   7.7500  17.0000 Du        
   8996 ****        -1.2500   7.7500  17.2500 Du        
   8997 ****        -1.2500   7.7500  17.5000 Du        
   8998 ****        -1.2500   8.0000  14.2500 Du        
   8999 ****        -1.2500   8.0000  14.5000 Du        
   9000 ****        -1.2500   8.0000  14.7500 Du        
   9001 ****        -1.2500   8.0000  15.0000 Du        
   9002 ****        -1.2500   8.0000  15.2500 Du        
   9003 ****        -1.2500   8.0000  15.5000 Du        
   9004 ****        -1.2500   8.0000  15.7500 Du        
   9005 ****        -1.2500   8.0000  16.0000 Du        
   9006 ****        -1.2500   8.0000  16.2500 Du        
   9007 ****        -1.2500   8.0000  16.5000 Du        
   9008 ****        -1.2500   8.0000  16.7500 Du        
   9009 ****        -1.2500   8.0000  17.0000 Du        
   9010 ****        -1.2500   8.0000  17.2500 Du        
   9011 ****        -1.2500   8.0000  17.5000 Du        
   9012 ****        -1.2500   8.2500  14.0000 Du        
   9013 ****        -1.2500   8.2500  14.2500 Du        
   9014 ****        -1.2500   8.2500  14.5000 Du        
   9015 ****        -1.2500   8.2500  14.7500 Du        
   9016 ****        -1.2500   8.2500  15.0000 Du        
   9017 ****        -1.2500   8.2500  15.2500 Du        
   9018 ****        -1.2500   8.2500  15.5000 Du        
   9019 ****        -1.2500   8.2500  15.7500 Du        
   9020 ****        -1.2500   8.2500  16.0000 Du        
   9021 ****        -1.2500   8.2500  16.2500 Du        
   9022 ****        -1.2500   8.2500  16.5000 Du        
   9023 ****        -1.2500   8.2500  16.7500 Du        
   9024 ****        -1.2500   8.2500  17.0000 Du        
   9025 ****        -1.2500   8.2500  17.2500 Du        
   9026 ****        -1.2500   8.5000  13.7500 Du        
   9027 ****        -1.2500   8.5000  14.0000 Du        
   9028 ****        -1.2500   8.5000  14.2500 Du        
   9029 ****        -1.2500   8.5000  14.5000 Du        
   9030 ****        -1.2500   8.5000  14.7500 Du        
   9031 ****        -1.2500   8.5000  15.0000 Du        
   9032 ****        -1.2500   8.5000  15.2500 Du        
   9033 ****        -1.2500   8.5000  15.5000 Du        
   9034 ****        -1.2500   8.5000  15.7500 Du        
   9035 ****        -1.2500   8.5000  16.0000 Du        
   9036 ****        -1.2500   8.5000  16.2500 Du        
   9037 ****        -1.2500   8.5000  16.5000 Du        
   9038 ****        -1.2500   8.5000  16.7500 Du        
   9039 ****        -1.2500   8.5000  17.0000 Du        
   9040 ****        -1.2500   8.5000  17.2500 Du        
   9041 ****        -1.2500   8.7500  13.2500 Du        
   9042 ****        -1.2500   8.7500  13.5000 Du        
   9043 ****        -1.2500   8.7500  13.7500 Du        
   9044 ****        -1.2500   8.7500  14.0000 Du        
   9045 ****        -1.2500   8.7500  14.2500 Du        
   9046 ****        -1.2500   8.7500  14.5000 Du        
   9047 ****        -1.2500   8.7500  14.7500 Du        
   9048 ****        -1.2500   8.7500  15.0000 Du        
   9049 ****        -1.2500   8.7500  15.2500 Du        
   9050 ****        -1.2500   8.7500  15.5000 Du        
   9051 ****        -1.2500   8.7500  15.7500 Du        
   9052 ****        -1.2500   8.7500  16.0000 Du        
   9053 ****        -1.2500   8.7500  16.2500 Du        
   9054 ****        -1.2500   8.7500  16.5000 Du        
   9055 ****        -1.2500   8.7500  16.7500 Du        
   9056 ****        -1.2500   8.7500  17.0000 Du        
   9057 ****        -1.2500   8.7500  17.2500 Du        
   9058 ****        -1.2500   9.0000  12.7500 Du        
   9059 ****        -1.2500   9.0000  13.0000 Du        
   9060 ****        -1.2500   9.0000  13.2500 Du        
   9061 ****        -1.2500   9.0000  13.5000 Du        
   9062 ****        -1.2500   9.0000  13.7500 Du        
   9063 ****        -1.2500   9.0000  14.0000 Du        
   9064 ****        -1.2500   9.0000  14.2500 Du        
   9065 ****        -1.2500   9.2500  12.0000 Du        
   9066 ****        -1.2500   9.2500  12.2500 Du        
   9067 ****        -1.2500   9.2500  12.5000 Du        
   9068 ****        -1.2500   9.2500  12.7500 Du        
   9069 ****        -1.2500   9.2500  13.0000 Du        
   9070 ****        -1.2500   9.2500  13.2500 Du        
   9071 ****        -1.2500   9.2500  13.5000 Du        
   9072 ****        -1.2500   9.2500  13.7500 Du        
   9073 ****        -1.2500   9.2500  14.0000 Du        
   9074 ****        -1.2500   9.5000  11.5000 Du        
   9075 ****        -1.2500   9.5000  11.7500 Du        
   9076 ****        -1.2500   9.5000  12.0000 Du        
   9077 ****        -1.2500   9.5000  12.2500 Du        
   9078 ****        -1.2500   9.5000  12.5000 Du        
   9079 ****        -1.2500   9.5000  12.7500 Du        
   9080 ****        -1.2500   9.5000  13.0000 Du        
   9081 ****        -1.2500   9.5000  13.2500 Du        
   9082 ****        -1.2500   9.5000  13.5000 Du        
   9083 ****        -1.2500   9.5000  13.7500 Du        
   9084 ****        -1.2500   9.7500  11.5000 Du        
   9085 ****        -1.2500   9.7500  11.7500 Du        
   9086 ****        -1.2500   9.7500  12.0000 Du        
   9087 ****        -1.2500   9.7500  12.2500 Du        
   9088 ****        -1.2500   9.7500  12.5000 Du        
   9089 ****        -1.2500   9.7500  12.7500 Du        
   9090 ****        -1.2500   9.7500  13.0000 Du        
   9091 ****        -1.2500   9.7500  13.2500 Du        
   9092 ****        -1.2500   9.7500  13.5000 Du        
   9093 ****        -1.2500  10.0000  11.7500 Du        
   9094 ****        -1.2500  10.0000  12.0000 Du        
   9095 ****        -1.2500  10.0000  12.2500 Du        
   9096 ****        -1.2500  10.0000  12.5000 Du        
   9097 ****        -1.2500  10.0000  12.7500 Du        
   9098 ****        -1.2500  10.0000  13.0000 Du        
   9099 ****        -1.2500  10.0000  13.2500 Du        
   9100 ****        -1.2500  10.2500  11.7500 Du        
   9101 ****        -1.2500  10.2500  12.0000 Du        
   9102 ****        -1.2500  10.2500  12.2500 Du        
   9103 ****        -1.2500  10.2500  12.5000 Du        
   9104 ****        -1.2500  10.2500  12.7500 Du        
   9105 ****        -1.2500  10.2500  13.0000 Du        
   9106 ****        -1.2500  10.2500  13.2500 Du        
   9107 ****        -1.2500  10.5000  12.0000 Du        
   9108 ****        -1.2500  10.5000  12.2500 Du        
   9109 ****        -1.2500  10.5000  12.5000 Du        
   9110 ****        -1.2500  10.5000  12.7500 Du        
   9111 ****        -1.2500  10.5000  13.0000 Du        
   9112 ****        -1.0000  -9.0000  10.7500 Du        
   9113 ****        -1.0000  -9.0000  11.0000 Du        
   9114 ****        -1.0000  -9.0000  11.2500 Du        
   9115 ****        -1.0000  -9.0000  11.5000 Du        
   9116 ****        -1.0000  -9.0000  11.7500 Du        
   9117 ****        -1.0000  -9.0000  12.0000 Du        
   9118 ****        -1.0000  -9.0000  12.2500 Du        
   9119 ****        -1.0000  -9.0000  12.5000 Du        
   9120 ****        -1.0000  -9.0000  12.7500 Du        
   9121 ****        -1.0000  -9.0000  13.0000 Du        
   9122 ****        -1.0000  -9.0000  13.2500 Du        
   9123 ****        -1.0000  -8.7500  10.7500 Du        
   9124 ****        -1.0000  -8.7500  11.0000 Du        
   9125 ****        -1.0000  -8.7500  11.2500 Du        
   9126 ****        -1.0000  -8.7500  11.5000 Du        
   9127 ****        -1.0000  -8.7500  11.7500 Du        
   9128 ****        -1.0000  -8.7500  12.0000 Du        
   9129 ****        -1.0000  -8.7500  12.2500 Du        
   9130 ****        -1.0000  -8.7500  12.5000 Du        
   9131 ****        -1.0000  -8.7500  12.7500 Du        
   9132 ****        -1.0000  -8.7500  13.0000 Du        
   9133 ****        -1.0000  -8.7500  13.2500 Du        
   9134 ****        -1.0000  -8.5000  10.7500 Du        
   9135 ****        -1.0000  -8.5000  11.0000 Du        
   9136 ****        -1.0000  -8.5000  11.2500 Du        
   9137 ****        -1.0000  -8.5000  11.5000 Du        
   9138 ****        -1.0000  -8.5000  11.7500 Du        
   9139 ****        -1.0000  -8.5000  12.0000 Du        
   9140 ****        -1.0000  -8.5000  12.2500 Du        
   9141 ****        -1.0000  -8.5000  12.5000 Du        
   9142 ****        -1.0000  -8.5000  12.7500 Du        
   9143 ****        -1.0000  -8.5000  13.0000 Du        
   9144 ****        -1.0000  -8.5000  13.2500 Du        
   9145 ****        -1.0000  -8.5000  13.5000 Du        
   9146 ****        -1.0000  -8.2500  11.0000 Du        
   9147 ****        -1.0000  -8.2500  11.2500 Du        
   9148 ****        -1.0000  -8.2500  11.5000 Du        
   9149 ****        -1.0000  -8.2500  11.7500 Du        
   9150 ****        -1.0000  -8.2500  12.0000 Du        
   9151 ****        -1.0000  -8.2500  12.2500 Du        
   9152 ****        -1.0000  -8.2500  12.5000 Du        
   9153 ****        -1.0000  -8.2500  12.7500 Du        
   9154 ****        -1.0000  -8.2500  13.0000 Du        
   9155 ****        -1.0000  -8.2500  13.2500 Du        
   9156 ****        -1.0000  -8.2500  13.5000 Du        
   9157 ****        -1.0000  -8.0000  11.0000 Du        
   9158 ****        -1.0000  -8.0000  11.2500 Du        
   9159 ****        -1.0000  -8.0000  11.5000 Du        
   9160 ****        -1.0000  -8.0000  11.7500 Du        
   9161 ****        -1.0000  -8.0000  12.0000 Du        
   9162 ****        -1.0000  -8.0000  12.2500 Du        
   9163 ****        -1.0000  -8.0000  12.5000 Du        
   9164 ****        -1.0000  -8.0000  12.7500 Du        
   9165 ****        -1.0000  -8.0000  13.0000 Du        
   9166 ****        -1.0000  -8.0000  13.2500 Du        
   9167 ****        -1.0000  -8.0000  13.5000 Du        
   9168 ****        -1.0000  -8.0000  13.7500 Du        
   9169 ****        -1.0000  -7.7500  12.2500 Du        
   9170 ****        -1.0000  -7.7500  12.5000 Du        
   9171 ****        -1.0000  -7.7500  12.7500 Du        
   9172 ****        -1.0000  -7.7500  13.0000 Du        
   9173 ****        -1.0000  -7.7500  13.2500 Du        
   9174 ****        -1.0000  -7.7500  13.5000 Du        
   9175 ****        -1.0000  -7.7500  13.7500 Du        
   9176 ****        -1.0000  -7.5000  13.0000 Du        
   9177 ****        -1.0000  -7.5000  13.2500 Du        
   9178 ****        -1.0000  -7.5000  13.5000 Du        
   9179 ****        -1.0000  -7.5000  13.7500 Du        
   9180 ****        -1.0000  -1.2500  25.5000 Du        
   9181 ****        -1.0000  -1.2500  25.7500 Du        
   9182 ****        -1.0000  -1.2500  26.0000 Du        
   9183 ****        -1.0000  -1.0000  25.5000 Du        
   9184 ****        -1.0000  -1.0000  25.7500 Du        
   9185 ****        -1.0000  -1.0000  26.0000 Du        
   9186 ****        -1.0000  -1.0000  26.2500 Du        
   9187 ****        -1.0000  -0.7500  25.7500 Du        
   9188 ****        -1.0000  -0.7500  26.0000 Du        
   9189 ****        -1.0000  -0.7500  26.2500 Du        
   9190 ****        -1.0000  -0.7500  26.5000 Du        
   9191 ****        -1.0000  -0.5000  25.7500 Du        
   9192 ****        -1.0000  -0.5000  26.0000 Du        
   9193 ****        -1.0000  -0.5000  26.2500 Du        
   9194 ****        -1.0000  -0.5000  26.5000 Du        
   9195 ****        -1.0000  -0.5000  26.7500 Du        
   9196 ****        -1.0000  -0.2500  26.0000 Du        
   9197 ****        -1.0000  -0.2500  26.2500 Du        
   9198 ****        -1.0000  -0.2500  26.5000 Du        
   9199 ****        -1.0000  -0.2500  26.7500 Du        
   9200 ****        -1.0000  -0.2500  27.0000 Du        
   9201 ****        -1.0000   0.0000  26.0000 Du        
   9202 ****        -1.0000   0.0000  26.2500 Du        
   9203 ****        -1.0000   0.0000  26.5000 Du        
   9204 ****        -1.0000   0.0000  26.7500 Du        
   9205 ****        -1.0000   0.0000  27.0000 Du        
   9206 ****        -1.0000   0.2500  26.2500 Du        
   9207 ****        -1.0000   2.2500  15.7500 Du        
   9208 ****        -1.0000   2.5000  15.5000 Du        
   9209 ****        -1.0000   2.5000  15.7500 Du        
   9210 ****        -1.0000   2.5000  16.0000 Du        
   9211 ****        -1.0000   2.7500  15.2500 Du        
   9212 ****        -1.0000   2.7500  15.5000 Du        
   9213 ****        -1.0000   2.7500  15.7500 Du        
   9214 ****        -1.0000   2.7500  16.0000 Du        
   9215 ****        -1.0000   3.0000  15.0000 Du        
   9216 ****        -1.0000   3.0000  15.2500 Du        
   9217 ****        -1.0000   3.0000  15.5000 Du        
   9218 ****        -1.0000   3.0000  15.7500 Du        
   9219 ****        -1.0000   3.0000  16.0000 Du        
   9220 ****        -1.0000   3.2500  15.0000 Du        
   9221 ****        -1.0000   3.2500  15.2500 Du        
   9222 ****        -1.0000   3.2500  15.5000 Du        
   9223 ****        -1.0000   3.2500  15.7500 Du        
   9224 ****        -1.0000   3.2500  16.0000 Du        
   9225 ****        -1.0000   3.5000  14.7500 Du        
   9226 ****        -1.0000   3.5000  15.0000 Du        
   9227 ****        -1.0000   3.5000  15.2500 Du        
   9228 ****        -1.0000   3.5000  15.5000 Du        
   9229 ****        -1.0000   3.5000  15.7500 Du        
   9230 ****        -1.0000   3.7500  14.5000 Du        
   9231 ****        -1.0000   3.7500  14.7500 Du        
   9232 ****        -1.0000   3.7500  15.0000 Du        
   9233 ****        -1.0000   3.7500  15.2500 Du        
   9234 ****        -1.0000   3.7500  15.5000 Du        
   9235 ****        -1.0000   4.0000  14.5000 Du        
   9236 ****        -1.0000   4.0000  14.7500 Du        
   9237 ****        -1.0000   4.0000  15.0000 Du        
   9238 ****        -1.0000   4.0000  15.2500 Du        
   9239 ****        -1.0000   4.2500  14.2500 Du        
   9240 ****        -1.0000   4.2500  14.5000 Du        
   9241 ****        -1.0000   4.2500  14.7500 Du        
   9242 ****        -1.0000   4.2500  15.0000 Du        
   9243 ****        -1.0000   6.7500  15.0000 Du        
   9244 ****        -1.0000   6.7500  15.2500 Du        
   9245 ****        -1.0000   7.0000  14.7500 Du        
   9246 ****        -1.0000   7.0000  15.0000 Du        
   9247 ****        -1.0000   7.0000  15.2500 Du        
   9248 ****        -1.0000   7.0000  15.5000 Du        
   9249 ****        -1.0000   7.0000  15.7500 Du        
   9250 ****        -1.0000   7.0000  16.0000 Du        
   9251 ****        -1.0000   7.2500  14.7500 Du        
   9252 ****        -1.0000   7.2500  15.0000 Du        
   9253 ****        -1.0000   7.2500  15.2500 Du        
   9254 ****        -1.0000   7.2500  15.5000 Du        
   9255 ****        -1.0000   7.2500  15.7500 Du        
   9256 ****        -1.0000   7.2500  16.0000 Du        
   9257 ****        -1.0000   7.2500  16.2500 Du        
   9258 ****        -1.0000   7.2500  16.5000 Du        
   9259 ****        -1.0000   7.5000  14.5000 Du        
   9260 ****        -1.0000   7.5000  14.7500 Du        
   9261 ****        -1.0000   7.5000  15.0000 Du        
   9262 ****        -1.0000   7.5000  15.2500 Du        
   9263 ****        -1.0000   7.5000  15.5000 Du        
   9264 ****        -1.0000   7.5000  15.7500 Du        
   9265 ****        -1.0000   7.5000  16.0000 Du        
   9266 ****        -1.0000   7.5000  16.2500 Du        
   9267 ****        -1.0000   7.5000  16.5000 Du        
   9268 ****        -1.0000   7.5000  16.7500 Du        
   9269 ****        -1.0000   7.5000  17.0000 Du        
   9270 ****        -1.0000   7.7500  14.2500 Du        
   9271 ****        -1.0000   7.7500  14.5000 Du        
   9272 ****        -1.0000   7.7500  14.7500 Du        
   9273 ****        -1.0000   7.7500  15.0000 Du        
   9274 ****        -1.0000   7.7500  15.2500 Du        
   9275 ****        -1.0000   7.7500  15.5000 Du        
   9276 ****        -1.0000   7.7500  15.7500 Du        
   9277 ****        -1.0000   7.7500  16.0000 Du        
   9278 ****        -1.0000   7.7500  16.2500 Du        
   9279 ****        -1.0000   7.7500  16.5000 Du        
   9280 ****        -1.0000   7.7500  16.7500 Du        
   9281 ****        -1.0000   7.7500  17.0000 Du        
   9282 ****        -1.0000   7.7500  17.2500 Du        
   9283 ****        -1.0000   8.0000  13.7500 Du        
   9284 ****        -1.0000   8.0000  14.0000 Du        
   9285 ****        -1.0000   8.0000  14.2500 Du        
   9286 ****        -1.0000   8.0000  14.5000 Du        
   9287 ****        -1.0000   8.0000  14.7500 Du        
   9288 ****        -1.0000   8.0000  15.0000 Du        
   9289 ****        -1.0000   8.0000  15.2500 Du        
   9290 ****        -1.0000   8.0000  15.5000 Du        
   9291 ****        -1.0000   8.0000  15.7500 Du        
   9292 ****        -1.0000   8.0000  16.0000 Du        
   9293 ****        -1.0000   8.0000  16.2500 Du        
   9294 ****        -1.0000   8.0000  16.5000 Du        
   9295 ****        -1.0000   8.0000  16.7500 Du        
   9296 ****        -1.0000   8.0000  17.0000 Du        
   9297 ****        -1.0000   8.0000  17.2500 Du        
   9298 ****        -1.0000   8.2500  13.7500 Du        
   9299 ****        -1.0000   8.2500  14.0000 Du        
   9300 ****        -1.0000   8.2500  14.2500 Du        
   9301 ****        -1.0000   8.2500  14.5000 Du        
   9302 ****        -1.0000   8.2500  14.7500 Du        
   9303 ****        -1.0000   8.2500  15.0000 Du        
   9304 ****        -1.0000   8.2500  15.2500 Du        
   9305 ****        -1.0000   8.2500  15.5000 Du        
   9306 ****        -1.0000   8.2500  15.7500 Du        
   9307 ****        -1.0000   8.2500  16.0000 Du        
   9308 ****        -1.0000   8.2500  16.2500 Du        
   9309 ****        -1.0000   8.2500  16.5000 Du        
   9310 ****        -1.0000   8.2500  16.7500 Du        
   9311 ****        -1.0000   8.2500  17.0000 Du        
   9312 ****        -1.0000   8.2500  17.2500 Du        
   9313 ****        -1.0000   8.5000  13.0000 Du        
   9314 ****        -1.0000   8.5000  13.2500 Du        
   9315 ****        -1.0000   8.5000  13.5000 Du        
   9316 ****        -1.0000   8.5000  13.7500 Du        
   9317 ****        -1.0000   8.5000  14.0000 Du        
   9318 ****        -1.0000   8.5000  14.2500 Du        
   9319 ****        -1.0000   8.5000  14.5000 Du        
   9320 ****        -1.0000   8.5000  14.7500 Du        
   9321 ****        -1.0000   8.5000  15.0000 Du        
   9322 ****        -1.0000   8.5000  15.2500 Du        
   9323 ****        -1.0000   8.5000  15.5000 Du        
   9324 ****        -1.0000   8.5000  15.7500 Du        
   9325 ****        -1.0000   8.5000  16.0000 Du        
   9326 ****        -1.0000   8.5000  16.2500 Du        
   9327 ****        -1.0000   8.5000  16.5000 Du        
   9328 ****        -1.0000   8.5000  16.7500 Du        
   9329 ****        -1.0000   8.5000  17.0000 Du        
   9330 ****        -1.0000   8.5000  17.2500 Du        
   9331 ****        -1.0000   8.7500  12.5000 Du        
   9332 ****        -1.0000   8.7500  12.7500 Du        
   9333 ****        -1.0000   8.7500  13.0000 Du        
   9334 ****        -1.0000   8.7500  13.2500 Du        
   9335 ****        -1.0000   8.7500  13.5000 Du        
   9336 ****        -1.0000   8.7500  13.7500 Du        
   9337 ****        -1.0000   8.7500  14.0000 Du        
   9338 ****        -1.0000   8.7500  14.2500 Du        
   9339 ****        -1.0000   8.7500  14.5000 Du        
   9340 ****        -1.0000   8.7500  14.7500 Du        
   9341 ****        -1.0000   8.7500  15.0000 Du        
   9342 ****        -1.0000   8.7500  15.2500 Du        
   9343 ****        -1.0000   8.7500  15.5000 Du        
   9344 ****        -1.0000   8.7500  15.7500 Du        
   9345 ****        -1.0000   8.7500  16.0000 Du        
   9346 ****        -1.0000   8.7500  16.2500 Du        
   9347 ****        -1.0000   8.7500  16.5000 Du        
   9348 ****        -1.0000   8.7500  16.7500 Du        
   9349 ****        -1.0000   8.7500  17.0000 Du        
   9350 ****        -1.0000   9.0000  11.7500 Du        
   9351 ****        -1.0000   9.0000  12.0000 Du        
   9352 ****        -1.0000   9.0000  12.2500 Du        
   9353 ****        -1.0000   9.0000  12.5000 Du        
   9354 ****        -1.0000   9.0000  12.7500 Du        
   9355 ****        -1.0000   9.0000  13.0000 Du        
   9356 ****        -1.0000   9.0000  13.2500 Du        
   9357 ****        -1.0000   9.0000  13.5000 Du        
   9358 ****        -1.0000   9.0000  13.7500 Du        
   9359 ****        -1.0000   9.0000  14.0000 Du        
   9360 ****        -1.0000   9.0000  14.2500 Du        
   9361 ****        -1.0000   9.0000  16.0000 Du        
   9362 ****        -1.0000   9.0000  16.2500 Du        
   9363 ****        -1.0000   9.0000  16.5000 Du        
   9364 ****        -1.0000   9.0000  16.7500 Du        
   9365 ****        -1.0000   9.0000  17.0000 Du        
   9366 ****        -1.0000   9.2500  11.5000 Du        
   9367 ****        -1.0000   9.2500  11.7500 Du        
   9368 ****        -1.0000   9.2500  12.0000 Du        
   9369 ****        -1.0000   9.2500  12.2500 Du        
   9370 ****        -1.0000   9.2500  12.5000 Du        
   9371 ****        -1.0000   9.2500  12.7500 Du        
   9372 ****        -1.0000   9.2500  13.0000 Du        
   9373 ****        -1.0000   9.2500  13.2500 Du        
   9374 ****        -1.0000   9.2500  13.5000 Du        
   9375 ****        -1.0000   9.2500  13.7500 Du        
   9376 ****        -1.0000   9.2500  14.0000 Du        
   9377 ****        -1.0000   9.2500  14.2500 Du        
   9378 ****        -1.0000   9.5000  11.5000 Du        
   9379 ****        -1.0000   9.5000  11.7500 Du        
   9380 ****        -1.0000   9.5000  12.0000 Du        
   9381 ****        -1.0000   9.5000  12.2500 Du        
   9382 ****        -1.0000   9.5000  12.5000 Du        
   9383 ****        -1.0000   9.5000  12.7500 Du        
   9384 ****        -1.0000   9.5000  13.0000 Du        
   9385 ****        -1.0000   9.5000  13.2500 Du        
   9386 ****        -1.0000   9.5000  13.5000 Du        
   9387 ****        -1.0000   9.5000  13.7500 Du        
   9388 ****        -1.0000   9.5000  14.0000 Du        
   9389 ****        -1.0000   9.7500  11.7500 Du        
   9390 ****        -1.0000   9.7500  12.0000 Du        
   9391 ****        -1.0000   9.7500  12.2500 Du        
   9392 ****        -1.0000   9.7500  12.5000 Du        
   9393 ****        -1.0000   9.7500  12.7500 Du        
   9394 ****        -1.0000   9.7500  13.0000 Du        
   9395 ****        -1.0000   9.7500  13.2500 Du        
   9396 ****        -1.0000   9.7500  13.5000 Du        
   9397 ****        -1.0000   9.7500  13.7500 Du        
   9398 ****        -1.0000  10.0000  11.7500 Du        
   9399 ****        -1.0000  10.0000  12.0000 Du        
   9400 ****        -1.0000  10.0000  12.2500 Du        
   9401 ****        -1.0000  10.0000  12.5000 Du        
   9402 ****        -1.0000  10.0000  12.7500 Du        
   9403 ****        -1.0000  10.0000  13.0000 Du        
   9404 ****        -1.0000  10.0000  13.2500 Du        
   9405 ****        -1.0000  10.0000  13.5000 Du        
   9406 ****        -1.0000  10.2500  11.7500 Du        
   9407 ****        -1.0000  10.2500  12.0000 Du        
   9408 ****        -1.0000  10.2500  12.2500 Du        
   9409 ****        -1.0000  10.2500  12.5000 Du        
   9410 ****        -1.0000  10.2500  12.7500 Du        
   9411 ****        -1.0000  10.2500  13.0000 Du        
   9412 ****        -1.0000  10.2500  13.2500 Du        
   9413 ****        -1.0000  10.5000  12.0000 Du        
   9414 ****        -1.0000  10.5000  12.2500 Du        
   9415 ****        -1.0000  10.5000  12.5000 Du        
   9416 ****        -1.0000  10.5000  12.7500 Du        
   9417 ****        -1.0000  10.5000  13.0000 Du        
   9418 ****        -1.0000  10.5000  13.2500 Du        
   9419 ****        -1.0000  10.7500  12.2500 Du        
   9420 ****        -1.0000  10.7500  12.5000 Du        
   9421 ****        -1.0000  10.7500  12.7500 Du        
   9422 ****        -1.0000  10.7500  13.0000 Du        
   9423 ****        -1.0000  11.0000  12.7500 Du        
   9424 ****        -0.7500  -9.0000  10.7500 Du        
   9425 ****        -0.7500  -9.0000  11.0000 Du        
   9426 ****        -0.7500  -9.0000  11.2500 Du        
   9427 ****        -0.7500  -9.0000  11.5000 Du        
   9428 ****        -0.7500  -9.0000  11.7500 Du        
   9429 ****        -0.7500  -9.0000  12.0000 Du        
   9430 ****        -0.7500  -9.0000  12.2500 Du        
   9431 ****        -0.7500  -9.0000  12.5000 Du        
   9432 ****        -0.7500  -9.0000  12.7500 Du        
   9433 ****        -0.7500  -9.0000  13.0000 Du        
   9434 ****        -0.7500  -8.7500  11.0000 Du        
   9435 ****        -0.7500  -8.7500  11.2500 Du        
   9436 ****        -0.7500  -8.7500  11.5000 Du        
   9437 ****        -0.7500  -8.7500  11.7500 Du        
   9438 ****        -0.7500  -8.7500  12.0000 Du        
   9439 ****        -0.7500  -8.7500  12.2500 Du        
   9440 ****        -0.7500  -8.7500  12.5000 Du        
   9441 ****        -0.7500  -8.7500  12.7500 Du        
   9442 ****        -0.7500  -8.7500  13.0000 Du        
   9443 ****        -0.7500  -8.5000  11.0000 Du        
   9444 ****        -0.7500  -8.5000  11.2500 Du        
   9445 ****        -0.7500  -8.5000  11.5000 Du        
   9446 ****        -0.7500  -8.5000  11.7500 Du        
   9447 ****        -0.7500  -8.5000  12.0000 Du        
   9448 ****        -0.7500  -8.5000  12.2500 Du        
   9449 ****        -0.7500  -8.5000  12.5000 Du        
   9450 ****        -0.7500  -8.5000  12.7500 Du        
   9451 ****        -0.7500  -8.5000  13.0000 Du        
   9452 ****        -0.7500  -8.5000  13.2500 Du        
   9453 ****        -0.7500  -8.2500  11.0000 Du        
   9454 ****        -0.7500  -8.2500  11.2500 Du        
   9455 ****        -0.7500  -8.2500  11.5000 Du        
   9456 ****        -0.7500  -8.2500  11.7500 Du        
   9457 ****        -0.7500  -8.2500  12.0000 Du        
   9458 ****        -0.7500  -8.2500  12.2500 Du        
   9459 ****        -0.7500  -8.2500  12.5000 Du        
   9460 ****        -0.7500  -8.2500  12.7500 Du        
   9461 ****        -0.7500  -8.2500  13.0000 Du        
   9462 ****        -0.7500  -8.2500  13.2500 Du        
   9463 ****        -0.7500  -8.0000  11.2500 Du        
   9464 ****        -0.7500  -8.0000  11.5000 Du        
   9465 ****        -0.7500  -8.0000  11.7500 Du        
   9466 ****        -0.7500  -8.0000  12.0000 Du        
   9467 ****        -0.7500  -8.0000  12.2500 Du        
   9468 ****        -0.7500  -8.0000  12.5000 Du        
   9469 ****        -0.7500  -8.0000  12.7500 Du        
   9470 ****        -0.7500  -8.0000  13.0000 Du        
   9471 ****        -0.7500  -8.0000  13.2500 Du        
   9472 ****        -0.7500  -8.0000  13.5000 Du        
   9473 ****        -0.7500  -7.7500  11.5000 Du        
   9474 ****        -0.7500  -7.7500  11.7500 Du        
   9475 ****        -0.7500  -7.7500  12.0000 Du        
   9476 ****        -0.7500  -7.7500  12.2500 Du        
   9477 ****        -0.7500  -7.7500  12.5000 Du        
   9478 ****        -0.7500  -7.7500  12.7500 Du        
   9479 ****        -0.7500  -7.7500  13.0000 Du        
   9480 ****        -0.7500  -7.7500  13.2500 Du        
   9481 ****        -0.7500  -7.7500  13.5000 Du        
   9482 ****        -0.7500  -7.5000  12.7500 Du        
   9483 ****        -0.7500  -7.5000  13.0000 Du        
   9484 ****        -0.7500  -7.5000  13.2500 Du        
   9485 ****        -0.7500  -7.5000  13.5000 Du        
   9486 ****        -0.7500  -1.2500  25.5000 Du        
   9487 ****        -0.7500  -1.2500  25.7500 Du        
   9488 ****        -0.7500  -1.2500  26.0000 Du        
   9489 ****        -0.7500  -1.0000  25.7500 Du        
   9490 ****        -0.7500  -1.0000  26.0000 Du        
   9491 ****        -0.7500  -1.0000  26.2500 Du        
   9492 ****        -0.7500  -0.7500  25.7500 Du        
   9493 ****        -0.7500  -0.7500  26.0000 Du        
   9494 ****        -0.7500  -0.7500  26.2500 Du        
   9495 ****        -0.7500  -0.7500  26.5000 Du        
   9496 ****        -0.7500  -0.5000  25.7500 Du        
   9497 ****        -0.7500  -0.5000  26.0000 Du        
   9498 ****        -0.7500  -0.5000  26.2500 Du        
   9499 ****        -0.7500  -0.5000  26.5000 Du        
   9500 ****        -0.7500  -0.5000  26.7500 Du        
   9501 ****        -0.7500  -0.2500  26.0000 Du        
   9502 ****        -0.7500  -0.2500  26.2500 Du        
   9503 ****        -0.7500  -0.2500  26.5000 Du        
   9504 ****        -0.7500  -0.2500  26.7500 Du        
   9505 ****        -0.7500  -0.2500  27.0000 Du        
   9506 ****        -0.7500   0.0000  26.0000 Du        
   9507 ****        -0.7500   0.0000  26.2500 Du        
   9508 ****        -0.7500   0.0000  26.5000 Du        
   9509 ****        -0.7500   0.0000  26.7500 Du        
   9510 ****        -0.7500   0.0000  27.0000 Du        
   9511 ****        -0.7500   0.0000  27.2500 Du        
   9512 ****        -0.7500   0.2500  26.2500 Du        
   9513 ****        -0.7500   0.2500  26.5000 Du        
   9514 ****        -0.7500   0.2500  26.7500 Du        
   9515 ****        -0.7500   0.2500  27.0000 Du        
   9516 ****        -0.7500   2.5000  15.5000 Du        
   9517 ****        -0.7500   2.7500  15.2500 Du        
   9518 ****        -0.7500   2.7500  15.5000 Du        
   9519 ****        -0.7500   2.7500  15.7500 Du        
   9520 ****        -0.7500   3.0000  15.0000 Du        
   9521 ****        -0.7500   3.0000  15.2500 Du        
   9522 ****        -0.7500   3.0000  15.5000 Du        
   9523 ****        -0.7500   3.0000  15.7500 Du        
   9524 ****        -0.7500   3.2500  15.0000 Du        
   9525 ****        -0.7500   3.2500  15.2500 Du        
   9526 ****        -0.7500   3.2500  15.5000 Du        
   9527 ****        -0.7500   3.2500  15.7500 Du        
   9528 ****        -0.7500   3.5000  14.7500 Du        
   9529 ****        -0.7500   3.5000  15.0000 Du        
   9530 ****        -0.7500   3.5000  15.2500 Du        
   9531 ****        -0.7500   3.5000  15.5000 Du        
   9532 ****        -0.7500   3.7500  14.5000 Du        
   9533 ****        -0.7500   3.7500  14.7500 Du        
   9534 ****        -0.7500   3.7500  15.0000 Du        
   9535 ****        -0.7500   3.7500  15.2500 Du        
   9536 ****        -0.7500   4.0000  14.0000 Du        
   9537 ****        -0.7500   4.0000  14.2500 Du        
   9538 ****        -0.7500   4.0000  14.5000 Du        
   9539 ****        -0.7500   4.0000  14.7500 Du        
   9540 ****        -0.7500   4.0000  15.0000 Du        
   9541 ****        -0.7500   4.2500  14.0000 Du        
   9542 ****        -0.7500   4.2500  14.2500 Du        
   9543 ****        -0.7500   4.2500  14.5000 Du        
   9544 ****        -0.7500   4.2500  14.7500 Du        
   9545 ****        -0.7500   4.5000  14.2500 Du        
   9546 ****        -0.7500   7.0000  14.7500 Du        
   9547 ****        -0.7500   7.0000  15.0000 Du        
   9548 ****        -0.7500   7.0000  15.2500 Du        
   9549 ****        -0.7500   7.2500  14.5000 Du        
   9550 ****        -0.7500   7.2500  14.7500 Du        
   9551 ****        -0.7500   7.2500  15.0000 Du        
   9552 ****        -0.7500   7.2500  15.2500 Du        
   9553 ****        -0.7500   7.2500  15.5000 Du        
   9554 ****        -0.7500   7.2500  15.7500 Du        
   9555 ****        -0.7500   7.2500  16.0000 Du        
   9556 ****        -0.7500   7.5000  14.2500 Du        
   9557 ****        -0.7500   7.5000  14.5000 Du        
   9558 ****        -0.7500   7.5000  14.7500 Du        
   9559 ****        -0.7500   7.5000  15.0000 Du        
   9560 ****        -0.7500   7.5000  15.2500 Du        
   9561 ****        -0.7500   7.5000  15.5000 Du        
   9562 ****        -0.7500   7.5000  15.7500 Du        
   9563 ****        -0.7500   7.5000  16.0000 Du        
   9564 ****        -0.7500   7.5000  16.2500 Du        
   9565 ****        -0.7500   7.5000  16.5000 Du        
   9566 ****        -0.7500   7.7500  13.7500 Du        
   9567 ****        -0.7500   7.7500  14.0000 Du        
   9568 ****        -0.7500   7.7500  14.2500 Du        
   9569 ****        -0.7500   7.7500  14.5000 Du        
   9570 ****        -0.7500   7.7500  14.7500 Du        
   9571 ****        -0.7500   7.7500  15.0000 Du        
   9572 ****        -0.7500   7.7500  15.2500 Du        
   9573 ****        -0.7500   7.7500  15.5000 Du        
   9574 ****        -0.7500   7.7500  15.7500 Du        
   9575 ****        -0.7500   7.7500  16.0000 Du        
   9576 ****        -0.7500   7.7500  16.2500 Du        
   9577 ****        -0.7500   7.7500  16.5000 Du        
   9578 ****        -0.7500   7.7500  16.7500 Du        
   9579 ****        -0.7500   7.7500  17.0000 Du        
   9580 ****        -0.7500   8.0000  13.0000 Du        
   9581 ****        -0.7500   8.0000  13.2500 Du        
   9582 ****        -0.7500   8.0000  13.5000 Du        
   9583 ****        -0.7500   8.0000  13.7500 Du        
   9584 ****        -0.7500   8.0000  14.0000 Du        
   9585 ****        -0.7500   8.0000  14.2500 Du        
   9586 ****        -0.7500   8.0000  14.5000 Du        
   9587 ****        -0.7500   8.0000  14.7500 Du        
   9588 ****        -0.7500   8.0000  15.0000 Du        
   9589 ****        -0.7500   8.0000  15.2500 Du        
   9590 ****        -0.7500   8.0000  15.5000 Du        
   9591 ****        -0.7500   8.0000  15.7500 Du        
   9592 ****        -0.7500   8.0000  16.0000 Du        
   9593 ****        -0.7500   8.0000  16.2500 Du        
   9594 ****        -0.7500   8.0000  16.5000 Du        
   9595 ****        -0.7500   8.0000  16.7500 Du        
   9596 ****        -0.7500   8.0000  17.0000 Du        
   9597 ****        -0.7500   8.2500  12.2500 Du        
   9598 ****        -0.7500   8.2500  13.0000 Du        
   9599 ****        -0.7500   8.2500  13.2500 Du        
   9600 ****        -0.7500   8.2500  13.5000 Du        
   9601 ****        -0.7500   8.2500  13.7500 Du        
   9602 ****        -0.7500   8.2500  14.0000 Du        
   9603 ****        -0.7500   8.2500  14.2500 Du        
   9604 ****        -0.7500   8.2500  14.5000 Du        
   9605 ****        -0.7500   8.2500  14.7500 Du        
   9606 ****        -0.7500   8.2500  15.0000 Du        
   9607 ****        -0.7500   8.2500  15.2500 Du        
   9608 ****        -0.7500   8.2500  15.5000 Du        
   9609 ****        -0.7500   8.2500  15.7500 Du        
   9610 ****        -0.7500   8.2500  16.0000 Du        
   9611 ****        -0.7500   8.2500  16.2500 Du        
   9612 ****        -0.7500   8.2500  16.5000 Du        
   9613 ****        -0.7500   8.2500  16.7500 Du        
   9614 ****        -0.7500   8.2500  17.0000 Du        
   9615 ****        -0.7500   8.5000  12.0000 Du        
   9616 ****        -0.7500   8.5000  12.2500 Du        
   9617 ****        -0.7500   8.5000  12.5000 Du        
   9618 ****        -0.7500   8.5000  12.7500 Du        
   9619 ****        -0.7500   8.5000  13.0000 Du        
   9620 ****        -0.7500   8.5000  13.2500 Du        
   9621 ****        -0.7500   8.5000  13.5000 Du        
   9622 ****        -0.7500   8.5000  13.7500 Du        
   9623 ****        -0.7500   8.5000  14.0000 Du        
   9624 ****        -0.7500   8.5000  14.2500 Du        
   9625 ****        -0.7500   8.5000  14.5000 Du        
   9626 ****        -0.7500   8.5000  14.7500 Du        
   9627 ****        -0.7500   8.5000  15.0000 Du        
   9628 ****        -0.7500   8.5000  15.2500 Du        
   9629 ****        -0.7500   8.5000  15.5000 Du        
   9630 ****        -0.7500   8.5000  15.7500 Du        
   9631 ****        -0.7500   8.5000  16.0000 Du        
   9632 ****        -0.7500   8.5000  16.2500 Du        
   9633 ****        -0.7500   8.5000  16.5000 Du        
   9634 ****        -0.7500   8.5000  16.7500 Du        
   9635 ****        -0.7500   8.5000  17.0000 Du        
   9636 ****        -0.7500   8.7500  11.5000 Du        
   9637 ****        -0.7500   8.7500  11.7500 Du        
   9638 ****        -0.7500   8.7500  12.0000 Du        
   9639 ****        -0.7500   8.7500  12.2500 Du        
   9640 ****        -0.7500   8.7500  12.5000 Du        
   9641 ****        -0.7500   8.7500  12.7500 Du        
   9642 ****        -0.7500   8.7500  13.0000 Du        
   9643 ****        -0.7500   8.7500  13.2500 Du        
   9644 ****        -0.7500   8.7500  13.5000 Du        
   9645 ****        -0.7500   8.7500  13.7500 Du        
   9646 ****        -0.7500   8.7500  14.0000 Du        
   9647 ****        -0.7500   8.7500  14.2500 Du        
   9648 ****        -0.7500   8.7500  14.5000 Du        
   9649 ****        -0.7500   8.7500  14.7500 Du        
   9650 ****        -0.7500   8.7500  15.0000 Du        
   9651 ****        -0.7500   8.7500  15.2500 Du        
   9652 ****        -0.7500   8.7500  15.5000 Du        
   9653 ****        -0.7500   8.7500  15.7500 Du        
   9654 ****        -0.7500   8.7500  16.0000 Du        
   9655 ****        -0.7500   8.7500  16.2500 Du        
   9656 ****        -0.7500   8.7500  16.5000 Du        
   9657 ****        -0.7500   8.7500  16.7500 Du        
   9658 ****        -0.7500   8.7500  17.0000 Du        
   9659 ****        -0.7500   9.0000  11.5000 Du        
   9660 ****        -0.7500   9.0000  11.7500 Du        
   9661 ****        -0.7500   9.0000  12.0000 Du        
   9662 ****        -0.7500   9.0000  12.2500 Du        
   9663 ****        -0.7500   9.0000  12.5000 Du        
   9664 ****        -0.7500   9.0000  12.7500 Du        
   9665 ****        -0.7500   9.0000  13.0000 Du        
   9666 ****        -0.7500   9.0000  13.2500 Du        
   9667 ****        -0.7500   9.0000  13.5000 Du        
   9668 ****        -0.7500   9.0000  13.7500 Du        
   9669 ****        -0.7500   9.0000  14.0000 Du        
   9670 ****        -0.7500   9.0000  14.2500 Du        
   9671 ****        -0.7500   9.0000  14.5000 Du        
   9672 ****        -0.7500   9.0000  14.7500 Du        
   9673 ****        -0.7500   9.0000  15.0000 Du        
   9674 ****        -0.7500   9.0000  15.5000 Du        
   9675 ****        -0.7500   9.0000  15.7500 Du        
   9676 ****        -0.7500   9.0000  16.0000 Du        
   9677 ****        -0.7500   9.0000  16.2500 Du        
   9678 ****        -0.7500   9.0000  16.5000 Du        
   9679 ****        -0.7500   9.0000  16.7500 Du        
   9680 ****        -0.7500   9.2500  11.7500 Du        
   9681 ****        -0.7500   9.2500  12.0000 Du        
   9682 ****        -0.7500   9.2500  12.2500 Du        
   9683 ****        -0.7500   9.2500  12.5000 Du        
   9684 ****        -0.7500   9.2500  12.7500 Du        
   9685 ****        -0.7500   9.2500  13.0000 Du        
   9686 ****        -0.7500   9.2500  13.2500 Du        
   9687 ****        -0.7500   9.2500  13.5000 Du        
   9688 ****        -0.7500   9.2500  13.7500 Du        
   9689 ****        -0.7500   9.2500  14.0000 Du        
   9690 ****        -0.7500   9.2500  14.2500 Du        
   9691 ****        -0.7500   9.5000  11.7500 Du        
   9692 ****        -0.7500   9.5000  12.0000 Du        
   9693 ****        -0.7500   9.5000  12.2500 Du        
   9694 ****        -0.7500   9.5000  12.5000 Du        
   9695 ****        -0.7500   9.5000  12.7500 Du        
   9696 ****        -0.7500   9.5000  13.0000 Du        
   9697 ****        -0.7500   9.5000  13.2500 Du        
   9698 ****        -0.7500   9.5000  13.5000 Du        
   9699 ****        -0.7500   9.5000  13.7500 Du        
   9700 ****        -0.7500   9.5000  14.0000 Du        
   9701 ****        -0.7500   9.7500  11.7500 Du        
   9702 ****        -0.7500   9.7500  12.0000 Du        
   9703 ****        -0.7500   9.7500  12.2500 Du        
   9704 ****        -0.7500   9.7500  12.5000 Du        
   9705 ****        -0.7500   9.7500  12.7500 Du        
   9706 ****        -0.7500   9.7500  13.0000 Du        
   9707 ****        -0.7500   9.7500  13.2500 Du        
   9708 ****        -0.7500   9.7500  13.5000 Du        
   9709 ****        -0.7500   9.7500  13.7500 Du        
   9710 ****        -0.7500  10.0000  11.7500 Du        
   9711 ****        -0.7500  10.0000  12.0000 Du        
   9712 ****        -0.7500  10.0000  12.2500 Du        
   9713 ****        -0.7500  10.0000  12.5000 Du        
   9714 ****        -0.7500  10.0000  12.7500 Du        
   9715 ****        -0.7500  10.0000  13.0000 Du        
   9716 ****        -0.7500  10.0000  13.2500 Du        
   9717 ****        -0.7500  10.0000  13.5000 Du        
   9718 ****        -0.7500  10.2500  12.0000 Du        
   9719 ****        -0.7500  10.2500  12.2500 Du        
   9720 ****        -0.7500  10.2500  12.5000 Du        
   9721 ****        -0.7500  10.2500  12.7500 Du        
   9722 ****        -0.7500  10.2500  13.0000 Du        
   9723 ****        -0.7500  10.2500  13.2500 Du        
   9724 ****        -0.7500  10.2500  13.5000 Du        
   9725 ****        -0.7500  10.5000  12.0000 Du        
   9726 ****        -0.7500  10.5000  12.2500 Du        
   9727 ****        -0.7500  10.5000  12.5000 Du        
   9728 ****        -0.7500  10.5000  12.7500 Du        
   9729 ****        -0.7500  10.5000  13.0000 Du        
   9730 ****        -0.7500  10.5000  13.2500 Du        
   9731 ****        -0.7500  10.7500  12.2500 Du        
   9732 ****        -0.7500  10.7500  12.5000 Du        
   9733 ****        -0.7500  10.7500  12.7500 Du        
   9734 ****        -0.7500  10.7500  13.0000 Du        
   9735 ****        -0.7500  10.7500  13.2500 Du        
   9736 ****        -0.7500  11.0000  12.2500 Du        
   9737 ****        -0.7500  11.0000  12.5000 Du        
   9738 ****        -0.7500  11.0000  12.7500 Du        
   9739 ****        -0.7500  11.0000  13.0000 Du        
   9740 ****        -0.7500  11.0000  13.2500 Du        
   9741 ****        -0.7500  11.2500  12.5000 Du        
   9742 ****        -0.7500  11.2500  12.7500 Du        
   9743 ****        -0.7500  11.2500  13.0000 Du        
   9744 ****        -0.5000  -9.0000  11.0000 Du        
   9745 ****        -0.5000  -9.0000  11.2500 Du        
   9746 ****        -0.5000  -9.0000  11.5000 Du        
   9747 ****        -0.5000  -9.0000  11.7500 Du        
   9748 ****        -0.5000  -9.0000  12.0000 Du        
   9749 ****        -0.5000  -9.0000  12.2500 Du        
   9750 ****        -0.5000  -9.0000  12.5000 Du        
   9751 ****        -0.5000  -9.0000  12.7500 Du        
   9752 ****        -0.5000  -9.0000  13.0000 Du        
   9753 ****        -0.5000  -8.7500  11.2500 Du        
   9754 ****        -0.5000  -8.7500  11.5000 Du        
   9755 ****        -0.5000  -8.7500  11.7500 Du        
   9756 ****        -0.5000  -8.7500  12.0000 Du        
   9757 ****        -0.5000  -8.7500  12.2500 Du        
   9758 ****        -0.5000  -8.7500  12.5000 Du        
   9759 ****        -0.5000  -8.7500  12.7500 Du        
   9760 ****        -0.5000  -8.7500  13.0000 Du        
   9761 ****        -0.5000  -8.5000  11.2500 Du        
   9762 ****        -0.5000  -8.5000  11.5000 Du        
   9763 ****        -0.5000  -8.5000  11.7500 Du        
   9764 ****        -0.5000  -8.5000  12.0000 Du        
   9765 ****        -0.5000  -8.5000  12.2500 Du        
   9766 ****        -0.5000  -8.5000  12.5000 Du        
   9767 ****        -0.5000  -8.5000  12.7500 Du        
   9768 ****        -0.5000  -8.5000  13.0000 Du        
   9769 ****        -0.5000  -8.2500  11.2500 Du        
   9770 ****        -0.5000  -8.2500  11.5000 Du        
   9771 ****        -0.5000  -8.2500  11.7500 Du        
   9772 ****        -0.5000  -8.2500  12.0000 Du        
   9773 ****        -0.5000  -8.2500  12.2500 Du        
   9774 ****        -0.5000  -8.2500  12.5000 Du        
   9775 ****        -0.5000  -8.2500  12.7500 Du        
   9776 ****        -0.5000  -8.2500  13.0000 Du        
   9777 ****        -0.5000  -8.0000  11.2500 Du        
   9778 ****        -0.5000  -8.0000  11.5000 Du        
   9779 ****        -0.5000  -8.0000  11.7500 Du        
   9780 ****        -0.5000  -8.0000  12.0000 Du        
   9781 ****        -0.5000  -8.0000  12.2500 Du        
   9782 ****        -0.5000  -8.0000  12.5000 Du        
   9783 ****        -0.5000  -8.0000  12.7500 Du        
   9784 ****        -0.5000  -8.0000  13.0000 Du        
   9785 ****        -0.5000  -8.0000  13.2500 Du        
   9786 ****        -0.5000  -7.7500  11.5000 Du        
   9787 ****        -0.5000  -7.7500  11.7500 Du        
   9788 ****        -0.5000  -7.7500  12.0000 Du        
   9789 ****        -0.5000  -7.7500  12.2500 Du        
   9790 ****        -0.5000  -7.7500  12.5000 Du        
   9791 ****        -0.5000  -7.7500  12.7500 Du        
   9792 ****        -0.5000  -7.7500  13.0000 Du        
   9793 ****        -0.5000  -7.7500  13.2500 Du        
   9794 ****        -0.5000  -7.5000  11.7500 Du        
   9795 ****        -0.5000  -7.5000  12.0000 Du        
   9796 ****        -0.5000  -7.5000  12.2500 Du        
   9797 ****        -0.5000  -7.5000  12.5000 Du        
   9798 ****        -0.5000  -7.5000  12.7500 Du        
   9799 ****        -0.5000  -7.5000  13.0000 Du        
   9800 ****        -0.5000  -7.5000  13.2500 Du        
   9801 ****        -0.5000  -1.2500  25.5000 Du        
   9802 ****        -0.5000  -1.2500  25.7500 Du        
   9803 ****        -0.5000  -1.2500  26.0000 Du        
   9804 ****        -0.5000  -1.0000  25.7500 Du        
   9805 ****        -0.5000  -1.0000  26.0000 Du        
   9806 ****        -0.5000  -1.0000  26.2500 Du        
   9807 ****        -0.5000  -0.7500  25.7500 Du        
   9808 ****        -0.5000  -0.7500  26.0000 Du        
   9809 ****        -0.5000  -0.7500  26.2500 Du        
   9810 ****        -0.5000  -0.7500  26.5000 Du        
   9811 ****        -0.5000  -0.5000  25.7500 Du        
   9812 ****        -0.5000  -0.5000  26.0000 Du        
   9813 ****        -0.5000  -0.5000  26.2500 Du        
   9814 ****        -0.5000  -0.5000  26.5000 Du        
   9815 ****        -0.5000  -0.5000  26.7500 Du        
   9816 ****        -0.5000  -0.5000  27.0000 Du        
   9817 ****        -0.5000  -0.2500  26.0000 Du        
   9818 ****        -0.5000  -0.2500  26.2500 Du        
   9819 ****        -0.5000  -0.2500  26.5000 Du        
   9820 ****        -0.5000  -0.2500  26.7500 Du        
   9821 ****        -0.5000  -0.2500  27.0000 Du        
   9822 ****        -0.5000  -0.2500  27.2500 Du        
   9823 ****        -0.5000  -0.2500  27.5000 Du        
   9824 ****        -0.5000   0.0000  26.0000 Du        
   9825 ****        -0.5000   0.0000  26.2500 Du        
   9826 ****        -0.5000   0.0000  26.5000 Du        
   9827 ****        -0.5000   0.0000  26.7500 Du        
   9828 ****        -0.5000   0.0000  27.0000 Du        
   9829 ****        -0.5000   0.0000  27.2500 Du        
   9830 ****        -0.5000   0.0000  27.5000 Du        
   9831 ****        -0.5000   0.0000  27.7500 Du        
   9832 ****        -0.5000   0.2500  26.2500 Du        
   9833 ****        -0.5000   0.2500  26.5000 Du        
   9834 ****        -0.5000   0.2500  26.7500 Du        
   9835 ****        -0.5000   0.2500  27.0000 Du        
   9836 ****        -0.5000   0.2500  27.2500 Du        
   9837 ****        -0.5000   0.2500  27.5000 Du        
   9838 ****        -0.5000   2.7500  15.0000 Du        
   9839 ****        -0.5000   2.7500  15.2500 Du        
   9840 ****        -0.5000   2.7500  15.5000 Du        
   9841 ****        -0.5000   3.0000  15.0000 Du        
   9842 ****        -0.5000   3.0000  15.2500 Du        
   9843 ****        -0.5000   3.0000  15.5000 Du        
   9844 ****        -0.5000   3.2500  14.7500 Du        
   9845 ****        -0.5000   3.2500  15.0000 Du        
   9846 ****        -0.5000   3.2500  15.2500 Du        
   9847 ****        -0.5000   3.5000  14.5000 Du        
   9848 ****        -0.5000   3.5000  14.7500 Du        
   9849 ****        -0.5000   3.5000  15.0000 Du        
   9850 ****        -0.5000   3.7500  14.2500 Du        
   9851 ****        -0.5000   3.7500  14.5000 Du        
   9852 ****        -0.5000   3.7500  14.7500 Du        
   9853 ****        -0.5000   4.0000  13.7500 Du        
   9854 ****        -0.5000   4.0000  14.0000 Du        
   9855 ****        -0.5000   4.0000  14.2500 Du        
   9856 ****        -0.5000   4.0000  14.5000 Du        
   9857 ****        -0.5000   4.2500  13.2500 Du        
   9858 ****        -0.5000   4.2500  13.5000 Du        
   9859 ****        -0.5000   4.2500  13.7500 Du        
   9860 ****        -0.5000   4.2500  14.0000 Du        
   9861 ****        -0.5000   4.2500  14.2500 Du        
   9862 ****        -0.5000   4.5000  13.7500 Du        
   9863 ****        -0.5000   4.5000  14.0000 Du        
   9864 ****        -0.5000   4.5000  14.2500 Du        
   9865 ****        -0.5000   4.7500  13.7500 Du        
   9866 ****        -0.5000   4.7500  14.0000 Du        
   9867 ****        -0.5000   7.2500  14.5000 Du        
   9868 ****        -0.5000   7.2500  14.7500 Du        
   9869 ****        -0.5000   7.2500  15.0000 Du        
   9870 ****        -0.5000   7.5000  14.0000 Du        
   9871 ****        -0.5000   7.5000  14.2500 Du        
   9872 ****        -0.5000   7.5000  14.5000 Du        
   9873 ****        -0.5000   7.5000  14.7500 Du        
   9874 ****        -0.5000   7.5000  15.0000 Du        
   9875 ****        -0.5000   7.5000  15.2500 Du        
   9876 ****        -0.5000   7.5000  15.5000 Du        
   9877 ****        -0.5000   7.5000  15.7500 Du        
   9878 ****        -0.5000   7.5000  16.0000 Du        
   9879 ****        -0.5000   7.7500  12.0000 Du        
   9880 ****        -0.5000   7.7500  12.2500 Du        
   9881 ****        -0.5000   7.7500  12.7500 Du        
   9882 ****        -0.5000   7.7500  13.0000 Du        
   9883 ****        -0.5000   7.7500  13.7500 Du        
   9884 ****        -0.5000   7.7500  14.0000 Du        
   9885 ****        -0.5000   7.7500  14.2500 Du        
   9886 ****        -0.5000   7.7500  14.5000 Du        
   9887 ****        -0.5000   7.7500  14.7500 Du        
   9888 ****        -0.5000   7.7500  15.0000 Du        
   9889 ****        -0.5000   7.7500  15.2500 Du        
   9890 ****        -0.5000   7.7500  15.5000 Du        
   9891 ****        -0.5000   7.7500  15.7500 Du        
   9892 ****        -0.5000   7.7500  16.0000 Du        
   9893 ****        -0.5000   7.7500  16.2500 Du        
   9894 ****        -0.5000   7.7500  16.5000 Du        
   9895 ****        -0.5000   7.7500  16.7500 Du        
   9896 ****        -0.5000   8.0000  11.7500 Du        
   9897 ****        -0.5000   8.0000  12.0000 Du        
   9898 ****        -0.5000   8.0000  12.2500 Du        
   9899 ****        -0.5000   8.0000  12.5000 Du        
   9900 ****        -0.5000   8.0000  12.7500 Du        
   9901 ****        -0.5000   8.0000  13.0000 Du        
   9902 ****        -0.5000   8.0000  13.2500 Du        
   9903 ****        -0.5000   8.0000  13.7500 Du        
   9904 ****        -0.5000   8.0000  14.0000 Du        
   9905 ****        -0.5000   8.0000  14.2500 Du        
   9906 ****        -0.5000   8.0000  14.5000 Du        
   9907 ****        -0.5000   8.0000  14.7500 Du        
   9908 ****        -0.5000   8.0000  15.0000 Du        
   9909 ****        -0.5000   8.0000  15.2500 Du        
   9910 ****        -0.5000   8.0000  15.5000 Du        
   9911 ****        -0.5000   8.0000  15.7500 Du        
   9912 ****        -0.5000   8.0000  16.0000 Du        
   9913 ****        -0.5000   8.0000  16.2500 Du        
   9914 ****        -0.5000   8.0000  16.5000 Du        
   9915 ****        -0.5000   8.0000  16.7500 Du        
   9916 ****        -0.5000   8.0000  17.0000 Du        
   9917 ****        -0.5000   8.2500  11.7500 Du        
   9918 ****        -0.5000   8.2500  12.0000 Du        
   9919 ****        -0.5000   8.2500  12.2500 Du        
   9920 ****        -0.5000   8.2500  12.5000 Du        
   9921 ****        -0.5000   8.2500  12.7500 Du        
   9922 ****        -0.5000   8.2500  13.0000 Du        
   9923 ****        -0.5000   8.2500  13.2500 Du        
   9924 ****        -0.5000   8.2500  13.5000 Du        
   9925 ****        -0.5000   8.2500  13.7500 Du        
   9926 ****        -0.5000   8.2500  14.0000 Du        
   9927 ****        -0.5000   8.2500  14.2500 Du        
   9928 ****        -0.5000   8.2500  14.5000 Du        
   9929 ****        -0.5000   8.2500  14.7500 Du        
   9930 ****        -0.5000   8.2500  15.0000 Du        
   9931 ****        -0.5000   8.2500  15.2500 Du        
   9932 ****        -0.5000   8.2500  15.5000 Du        
   9933 ****        -0.5000   8.2500  15.7500 Du        
   9934 ****        -0.5000   8.2500  16.0000 Du        
   9935 ****        -0.5000   8.2500  16.2500 Du        
   9936 ****        -0.5000   8.2500  16.5000 Du        
   9937 ****        -0.5000   8.2500  16.7500 Du        
   9938 ****        -0.5000   8.2500  17.0000 Du        
   9939 ****        -0.5000   8.5000  11.5000 Du        
   9940 ****        -0.5000   8.5000  11.7500 Du        
   9941 ****        -0.5000   8.5000  12.0000 Du        
   9942 ****        -0.5000   8.5000  12.2500 Du        
   9943 ****        -0.5000   8.5000  12.5000 Du        
   9944 ****        -0.5000   8.5000  12.7500 Du        
   9945 ****        -0.5000   8.5000  13.0000 Du        
   9946 ****        -0.5000   8.5000  13.2500 Du        
   9947 ****        -0.5000   8.5000  13.5000 Du        
   9948 ****        -0.5000   8.5000  13.7500 Du        
   9949 ****        -0.5000   8.5000  14.0000 Du        
   9950 ****        -0.5000   8.5000  14.2500 Du        
   9951 ****        -0.5000   8.5000  14.5000 Du        
   9952 ****        -0.5000   8.5000  14.7500 Du        
   9953 ****        -0.5000   8.5000  15.0000 Du        
   9954 ****        -0.5000   8.5000  15.2500 Du        
   9955 ****        -0.5000   8.5000  15.5000 Du        
   9956 ****        -0.5000   8.5000  15.7500 Du        
   9957 ****        -0.5000   8.5000  16.0000 Du        
   9958 ****        -0.5000   8.5000  16.2500 Du        
   9959 ****        -0.5000   8.5000  16.5000 Du        
   9960 ****        -0.5000   8.5000  16.7500 Du        
   9961 ****        -0.5000   8.5000  17.0000 Du        
   9962 ****        -0.5000   8.7500  11.5000 Du        
   9963 ****        -0.5000   8.7500  11.7500 Du        
   9964 ****        -0.5000   8.7500  12.0000 Du        
   9965 ****        -0.5000   8.7500  12.2500 Du        
   9966 ****        -0.5000   8.7500  12.5000 Du        
   9967 ****        -0.5000   8.7500  12.7500 Du        
   9968 ****        -0.5000   8.7500  13.0000 Du        
   9969 ****        -0.5000   8.7500  13.2500 Du        
   9970 ****        -0.5000   8.7500  13.5000 Du        
   9971 ****        -0.5000   8.7500  13.7500 Du        
   9972 ****        -0.5000   8.7500  14.0000 Du        
   9973 ****        -0.5000   8.7500  14.2500 Du        
   9974 ****        -0.5000   8.7500  14.5000 Du        
   9975 ****        -0.5000   8.7500  14.7500 Du        
   9976 ****        -0.5000   8.7500  15.0000 Du        
   9977 ****        -0.5000   8.7500  15.2500 Du        
   9978 ****        -0.5000   8.7500  15.5000 Du        
   9979 ****        -0.5000   8.7500  15.7500 Du        
   9980 ****        -0.5000   8.7500  16.0000 Du        
   9981 ****        -0.5000   8.7500  16.2500 Du        
   9982 ****        -0.5000   8.7500  16.5000 Du        
   9983 ****        -0.5000   8.7500  16.7500 Du        
   9984 ****        -0.5000   9.0000  11.5000 Du        
   9985 ****        -0.5000   9.0000  11.7500 Du        
   9986 ****        -0.5000   9.0000  12.0000 Du        
   9987 ****        -0.5000   9.0000  12.2500 Du        
   9988 ****        -0.5000   9.0000  12.5000 Du        
   9989 ****        -0.5000   9.0000  12.7500 Du        
   9990 ****        -0.5000   9.0000  13.0000 Du        
   9991 ****        -0.5000   9.0000  13.2500 Du        
   9992 ****        -0.5000   9.0000  13.5000 Du        
   9993 ****        -0.5000   9.0000  13.7500 Du        
   9994 ****        -0.5000   9.0000  14.0000 Du        
   9995 ****        -0.5000   9.0000  14.2500 Du        
   9996 ****        -0.5000   9.0000  14.7500 Du        
   9997 ****        -0.5000   9.0000  15.0000 Du        
   9998 ****        -0.5000   9.0000  15.2500 Du        
   9999 ****        -0.5000   9.0000  15.5000 Du        
  10000 ****        -0.5000   9.0000  15.7500 Du        
  10001 ****        -0.5000   9.0000  16.0000 Du        
  10002 ****        -0.5000   9.0000  16.2500 Du        
  10003 ****        -0.5000   9.0000  16.5000 Du        
  10004 ****        -0.5000   9.0000  16.7500 Du        
  10005 ****        -0.5000   9.2500  11.7500 Du        
  10006 ****        -0.5000   9.2500  12.0000 Du        
  10007 ****        -0.5000   9.2500  12.2500 Du        
  10008 ****        -0.5000   9.2500  12.5000 Du        
  10009 ****        -0.5000   9.2500  12.7500 Du        
  10010 ****        -0.5000   9.2500  13.0000 Du        
  10011 ****        -0.5000   9.2500  13.2500 Du        
  10012 ****        -0.5000   9.2500  13.5000 Du        
  10013 ****        -0.5000   9.2500  13.7500 Du        
  10014 ****        -0.5000   9.2500  14.0000 Du        
  10015 ****        -0.5000   9.2500  16.5000 Du        
  10016 ****        -0.5000   9.5000  11.7500 Du        
  10017 ****        -0.5000   9.5000  12.0000 Du        
  10018 ****        -0.5000   9.5000  12.2500 Du        
  10019 ****        -0.5000   9.5000  12.5000 Du        
  10020 ****        -0.5000   9.5000  12.7500 Du        
  10021 ****        -0.5000   9.5000  13.0000 Du        
  10022 ****        -0.5000   9.5000  13.2500 Du        
  10023 ****        -0.5000   9.5000  13.5000 Du        
  10024 ****        -0.5000   9.5000  13.7500 Du        
  10025 ****        -0.5000   9.7500  12.0000 Du        
  10026 ****        -0.5000   9.7500  12.2500 Du        
  10027 ****        -0.5000   9.7500  12.5000 Du        
  10028 ****        -0.5000   9.7500  12.7500 Du        
  10029 ****        -0.5000   9.7500  13.0000 Du        
  10030 ****        -0.5000   9.7500  13.2500 Du        
  10031 ****        -0.5000   9.7500  13.5000 Du        
  10032 ****        -0.5000  10.0000  12.0000 Du        
  10033 ****        -0.5000  10.0000  12.2500 Du        
  10034 ****        -0.5000  10.0000  12.5000 Du        
  10035 ****        -0.5000  10.0000  12.7500 Du        
  10036 ****        -0.5000  10.0000  13.0000 Du        
  10037 ****        -0.5000  10.0000  13.2500 Du        
  10038 ****        -0.5000  10.2500  12.0000 Du        
  10039 ****        -0.5000  10.2500  12.2500 Du        
  10040 ****        -0.5000  10.2500  12.5000 Du        
  10041 ****        -0.5000  10.2500  12.7500 Du        
  10042 ****        -0.5000  10.2500  13.0000 Du        
  10043 ****        -0.5000  10.2500  13.2500 Du        
  10044 ****        -0.5000  10.5000  12.2500 Du        
  10045 ****        -0.5000  10.5000  12.5000 Du        
  10046 ****        -0.5000  10.5000  12.7500 Du        
  10047 ****        -0.5000  10.5000  13.0000 Du        
  10048 ****        -0.5000  10.5000  13.2500 Du        
  10049 ****        -0.5000  10.7500  12.2500 Du        
  10050 ****        -0.5000  10.7500  12.5000 Du        
  10051 ****        -0.5000  10.7500  12.7500 Du        
  10052 ****        -0.5000  10.7500  13.0000 Du        
  10053 ****        -0.5000  10.7500  13.2500 Du        
  10054 ****        -0.5000  11.0000  12.5000 Du        
  10055 ****        -0.5000  11.0000  12.7500 Du        
  10056 ****        -0.5000  11.0000  13.0000 Du        
  10057 ****        -0.5000  11.0000  13.2500 Du        
  10058 ****        -0.5000  11.2500  12.5000 Du        
  10059 ****        -0.5000  11.2500  12.7500 Du        
  10060 ****        -0.5000  11.2500  13.0000 Du        
  10061 ****        -0.2500  -9.0000  11.2500 Du        
  10062 ****        -0.2500  -9.0000  11.5000 Du        
  10063 ****        -0.2500  -9.0000  11.7500 Du        
  10064 ****        -0.2500  -9.0000  12.0000 Du        
  10065 ****        -0.2500  -9.0000  12.2500 Du        
  10066 ****        -0.2500  -9.0000  12.5000 Du        
  10067 ****        -0.2500  -9.0000  12.7500 Du        
  10068 ****        -0.2500  -8.7500  11.2500 Du        
  10069 ****        -0.2500  -8.7500  11.5000 Du        
  10070 ****        -0.2500  -8.7500  11.7500 Du        
  10071 ****        -0.2500  -8.7500  12.0000 Du        
  10072 ****        -0.2500  -8.7500  12.2500 Du        
  10073 ****        -0.2500  -8.7500  12.5000 Du        
  10074 ****        -0.2500  -8.7500  12.7500 Du        
  10075 ****        -0.2500  -8.5000  11.5000 Du        
  10076 ****        -0.2500  -8.5000  11.7500 Du        
  10077 ****        -0.2500  -8.5000  12.0000 Du        
  10078 ****        -0.2500  -8.5000  12.2500 Du        
  10079 ****        -0.2500  -8.5000  12.5000 Du        
  10080 ****        -0.2500  -8.5000  12.7500 Du        
  10081 ****        -0.2500  -8.5000  13.0000 Du        
  10082 ****        -0.2500  -8.2500  11.5000 Du        
  10083 ****        -0.2500  -8.2500  11.7500 Du        
  10084 ****        -0.2500  -8.2500  12.0000 Du        
  10085 ****        -0.2500  -8.2500  12.2500 Du        
  10086 ****        -0.2500  -8.2500  12.5000 Du        
  10087 ****        -0.2500  -8.2500  12.7500 Du        
  10088 ****        -0.2500  -8.2500  13.0000 Du        
  10089 ****        -0.2500  -8.0000  11.7500 Du        
  10090 ****        -0.2500  -8.0000  12.0000 Du        
  10091 ****        -0.2500  -8.0000  12.2500 Du        
  10092 ****        -0.2500  -8.0000  12.5000 Du        
  10093 ****        -0.2500  -8.0000  12.7500 Du        
  10094 ****        -0.2500  -8.0000  13.0000 Du        
  10095 ****        -0.2500  -7.7500  11.7500 Du        
  10096 ****        -0.2500  -7.7500  12.0000 Du        
  10097 ****        -0.2500  -7.7500  12.2500 Du        
  10098 ****        -0.2500  -7.7500  12.5000 Du        
  10099 ****        -0.2500  -7.7500  12.7500 Du        
  10100 ****        -0.2500  -7.7500  13.0000 Du        
  10101 ****        -0.2500  -7.5000  12.0000 Du        
  10102 ****        -0.2500  -7.5000  12.2500 Du        
  10103 ****        -0.2500  -7.5000  12.5000 Du        
  10104 ****        -0.2500  -1.5000  25.5000 Du        
  10105 ****        -0.2500  -1.5000  25.7500 Du        
  10106 ****        -0.2500  -1.2500  25.5000 Du        
  10107 ****        -0.2500  -1.2500  25.7500 Du        
  10108 ****        -0.2500  -1.2500  26.0000 Du        
  10109 ****        -0.2500  -1.0000  25.7500 Du        
  10110 ****        -0.2500  -1.0000  26.0000 Du        
  10111 ****        -0.2500  -1.0000  26.2500 Du        
  10112 ****        -0.2500  -0.7500  25.7500 Du        
  10113 ****        -0.2500  -0.7500  26.0000 Du        
  10114 ****        -0.2500  -0.7500  26.2500 Du        
  10115 ****        -0.2500  -0.7500  26.5000 Du        
  10116 ****        -0.2500  -0.7500  26.7500 Du        
  10117 ****        -0.2500  -0.5000  26.0000 Du        
  10118 ****        -0.2500  -0.5000  26.2500 Du        
  10119 ****        -0.2500  -0.5000  26.5000 Du        
  10120 ****        -0.2500  -0.5000  26.7500 Du        
  10121 ****        -0.2500  -0.5000  27.0000 Du        
  10122 ****        -0.2500  -0.5000  27.2500 Du        
  10123 ****        -0.2500  -0.2500  26.0000 Du        
  10124 ****        -0.2500  -0.2500  26.2500 Du        
  10125 ****        -0.2500  -0.2500  26.5000 Du        
  10126 ****        -0.2500  -0.2500  26.7500 Du        
  10127 ****        -0.2500  -0.2500  27.0000 Du        
  10128 ****        -0.2500  -0.2500  27.2500 Du        
  10129 ****        -0.2500  -0.2500  27.5000 Du        
  10130 ****        -0.2500  -0.2500  27.7500 Du        
  10131 ****        -0.2500  -0.2500  28.0000 Du        
  10132 ****        -0.2500   0.0000  26.0000 Du        
  10133 ****        -0.2500   0.0000  26.2500 Du        
  10134 ****        -0.2500   0.0000  26.5000 Du        
  10135 ****        -0.2500   0.0000  26.7500 Du        
  10136 ****        -0.2500   0.0000  27.0000 Du        
  10137 ****        -0.2500   0.0000  27.2500 Du        
  10138 ****        -0.2500   0.0000  27.5000 Du        
  10139 ****        -0.2500   0.0000  27.7500 Du        
  10140 ****        -0.2500   0.0000  28.0000 Du        
  10141 ****        -0.2500   0.2500  26.2500 Du        
  10142 ****        -0.2500   0.2500  26.5000 Du        
  10143 ****        -0.2500   0.2500  26.7500 Du        
  10144 ****        -0.2500   0.2500  27.0000 Du        
  10145 ****        -0.2500   0.2500  27.2500 Du        
  10146 ****        -0.2500   0.2500  27.5000 Du        
  10147 ****        -0.2500   0.2500  27.7500 Du        
  10148 ****        -0.2500   0.2500  28.0000 Du        
  10149 ****        -0.2500   0.5000  26.5000 Du        
  10150 ****        -0.2500   0.5000  26.7500 Du        
  10151 ****        -0.2500   0.5000  27.0000 Du        
  10152 ****        -0.2500   0.5000  27.2500 Du        
  10153 ****        -0.2500   0.7500  26.5000 Du        
  10154 ****        -0.2500   0.7500  26.7500 Du        
  10155 ****        -0.2500   0.7500  27.0000 Du        
  10156 ****        -0.2500   0.7500  27.2500 Du        
  10157 ****        -0.2500   1.0000  26.7500 Du        
  10158 ****        -0.2500   2.7500  15.0000 Du        
  10159 ****        -0.2500   2.7500  15.2500 Du        
  10160 ****        -0.2500   3.0000  14.7500 Du        
  10161 ****        -0.2500   3.0000  15.0000 Du        
  10162 ****        -0.2500   3.0000  15.2500 Du        
  10163 ****        -0.2500   3.2500  14.5000 Du        
  10164 ****        -0.2500   3.2500  14.7500 Du        
  10165 ****        -0.2500   3.2500  15.0000 Du        
  10166 ****        -0.2500   3.5000  14.2500 Du        
  10167 ****        -0.2500   3.5000  14.5000 Du        
  10168 ****        -0.2500   3.5000  14.7500 Du        
  10169 ****        -0.2500   3.7500  13.7500 Du        
  10170 ****        -0.2500   3.7500  14.0000 Du        
  10171 ****        -0.2500   3.7500  14.2500 Du        
  10172 ****        -0.2500   3.7500  14.5000 Du        
  10173 ****        -0.2500   4.0000  12.7500 Du        
  10174 ****        -0.2500   4.0000  13.0000 Du        
  10175 ****        -0.2500   4.0000  13.2500 Du        
  10176 ****        -0.2500   4.0000  13.5000 Du        
  10177 ****        -0.2500   4.0000  13.7500 Du        
  10178 ****        -0.2500   4.0000  14.0000 Du        
  10179 ****        -0.2500   4.0000  14.2500 Du        
  10180 ****        -0.2500   4.2500  12.7500 Du        
  10181 ****        -0.2500   4.2500  13.0000 Du        
  10182 ****        -0.2500   4.2500  13.2500 Du        
  10183 ****        -0.2500   4.2500  13.5000 Du        
  10184 ****        -0.2500   4.2500  13.7500 Du        
  10185 ****        -0.2500   4.2500  14.0000 Du        
  10186 ****        -0.2500   4.2500  14.2500 Du        
  10187 ****        -0.2500   4.5000  12.7500 Du        
  10188 ****        -0.2500   4.5000  13.0000 Du        
  10189 ****        -0.2500   4.5000  13.2500 Du        
  10190 ****        -0.2500   4.5000  13.5000 Du        
  10191 ****        -0.2500   4.5000  13.7500 Du        
  10192 ****        -0.2500   4.5000  14.0000 Du        
  10193 ****        -0.2500   4.7500  13.0000 Du        
  10194 ****        -0.2500   4.7500  13.2500 Du        
  10195 ****        -0.2500   4.7500  13.5000 Du        
  10196 ****        -0.2500   4.7500  13.7500 Du        
  10197 ****        -0.2500   4.7500  14.0000 Du        
  10198 ****        -0.2500   5.0000  13.2500 Du        
  10199 ****        -0.2500   5.0000  13.5000 Du        
  10200 ****        -0.2500   5.0000  13.7500 Du        
  10201 ****        -0.2500   6.7500  13.2500 Du        
  10202 ****        -0.2500   7.0000  13.0000 Du        
  10203 ****        -0.2500   7.0000  13.2500 Du        
  10204 ****        -0.2500   7.2500  12.2500 Du        
  10205 ****        -0.2500   7.2500  12.7500 Du        
  10206 ****        -0.2500   7.2500  13.0000 Du        
  10207 ****        -0.2500   7.2500  13.2500 Du        
  10208 ****        -0.2500   7.5000  11.7500 Du        
  10209 ****        -0.2500   7.5000  12.0000 Du        
  10210 ****        -0.2500   7.5000  12.2500 Du        
  10211 ****        -0.2500   7.5000  12.5000 Du        
  10212 ****        -0.2500   7.5000  12.7500 Du        
  10213 ****        -0.2500   7.5000  13.0000 Du        
  10214 ****        -0.2500   7.5000  13.2500 Du        
  10215 ****        -0.2500   7.5000  14.0000 Du        
  10216 ****        -0.2500   7.5000  14.2500 Du        
  10217 ****        -0.2500   7.7500  11.7500 Du        
  10218 ****        -0.2500   7.7500  12.0000 Du        
  10219 ****        -0.2500   7.7500  12.2500 Du        
  10220 ****        -0.2500   7.7500  12.5000 Du        
  10221 ****        -0.2500   7.7500  12.7500 Du        
  10222 ****        -0.2500   7.7500  13.0000 Du        
  10223 ****        -0.2500   7.7500  13.2500 Du        
  10224 ****        -0.2500   7.7500  13.7500 Du        
  10225 ****        -0.2500   7.7500  14.0000 Du        
  10226 ****        -0.2500   7.7500  14.2500 Du        
  10227 ****        -0.2500   7.7500  14.5000 Du        
  10228 ****        -0.2500   7.7500  14.7500 Du        
  10229 ****        -0.2500   7.7500  15.0000 Du        
  10230 ****        -0.2500   7.7500  15.2500 Du        
  10231 ****        -0.2500   7.7500  15.5000 Du        
  10232 ****        -0.2500   7.7500  15.7500 Du        
  10233 ****        -0.2500   7.7500  16.0000 Du        
  10234 ****        -0.2500   8.0000  11.5000 Du        
  10235 ****        -0.2500   8.0000  11.7500 Du        
  10236 ****        -0.2500   8.0000  12.0000 Du        
  10237 ****        -0.2500   8.0000  12.2500 Du        
  10238 ****        -0.2500   8.0000  12.5000 Du        
  10239 ****        -0.2500   8.0000  12.7500 Du        
  10240 ****        -0.2500   8.0000  13.0000 Du        
  10241 ****        -0.2500   8.0000  13.2500 Du        
  10242 ****        -0.2500   8.0000  13.5000 Du        
  10243 ****        -0.2500   8.0000  13.7500 Du        
  10244 ****        -0.2500   8.0000  14.0000 Du        
  10245 ****        -0.2500   8.0000  14.2500 Du        
  10246 ****        -0.2500   8.0000  14.5000 Du        
  10247 ****        -0.2500   8.0000  14.7500 Du        
  10248 ****        -0.2500   8.0000  15.0000 Du        
  10249 ****        -0.2500   8.0000  15.2500 Du        
  10250 ****        -0.2500   8.0000  15.5000 Du        
  10251 ****        -0.2500   8.0000  15.7500 Du        
  10252 ****        -0.2500   8.0000  16.0000 Du        
  10253 ****        -0.2500   8.0000  16.2500 Du        
  10254 ****        -0.2500   8.0000  16.5000 Du        
  10255 ****        -0.2500   8.2500  11.5000 Du        
  10256 ****        -0.2500   8.2500  11.7500 Du        
  10257 ****        -0.2500   8.2500  12.0000 Du        
  10258 ****        -0.2500   8.2500  12.2500 Du        
  10259 ****        -0.2500   8.2500  12.5000 Du        
  10260 ****        -0.2500   8.2500  12.7500 Du        
  10261 ****        -0.2500   8.2500  13.0000 Du        
  10262 ****        -0.2500   8.2500  13.2500 Du        
  10263 ****        -0.2500   8.2500  13.7500 Du        
  10264 ****        -0.2500   8.2500  14.0000 Du        
  10265 ****        -0.2500   8.2500  14.2500 Du        
  10266 ****        -0.2500   8.2500  14.5000 Du        
  10267 ****        -0.2500   8.2500  14.7500 Du        
  10268 ****        -0.2500   8.2500  15.0000 Du        
  10269 ****        -0.2500   8.2500  15.2500 Du        
  10270 ****        -0.2500   8.2500  15.5000 Du        
  10271 ****        -0.2500   8.2500  15.7500 Du        
  10272 ****        -0.2500   8.2500  16.0000 Du        
  10273 ****        -0.2500   8.2500  16.2500 Du        
  10274 ****        -0.2500   8.2500  16.5000 Du        
  10275 ****        -0.2500   8.2500  16.7500 Du        
  10276 ****        -0.2500   8.5000  11.5000 Du        
  10277 ****        -0.2500   8.5000  11.7500 Du        
  10278 ****        -0.2500   8.5000  12.0000 Du        
  10279 ****        -0.2500   8.5000  12.2500 Du        
  10280 ****        -0.2500   8.5000  12.5000 Du        
  10281 ****        -0.2500   8.5000  12.7500 Du        
  10282 ****        -0.2500   8.5000  13.0000 Du        
  10283 ****        -0.2500   8.5000  13.2500 Du        
  10284 ****        -0.2500   8.5000  13.7500 Du        
  10285 ****        -0.2500   8.5000  14.0000 Du        
  10286 ****        -0.2500   8.5000  14.7500 Du        
  10287 ****        -0.2500   8.5000  15.0000 Du        
  10288 ****        -0.2500   8.5000  15.2500 Du        
  10289 ****        -0.2500   8.5000  15.5000 Du        
  10290 ****        -0.2500   8.5000  15.7500 Du        
  10291 ****        -0.2500   8.5000  16.0000 Du        
  10292 ****        -0.2500   8.5000  16.2500 Du        
  10293 ****        -0.2500   8.5000  16.5000 Du        
  10294 ****        -0.2500   8.5000  16.7500 Du        
  10295 ****        -0.2500   8.7500  11.5000 Du        
  10296 ****        -0.2500   8.7500  11.7500 Du        
  10297 ****        -0.2500   8.7500  12.0000 Du        
  10298 ****        -0.2500   8.7500  12.2500 Du        
  10299 ****        -0.2500   8.7500  12.5000 Du        
  10300 ****        -0.2500   8.7500  12.7500 Du        
  10301 ****        -0.2500   8.7500  13.0000 Du        
  10302 ****        -0.2500   8.7500  13.2500 Du        
  10303 ****        -0.2500   8.7500  13.5000 Du        
  10304 ****        -0.2500   8.7500  13.7500 Du        
  10305 ****        -0.2500   8.7500  14.0000 Du        
  10306 ****        -0.2500   8.7500  14.7500 Du        
  10307 ****        -0.2500   8.7500  15.0000 Du        
  10308 ****        -0.2500   8.7500  15.2500 Du        
  10309 ****        -0.2500   8.7500  15.5000 Du        
  10310 ****        -0.2500   8.7500  15.7500 Du        
  10311 ****        -0.2500   8.7500  16.0000 Du        
  10312 ****        -0.2500   8.7500  16.2500 Du        
  10313 ****        -0.2500   8.7500  16.5000 Du        
  10314 ****        -0.2500   8.7500  16.7500 Du        
  10315 ****        -0.2500   9.0000  11.7500 Du        
  10316 ****        -0.2500   9.0000  12.0000 Du        
  10317 ****        -0.2500   9.0000  12.2500 Du        
  10318 ****        -0.2500   9.0000  12.5000 Du        
  10319 ****        -0.2500   9.0000  12.7500 Du        
  10320 ****        -0.2500   9.0000  13.0000 Du        
  10321 ****        -0.2500   9.0000  13.2500 Du        
  10322 ****        -0.2500   9.0000  13.5000 Du        
  10323 ****        -0.2500   9.0000  13.7500 Du        
  10324 ****        -0.2500   9.0000  14.0000 Du        
  10325 ****        -0.2500   9.0000  14.7500 Du        
  10326 ****        -0.2500   9.0000  15.0000 Du        
  10327 ****        -0.2500   9.0000  15.2500 Du        
  10328 ****        -0.2500   9.0000  15.5000 Du        
  10329 ****        -0.2500   9.0000  15.7500 Du        
  10330 ****        -0.2500   9.0000  16.0000 Du        
  10331 ****        -0.2500   9.0000  16.2500 Du        
  10332 ****        -0.2500   9.0000  16.5000 Du        
  10333 ****        -0.2500   9.0000  16.7500 Du        
  10334 ****        -0.2500   9.2500  11.7500 Du        
  10335 ****        -0.2500   9.2500  12.0000 Du        
  10336 ****        -0.2500   9.2500  12.2500 Du        
  10337 ****        -0.2500   9.2500  12.5000 Du        
  10338 ****        -0.2500   9.2500  12.7500 Du        
  10339 ****        -0.2500   9.2500  13.0000 Du        
  10340 ****        -0.2500   9.2500  13.2500 Du        
  10341 ****        -0.2500   9.2500  14.0000 Du        
  10342 ****        -0.2500   9.2500  15.7500 Du        
  10343 ****        -0.2500   9.2500  16.0000 Du        
  10344 ****        -0.2500   9.2500  16.2500 Du        
  10345 ****        -0.2500   9.2500  16.5000 Du        
  10346 ****        -0.2500   9.2500  16.7500 Du        
  10347 ****        -0.2500   9.5000  12.0000 Du        
  10348 ****        -0.2500   9.5000  12.2500 Du        
  10349 ****        -0.2500   9.5000  12.5000 Du        
  10350 ****        -0.2500   9.5000  12.7500 Du        
  10351 ****        -0.2500   9.5000  13.0000 Du        
  10352 ****        -0.2500   9.5000  13.2500 Du        
  10353 ****        -0.2500   9.5000  13.7500 Du        
  10354 ****        -0.2500   9.7500  12.0000 Du        
  10355 ****        -0.2500   9.7500  12.2500 Du        
  10356 ****        -0.2500   9.7500  12.5000 Du        
  10357 ****        -0.2500   9.7500  12.7500 Du        
  10358 ****        -0.2500   9.7500  13.0000 Du        
  10359 ****        -0.2500   9.7500  13.2500 Du        
  10360 ****        -0.2500   9.7500  13.5000 Du        
  10361 ****        -0.2500  10.0000  12.0000 Du        
  10362 ****        -0.2500  10.0000  12.2500 Du        
  10363 ****        -0.2500  10.0000  12.5000 Du        
  10364 ****        -0.2500  10.0000  12.7500 Du        
  10365 ****        -0.2500  10.0000  13.0000 Du        
  10366 ****        -0.2500  10.0000  13.2500 Du        
  10367 ****        -0.2500  10.2500  12.2500 Du        
  10368 ****        -0.2500  10.2500  12.5000 Du        
  10369 ****        -0.2500  10.2500  12.7500 Du        
  10370 ****        -0.2500  10.2500  13.0000 Du        
  10371 ****        -0.2500  10.2500  13.2500 Du        
  10372 ****        -0.2500  10.5000  12.2500 Du        
  10373 ****        -0.2500  10.5000  12.5000 Du        
  10374 ****        -0.2500  10.5000  12.7500 Du        
  10375 ****        -0.2500  10.5000  13.0000 Du        
  10376 ****        -0.2500  10.5000  13.2500 Du        
  10377 ****        -0.2500  10.7500  12.5000 Du        
  10378 ****        -0.2500  10.7500  12.7500 Du        
  10379 ****        -0.2500  10.7500  13.0000 Du        
  10380 ****        -0.2500  10.7500  13.2500 Du        
  10381 ****        -0.2500  11.0000  12.5000 Du        
  10382 ****        -0.2500  11.0000  12.7500 Du        
  10383 ****        -0.2500  11.0000  13.0000 Du        
  10384 ****        -0.2500  11.0000  13.2500 Du        
  10385 ****        -0.2500  11.2500  12.5000 Du        
  10386 ****        -0.2500  11.2500  12.7500 Du        
  10387 ****        -0.2500  11.2500  13.0000 Du        
  10388 ****        -0.2500  11.2500  13.2500 Du        
  10389 ****        -0.2500  11.5000  12.7500 Du        
  10390 ****        -0.2500  11.5000  13.0000 Du        
  10391 ****        -0.2500  11.7500  13.0000 Du        
  10392 ****        -0.2500  12.0000  13.0000 Du        
  10393 ****         0.0000  -9.0000  11.5000 Du        
  10394 ****         0.0000  -9.0000  11.7500 Du        
  10395 ****         0.0000  -9.0000  12.0000 Du        
  10396 ****         0.0000  -9.0000  12.2500 Du        
  10397 ****         0.0000  -9.0000  12.5000 Du        
  10398 ****         0.0000  -8.7500  11.7500 Du        
  10399 ****         0.0000  -8.7500  12.0000 Du        
  10400 ****         0.0000  -8.7500  12.2500 Du        
  10401 ****         0.0000  -8.7500  12.5000 Du        
  10402 ****         0.0000  -8.7500  12.7500 Du        
  10403 ****         0.0000  -8.5000  12.0000 Du        
  10404 ****         0.0000  -8.5000  12.2500 Du        
  10405 ****         0.0000  -8.5000  12.5000 Du        
  10406 ****         0.0000  -8.5000  12.7500 Du        
  10407 ****         0.0000  -8.2500  12.0000 Du        
  10408 ****         0.0000  -8.2500  12.2500 Du        
  10409 ****         0.0000  -8.2500  12.5000 Du        
  10410 ****         0.0000  -8.2500  12.7500 Du        
  10411 ****         0.0000  -8.0000  12.0000 Du        
  10412 ****         0.0000  -8.0000  12.2500 Du        
  10413 ****         0.0000  -8.0000  12.5000 Du        
  10414 ****         0.0000  -8.0000  12.7500 Du        
  10415 ****         0.0000  -1.7500  25.5000 Du        
  10416 ****         0.0000  -1.5000  25.5000 Du        
  10417 ****         0.0000  -1.5000  25.7500 Du        
  10418 ****         0.0000  -1.2500  25.5000 Du        
  10419 ****         0.0000  -1.2500  25.7500 Du        
  10420 ****         0.0000  -1.2500  26.0000 Du        
  10421 ****         0.0000  -1.0000  25.7500 Du        
  10422 ****         0.0000  -1.0000  26.0000 Du        
  10423 ****         0.0000  -1.0000  26.2500 Du        
  10424 ****         0.0000  -1.0000  26.5000 Du        
  10425 ****         0.0000  -0.7500  25.7500 Du        
  10426 ****         0.0000  -0.7500  26.0000 Du        
  10427 ****         0.0000  -0.7500  26.2500 Du        
  10428 ****         0.0000  -0.7500  26.5000 Du        
  10429 ****         0.0000  -0.7500  26.7500 Du        
  10430 ****         0.0000  -0.7500  27.0000 Du        
  10431 ****         0.0000  -0.5000  26.0000 Du        
  10432 ****         0.0000  -0.5000  26.2500 Du        
  10433 ****         0.0000  -0.5000  26.5000 Du        
  10434 ****         0.0000  -0.5000  26.7500 Du        
  10435 ****         0.0000  -0.5000  27.0000 Du        
  10436 ****         0.0000  -0.5000  27.2500 Du        
  10437 ****         0.0000  -0.5000  27.5000 Du        
  10438 ****         0.0000  -0.2500  26.0000 Du        
  10439 ****         0.0000  -0.2500  26.2500 Du        
  10440 ****         0.0000  -0.2500  26.5000 Du        
  10441 ****         0.0000  -0.2500  26.7500 Du        
  10442 ****         0.0000  -0.2500  27.0000 Du        
  10443 ****         0.0000  -0.2500  27.2500 Du        
  10444 ****         0.0000  -0.2500  27.5000 Du        
  10445 ****         0.0000  -0.2500  27.7500 Du        
  10446 ****         0.0000  -0.2500  28.0000 Du        
  10447 ****         0.0000  -0.2500  28.2500 Du        
  10448 ****         0.0000   0.0000  26.0000 Du        
  10449 ****         0.0000   0.0000  26.2500 Du        
  10450 ****         0.0000   0.0000  26.5000 Du        
  10451 ****         0.0000   0.0000  26.7500 Du        
  10452 ****         0.0000   0.0000  27.0000 Du        
  10453 ****         0.0000   0.0000  27.2500 Du        
  10454 ****         0.0000   0.0000  27.5000 Du        
  10455 ****         0.0000   0.0000  27.7500 Du        
  10456 ****         0.0000   0.0000  28.0000 Du        
  10457 ****         0.0000   0.0000  28.2500 Du        
  10458 ****         0.0000   0.2500  26.2500 Du        
  10459 ****         0.0000   0.2500  26.5000 Du        
  10460 ****         0.0000   0.2500  26.7500 Du        
  10461 ****         0.0000   0.2500  27.0000 Du        
  10462 ****         0.0000   0.2500  27.2500 Du        
  10463 ****         0.0000   0.2500  27.5000 Du        
  10464 ****         0.0000   0.2500  27.7500 Du        
  10465 ****         0.0000   0.2500  28.0000 Du        
  10466 ****         0.0000   0.5000  26.2500 Du        
  10467 ****         0.0000   0.5000  26.5000 Du        
  10468 ****         0.0000   0.5000  26.7500 Du        
  10469 ****         0.0000   0.5000  27.0000 Du        
  10470 ****         0.0000   0.5000  27.2500 Du        
  10471 ****         0.0000   0.5000  27.5000 Du        
  10472 ****         0.0000   0.5000  27.7500 Du        
  10473 ****         0.0000   0.7500  26.2500 Du        
  10474 ****         0.0000   0.7500  26.5000 Du        
  10475 ****         0.0000   0.7500  26.7500 Du        
  10476 ****         0.0000   0.7500  27.0000 Du        
  10477 ****         0.0000   0.7500  27.2500 Du        
  10478 ****         0.0000   0.7500  27.5000 Du        
  10479 ****         0.0000   1.0000  26.5000 Du        
  10480 ****         0.0000   1.0000  26.7500 Du        
  10481 ****         0.0000   1.0000  27.0000 Du        
  10482 ****         0.0000   1.0000  27.2500 Du        
  10483 ****         0.0000   1.2500  26.5000 Du        
  10484 ****         0.0000   1.2500  26.7500 Du        
  10485 ****         0.0000   1.2500  27.0000 Du        
  10486 ****         0.0000   1.2500  27.2500 Du        
  10487 ****         0.0000   2.7500  14.7500 Du        
  10488 ****         0.0000   2.7500  15.0000 Du        
  10489 ****         0.0000   3.0000  14.5000 Du        
  10490 ****         0.0000   3.0000  14.7500 Du        
  10491 ****         0.0000   3.0000  15.0000 Du        
  10492 ****         0.0000   3.2500  14.0000 Du        
  10493 ****         0.0000   3.2500  14.2500 Du        
  10494 ****         0.0000   3.2500  14.5000 Du        
  10495 ****         0.0000   3.2500  14.7500 Du        
  10496 ****         0.0000   3.5000  13.7500 Du        
  10497 ****         0.0000   3.5000  14.0000 Du        
  10498 ****         0.0000   3.5000  14.2500 Du        
  10499 ****         0.0000   3.5000  14.5000 Du        
  10500 ****         0.0000   3.7500  13.0000 Du        
  10501 ****         0.0000   3.7500  13.2500 Du        
  10502 ****         0.0000   3.7500  13.5000 Du        
  10503 ****         0.0000   3.7500  13.7500 Du        
  10504 ****         0.0000   3.7500  14.0000 Du        
  10505 ****         0.0000   3.7500  14.2500 Du        
  10506 ****         0.0000   4.0000  12.7500 Du        
  10507 ****         0.0000   4.0000  13.0000 Du        
  10508 ****         0.0000   4.0000  13.2500 Du        
  10509 ****         0.0000   4.0000  13.5000 Du        
  10510 ****         0.0000   4.0000  13.7500 Du        
  10511 ****         0.0000   4.0000  14.0000 Du        
  10512 ****         0.0000   4.0000  14.2500 Du        
  10513 ****         0.0000   4.2500  12.5000 Du        
  10514 ****         0.0000   4.2500  12.7500 Du        
  10515 ****         0.0000   4.2500  13.0000 Du        
  10516 ****         0.0000   4.2500  13.2500 Du        
  10517 ****         0.0000   4.2500  13.5000 Du        
  10518 ****         0.0000   4.2500  13.7500 Du        
  10519 ****         0.0000   4.2500  14.0000 Du        
  10520 ****         0.0000   4.5000  12.5000 Du        
  10521 ****         0.0000   4.5000  12.7500 Du        
  10522 ****         0.0000   4.5000  13.0000 Du        
  10523 ****         0.0000   4.5000  13.2500 Du        
  10524 ****         0.0000   4.5000  13.5000 Du        
  10525 ****         0.0000   4.5000  13.7500 Du        
  10526 ****         0.0000   4.7500  12.5000 Du        
  10527 ****         0.0000   4.7500  12.7500 Du        
  10528 ****         0.0000   4.7500  13.0000 Du        
  10529 ****         0.0000   4.7500  13.2500 Du        
  10530 ****         0.0000   4.7500  13.5000 Du        
  10531 ****         0.0000   4.7500  13.7500 Du        
  10532 ****         0.0000   5.0000  12.5000 Du        
  10533 ****         0.0000   5.0000  12.7500 Du        
  10534 ****         0.0000   5.0000  13.0000 Du        
  10535 ****         0.0000   5.0000  13.2500 Du        
  10536 ****         0.0000   5.0000  13.5000 Du        
  10537 ****         0.0000   5.0000  13.7500 Du        
  10538 ****         0.0000   5.2500  12.7500 Du        
  10539 ****         0.0000   5.2500  13.0000 Du        
  10540 ****         0.0000   5.2500  13.2500 Du        
  10541 ****         0.0000   5.2500  13.5000 Du        
  10542 ****         0.0000   5.2500  13.7500 Du        
  10543 ****         0.0000   5.5000  12.7500 Du        
  10544 ****         0.0000   5.5000  13.0000 Du        
  10545 ****         0.0000   5.5000  13.2500 Du        
  10546 ****         0.0000   5.5000  13.5000 Du        
  10547 ****         0.0000   5.7500  12.7500 Du        
  10548 ****         0.0000   5.7500  13.0000 Du        
  10549 ****         0.0000   5.7500  13.2500 Du        
  10550 ****         0.0000   5.7500  13.5000 Du        
  10551 ****         0.0000   6.0000  12.7500 Du        
  10552 ****         0.0000   6.0000  13.0000 Du        
  10553 ****         0.0000   6.0000  13.2500 Du        
  10554 ****         0.0000   6.0000  13.5000 Du        
  10555 ****         0.0000   6.2500  12.7500 Du        
  10556 ****         0.0000   6.2500  13.0000 Du        
  10557 ****         0.0000   6.2500  13.2500 Du        
  10558 ****         0.0000   6.2500  13.5000 Du        
  10559 ****         0.0000   6.5000  12.5000 Du        
  10560 ****         0.0000   6.5000  12.7500 Du        
  10561 ****         0.0000   6.5000  13.0000 Du        
  10562 ****         0.0000   6.5000  13.2500 Du        
  10563 ****         0.0000   6.7500  12.2500 Du        
  10564 ****         0.0000   6.7500  12.5000 Du        
  10565 ****         0.0000   6.7500  12.7500 Du        
  10566 ****         0.0000   6.7500  13.0000 Du        
  10567 ****         0.0000   6.7500  13.2500 Du        
  10568 ****         0.0000   7.0000  12.0000 Du        
  10569 ****         0.0000   7.0000  12.2500 Du        
  10570 ****         0.0000   7.0000  12.5000 Du        
  10571 ****         0.0000   7.0000  12.7500 Du        
  10572 ****         0.0000   7.0000  13.0000 Du        
  10573 ****         0.0000   7.0000  13.2500 Du        
  10574 ****         0.0000   7.2500  11.7500 Du        
  10575 ****         0.0000   7.2500  12.0000 Du        
  10576 ****         0.0000   7.2500  12.2500 Du        
  10577 ****         0.0000   7.2500  12.5000 Du        
  10578 ****         0.0000   7.2500  12.7500 Du        
  10579 ****         0.0000   7.2500  13.0000 Du        
  10580 ****         0.0000   7.2500  13.2500 Du        
  10581 ****         0.0000   7.5000  11.7500 Du        
  10582 ****         0.0000   7.5000  12.0000 Du        
  10583 ****         0.0000   7.5000  12.2500 Du        
  10584 ****         0.0000   7.5000  12.5000 Du        
  10585 ****         0.0000   7.5000  12.7500 Du        
  10586 ****         0.0000   7.5000  13.0000 Du        
  10587 ****         0.0000   7.5000  13.2500 Du        
  10588 ****         0.0000   7.7500  11.5000 Du        
  10589 ****         0.0000   7.7500  11.7500 Du        
  10590 ****         0.0000   7.7500  12.0000 Du        
  10591 ****         0.0000   7.7500  12.2500 Du        
  10592 ****         0.0000   7.7500  12.5000 Du        
  10593 ****         0.0000   7.7500  12.7500 Du        
  10594 ****         0.0000   7.7500  13.0000 Du        
  10595 ****         0.0000   7.7500  13.2500 Du        
  10596 ****         0.0000   7.7500  14.0000 Du        
  10597 ****         0.0000   8.0000  11.5000 Du        
  10598 ****         0.0000   8.0000  11.7500 Du        
  10599 ****         0.0000   8.0000  12.0000 Du        
  10600 ****         0.0000   8.0000  12.2500 Du        
  10601 ****         0.0000   8.0000  12.5000 Du        
  10602 ****         0.0000   8.0000  12.7500 Du        
  10603 ****         0.0000   8.0000  13.0000 Du        
  10604 ****         0.0000   8.0000  13.2500 Du        
  10605 ****         0.0000   8.0000  13.7500 Du        
  10606 ****         0.0000   8.0000  14.0000 Du        
  10607 ****         0.0000   8.0000  14.5000 Du        
  10608 ****         0.0000   8.0000  14.7500 Du        
  10609 ****         0.0000   8.0000  15.0000 Du        
  10610 ****         0.0000   8.0000  15.2500 Du        
  10611 ****         0.0000   8.0000  15.5000 Du        
  10612 ****         0.0000   8.0000  15.7500 Du        
  10613 ****         0.0000   8.0000  16.0000 Du        
  10614 ****         0.0000   8.2500  11.5000 Du        
  10615 ****         0.0000   8.2500  11.7500 Du        
  10616 ****         0.0000   8.2500  12.0000 Du        
  10617 ****         0.0000   8.2500  12.2500 Du        
  10618 ****         0.0000   8.2500  12.5000 Du        
  10619 ****         0.0000   8.2500  12.7500 Du        
  10620 ****         0.0000   8.2500  13.0000 Du        
  10621 ****         0.0000   8.2500  13.2500 Du        
  10622 ****         0.0000   8.2500  13.7500 Du        
  10623 ****         0.0000   8.2500  14.0000 Du        
  10624 ****         0.0000   8.2500  14.2500 Du        
  10625 ****         0.0000   8.2500  14.7500 Du        
  10626 ****         0.0000   8.2500  15.0000 Du        
  10627 ****         0.0000   8.2500  15.2500 Du        
  10628 ****         0.0000   8.2500  15.5000 Du        
  10629 ****         0.0000   8.2500  15.7500 Du        
  10630 ****         0.0000   8.2500  16.0000 Du        
  10631 ****         0.0000   8.2500  16.2500 Du        
  10632 ****         0.0000   8.2500  16.5000 Du        
  10633 ****         0.0000   8.5000  11.5000 Du        
  10634 ****         0.0000   8.5000  11.7500 Du        
  10635 ****         0.0000   8.5000  12.0000 Du        
  10636 ****         0.0000   8.5000  12.2500 Du        
  10637 ****         0.0000   8.5000  12.5000 Du        
  10638 ****         0.0000   8.5000  12.7500 Du        
  10639 ****         0.0000   8.5000  13.0000 Du        
  10640 ****         0.0000   8.5000  13.2500 Du        
  10641 ****         0.0000   8.5000  15.0000 Du        
  10642 ****         0.0000   8.5000  15.2500 Du        
  10643 ****         0.0000   8.5000  15.5000 Du        
  10644 ****         0.0000   8.5000  15.7500 Du        
  10645 ****         0.0000   8.5000  16.0000 Du        
  10646 ****         0.0000   8.5000  16.2500 Du        
  10647 ****         0.0000   8.5000  16.5000 Du        
  10648 ****         0.0000   8.7500  11.5000 Du        
  10649 ****         0.0000   8.7500  11.7500 Du        
  10650 ****         0.0000   8.7500  12.0000 Du        
  10651 ****         0.0000   8.7500  12.2500 Du        
  10652 ****         0.0000   8.7500  12.5000 Du        
  10653 ****         0.0000   8.7500  12.7500 Du        
  10654 ****         0.0000   8.7500  13.0000 Du        
  10655 ****         0.0000   8.7500  13.2500 Du        
  10656 ****         0.0000   8.7500  14.0000 Du        
  10657 ****         0.0000   8.7500  14.7500 Du        
  10658 ****         0.0000   8.7500  15.0000 Du        
  10659 ****         0.0000   8.7500  15.2500 Du        
  10660 ****         0.0000   8.7500  15.5000 Du        
  10661 ****         0.0000   8.7500  15.7500 Du        
  10662 ****         0.0000   8.7500  16.0000 Du        
  10663 ****         0.0000   8.7500  16.2500 Du        
  10664 ****         0.0000   8.7500  16.5000 Du        
  10665 ****         0.0000   9.0000  11.7500 Du        
  10666 ****         0.0000   9.0000  12.0000 Du        
  10667 ****         0.0000   9.0000  12.2500 Du        
  10668 ****         0.0000   9.0000  12.5000 Du        
  10669 ****         0.0000   9.0000  12.7500 Du        
  10670 ****         0.0000   9.0000  13.0000 Du        
  10671 ****         0.0000   9.0000  13.2500 Du        
  10672 ****         0.0000   9.0000  14.7500 Du        
  10673 ****         0.0000   9.0000  15.0000 Du        
  10674 ****         0.0000   9.0000  15.2500 Du        
  10675 ****         0.0000   9.0000  15.5000 Du        
  10676 ****         0.0000   9.0000  15.7500 Du        
  10677 ****         0.0000   9.0000  16.0000 Du        
  10678 ****         0.0000   9.0000  16.2500 Du        
  10679 ****         0.0000   9.0000  16.5000 Du        
  10680 ****         0.0000   9.0000  16.7500 Du        
  10681 ****         0.0000   9.2500  11.7500 Du        
  10682 ****         0.0000   9.2500  12.0000 Du        
  10683 ****         0.0000   9.2500  12.2500 Du        
  10684 ****         0.0000   9.2500  12.5000 Du        
  10685 ****         0.0000   9.2500  12.7500 Du        
  10686 ****         0.0000   9.2500  13.0000 Du        
  10687 ****         0.0000   9.2500  13.2500 Du        
  10688 ****         0.0000   9.2500  15.2500 Du        
  10689 ****         0.0000   9.2500  15.5000 Du        
  10690 ****         0.0000   9.2500  15.7500 Du        
  10691 ****         0.0000   9.2500  16.0000 Du        
  10692 ****         0.0000   9.2500  16.2500 Du        
  10693 ****         0.0000   9.2500  16.5000 Du        
  10694 ****         0.0000   9.5000  12.0000 Du        
  10695 ****         0.0000   9.5000  12.2500 Du        
  10696 ****         0.0000   9.5000  12.5000 Du        
  10697 ****         0.0000   9.5000  12.7500 Du        
  10698 ****         0.0000   9.5000  13.0000 Du        
  10699 ****         0.0000   9.5000  13.2500 Du        
  10700 ****         0.0000   9.5000  16.2500 Du        
  10701 ****         0.0000   9.7500  12.0000 Du        
  10702 ****         0.0000   9.7500  12.2500 Du        
  10703 ****         0.0000   9.7500  12.5000 Du        
  10704 ****         0.0000   9.7500  12.7500 Du        
  10705 ****         0.0000   9.7500  13.0000 Du        
  10706 ****         0.0000   9.7500  13.2500 Du        
  10707 ****         0.0000  10.0000  12.2500 Du        
  10708 ****         0.0000  10.0000  12.5000 Du        
  10709 ****         0.0000  10.0000  12.7500 Du        
  10710 ****         0.0000  10.0000  13.0000 Du        
  10711 ****         0.0000  10.0000  13.2500 Du        
  10712 ****         0.0000  10.2500  12.2500 Du        
  10713 ****         0.0000  10.2500  12.5000 Du        
  10714 ****         0.0000  10.2500  12.7500 Du        
  10715 ****         0.0000  10.2500  13.0000 Du        
  10716 ****         0.0000  10.2500  13.2500 Du        
  10717 ****         0.0000  10.5000  12.5000 Du        
  10718 ****         0.0000  10.5000  12.7500 Du        
  10719 ****         0.0000  10.5000  13.0000 Du        
  10720 ****         0.0000  10.5000  13.2500 Du        
  10721 ****         0.0000  10.7500  12.5000 Du        
  10722 ****         0.0000  10.7500  12.7500 Du        
  10723 ****         0.0000  10.7500  13.0000 Du        
  10724 ****         0.0000  10.7500  13.2500 Du        
  10725 ****         0.0000  11.0000  12.5000 Du        
  10726 ****         0.0000  11.0000  12.7500 Du        
  10727 ****         0.0000  11.0000  13.0000 Du        
  10728 ****         0.0000  11.0000  13.2500 Du        
  10729 ****         0.0000  11.2500  12.7500 Du        
  10730 ****         0.0000  11.2500  13.0000 Du        
  10731 ****         0.0000  11.2500  13.2500 Du        
  10732 ****         0.0000  11.5000  12.7500 Du        
  10733 ****         0.0000  11.5000  13.0000 Du        
  10734 ****         0.0000  11.5000  13.2500 Du        
  10735 ****         0.0000  11.7500  13.0000 Du        
  10736 ****         0.0000  12.0000  13.0000 Du        
  10737 ****         0.0000  12.2500  13.0000 Du        
  10738 ****         0.2500  -2.0000  25.2500 Du        
  10739 ****         0.2500  -1.7500  25.2500 Du        
  10740 ****         0.2500  -1.7500  25.5000 Du        
  10741 ****         0.2500  -1.7500  25.7500 Du        
  10742 ****         0.2500  -1.5000  25.5000 Du        
  10743 ****         0.2500  -1.5000  25.7500 Du        
  10744 ****         0.2500  -1.5000  26.0000 Du        
  10745 ****         0.2500  -1.2500  25.5000 Du        
  10746 ****         0.2500  -1.2500  25.7500 Du        
  10747 ****         0.2500  -1.2500  26.0000 Du        
  10748 ****         0.2500  -1.2500  26.2500 Du        
  10749 ****         0.2500  -1.0000  25.7500 Du        
  10750 ****         0.2500  -1.0000  26.0000 Du        
  10751 ****         0.2500  -1.0000  26.2500 Du        
  10752 ****         0.2500  -1.0000  26.5000 Du        
  10753 ****         0.2500  -0.7500  25.7500 Du        
  10754 ****         0.2500  -0.7500  26.0000 Du        
  10755 ****         0.2500  -0.7500  26.2500 Du        
  10756 ****         0.2500  -0.7500  26.5000 Du        
  10757 ****         0.2500  -0.7500  26.7500 Du        
  10758 ****         0.2500  -0.7500  27.0000 Du        
  10759 ****         0.2500  -0.5000  26.0000 Du        
  10760 ****         0.2500  -0.5000  26.2500 Du        
  10761 ****         0.2500  -0.5000  26.5000 Du        
  10762 ****         0.2500  -0.5000  26.7500 Du        
  10763 ****         0.2500  -0.5000  27.0000 Du        
  10764 ****         0.2500  -0.5000  27.2500 Du        
  10765 ****         0.2500  -0.5000  27.5000 Du        
  10766 ****         0.2500  -0.2500  26.0000 Du        
  10767 ****         0.2500  -0.2500  26.2500 Du        
  10768 ****         0.2500  -0.2500  26.5000 Du        
  10769 ****         0.2500  -0.2500  26.7500 Du        
  10770 ****         0.2500  -0.2500  27.0000 Du        
  10771 ****         0.2500  -0.2500  27.2500 Du        
  10772 ****         0.2500  -0.2500  27.5000 Du        
  10773 ****         0.2500  -0.2500  27.7500 Du        
  10774 ****         0.2500  -0.2500  28.0000 Du        
  10775 ****         0.2500   0.0000  26.0000 Du        
  10776 ****         0.2500   0.0000  26.2500 Du        
  10777 ****         0.2500   0.0000  26.5000 Du        
  10778 ****         0.2500   0.0000  26.7500 Du        
  10779 ****         0.2500   0.0000  27.0000 Du        
  10780 ****         0.2500   0.0000  27.2500 Du        
  10781 ****         0.2500   0.0000  27.5000 Du        
  10782 ****         0.2500   0.0000  27.7500 Du        
  10783 ****         0.2500   0.0000  28.0000 Du        
  10784 ****         0.2500   0.2500  26.2500 Du        
  10785 ****         0.2500   0.2500  26.5000 Du        
  10786 ****         0.2500   0.2500  26.7500 Du        
  10787 ****         0.2500   0.2500  27.0000 Du        
  10788 ****         0.2500   0.2500  27.2500 Du        
  10789 ****         0.2500   0.2500  27.5000 Du        
  10790 ****         0.2500   0.2500  27.7500 Du        
  10791 ****         0.2500   0.2500  28.0000 Du        
  10792 ****         0.2500   0.5000  26.2500 Du        
  10793 ****         0.2500   0.5000  26.5000 Du        
  10794 ****         0.2500   0.5000  26.7500 Du        
  10795 ****         0.2500   0.5000  27.0000 Du        
  10796 ****         0.2500   0.5000  27.2500 Du        
  10797 ****         0.2500   0.5000  27.5000 Du        
  10798 ****         0.2500   0.5000  27.7500 Du        
  10799 ****         0.2500   0.7500  26.2500 Du        
  10800 ****         0.2500   0.7500  26.5000 Du        
  10801 ****         0.2500   0.7500  26.7500 Du        
  10802 ****         0.2500   0.7500  27.0000 Du        
  10803 ****         0.2500   0.7500  27.2500 Du        
  10804 ****         0.2500   0.7500  27.5000 Du        
  10805 ****         0.2500   0.7500  27.7500 Du        
  10806 ****         0.2500   1.0000  26.5000 Du        
  10807 ****         0.2500   1.0000  26.7500 Du        
  10808 ****         0.2500   1.0000  27.0000 Du        
  10809 ****         0.2500   1.0000  27.2500 Du        
  10810 ****         0.2500   1.0000  27.5000 Du        
  10811 ****         0.2500   1.2500  26.5000 Du        
  10812 ****         0.2500   1.2500  26.7500 Du        
  10813 ****         0.2500   1.2500  27.0000 Du        
  10814 ****         0.2500   1.2500  27.2500 Du        
  10815 ****         0.2500   1.5000  26.5000 Du        
  10816 ****         0.2500   1.5000  26.7500 Du        
  10817 ****         0.2500   1.7500  26.5000 Du        
  10818 ****         0.2500   1.7500  26.7500 Du        
  10819 ****         0.2500   2.0000  26.5000 Du        
  10820 ****         0.2500   2.0000  26.7500 Du        
  10821 ****         0.2500   2.5000  14.7500 Du        
  10822 ****         0.2500   2.7500  14.2500 Du        
  10823 ****         0.2500   2.7500  14.5000 Du        
  10824 ****         0.2500   2.7500  14.7500 Du        
  10825 ****         0.2500   3.0000  14.0000 Du        
  10826 ****         0.2500   3.0000  14.2500 Du        
  10827 ****         0.2500   3.0000  14.5000 Du        
  10828 ****         0.2500   3.0000  14.7500 Du        
  10829 ****         0.2500   3.2500  13.5000 Du        
  10830 ****         0.2500   3.2500  13.7500 Du        
  10831 ****         0.2500   3.2500  14.0000 Du        
  10832 ****         0.2500   3.2500  14.2500 Du        
  10833 ****         0.2500   3.2500  14.5000 Du        
  10834 ****         0.2500   3.5000  13.0000 Du        
  10835 ****         0.2500   3.5000  13.2500 Du        
  10836 ****         0.2500   3.5000  13.5000 Du        
  10837 ****         0.2500   3.5000  13.7500 Du        
  10838 ****         0.2500   3.5000  14.0000 Du        
  10839 ****         0.2500   3.5000  14.2500 Du        
  10840 ****         0.2500   3.7500  12.7500 Du        
  10841 ****         0.2500   3.7500  13.0000 Du        
  10842 ****         0.2500   3.7500  13.2500 Du        
  10843 ****         0.2500   3.7500  13.5000 Du        
  10844 ****         0.2500   3.7500  13.7500 Du        
  10845 ****         0.2500   3.7500  14.0000 Du        
  10846 ****         0.2500   4.0000  12.7500 Du        
  10847 ****         0.2500   4.0000  13.0000 Du        
  10848 ****         0.2500   4.0000  13.2500 Du        
  10849 ****         0.2500   4.0000  13.5000 Du        
  10850 ****         0.2500   4.0000  13.7500 Du        
  10851 ****         0.2500   4.0000  14.0000 Du        
  10852 ****         0.2500   4.2500  12.5000 Du        
  10853 ****         0.2500   4.2500  12.7500 Du        
  10854 ****         0.2500   4.2500  13.0000 Du        
  10855 ****         0.2500   4.2500  13.2500 Du        
  10856 ****         0.2500   4.2500  13.5000 Du        
  10857 ****         0.2500   4.2500  13.7500 Du        
  10858 ****         0.2500   4.5000  12.5000 Du        
  10859 ****         0.2500   4.5000  12.7500 Du        
  10860 ****         0.2500   4.5000  13.0000 Du        
  10861 ****         0.2500   4.5000  13.2500 Du        
  10862 ****         0.2500   4.5000  13.5000 Du        
  10863 ****         0.2500   4.5000  13.7500 Du        
  10864 ****         0.2500   4.7500  12.5000 Du        
  10865 ****         0.2500   4.7500  12.7500 Du        
  10866 ****         0.2500   4.7500  13.0000 Du        
  10867 ****         0.2500   4.7500  13.2500 Du        
  10868 ****         0.2500   4.7500  13.5000 Du        
  10869 ****         0.2500   4.7500  13.7500 Du        
  10870 ****         0.2500   5.0000  12.5000 Du        
  10871 ****         0.2500   5.0000  12.7500 Du        
  10872 ****         0.2500   5.0000  13.0000 Du        
  10873 ****         0.2500   5.0000  13.2500 Du        
  10874 ****         0.2500   5.0000  13.5000 Du        
  10875 ****         0.2500   5.2500  12.5000 Du        
  10876 ****         0.2500   5.2500  12.7500 Du        
  10877 ****         0.2500   5.2500  13.0000 Du        
  10878 ****         0.2500   5.2500  13.2500 Du        
  10879 ****         0.2500   5.2500  13.5000 Du        
  10880 ****         0.2500   5.5000  12.5000 Du        
  10881 ****         0.2500   5.5000  12.7500 Du        
  10882 ****         0.2500   5.5000  13.0000 Du        
  10883 ****         0.2500   5.5000  13.2500 Du        
  10884 ****         0.2500   5.5000  13.5000 Du        
  10885 ****         0.2500   5.7500  12.5000 Du        
  10886 ****         0.2500   5.7500  12.7500 Du        
  10887 ****         0.2500   5.7500  13.0000 Du        
  10888 ****         0.2500   5.7500  13.2500 Du        
  10889 ****         0.2500   5.7500  13.5000 Du        
  10890 ****         0.2500   6.0000  12.5000 Du        
  10891 ****         0.2500   6.0000  12.7500 Du        
  10892 ****         0.2500   6.0000  13.0000 Du        
  10893 ****         0.2500   6.0000  13.2500 Du        
  10894 ****         0.2500   6.0000  13.5000 Du        
  10895 ****         0.2500   6.2500  12.5000 Du        
  10896 ****         0.2500   6.2500  12.7500 Du        
  10897 ****         0.2500   6.2500  13.0000 Du        
  10898 ****         0.2500   6.2500  13.2500 Du        
  10899 ****         0.2500   6.2500  13.5000 Du        
  10900 ****         0.2500   6.5000  12.2500 Du        
  10901 ****         0.2500   6.5000  12.5000 Du        
  10902 ****         0.2500   6.5000  12.7500 Du        
  10903 ****         0.2500   6.5000  13.0000 Du        
  10904 ****         0.2500   6.5000  13.2500 Du        
  10905 ****         0.2500   6.7500  12.2500 Du        
  10906 ****         0.2500   6.7500  12.5000 Du        
  10907 ****         0.2500   6.7500  12.7500 Du        
  10908 ****         0.2500   6.7500  13.0000 Du        
  10909 ****         0.2500   6.7500  13.2500 Du        
  10910 ****         0.2500   7.0000  12.0000 Du        
  10911 ****         0.2500   7.0000  12.2500 Du        
  10912 ****         0.2500   7.0000  12.5000 Du        
  10913 ****         0.2500   7.0000  12.7500 Du        
  10914 ****         0.2500   7.0000  13.0000 Du        
  10915 ****         0.2500   7.0000  13.2500 Du        
  10916 ****         0.2500   7.2500  12.0000 Du        
  10917 ****         0.2500   7.2500  12.2500 Du        
  10918 ****         0.2500   7.2500  12.5000 Du        
  10919 ****         0.2500   7.2500  12.7500 Du        
  10920 ****         0.2500   7.2500  13.0000 Du        
  10921 ****         0.2500   7.2500  13.2500 Du        
  10922 ****         0.2500   7.5000  11.7500 Du        
  10923 ****         0.2500   7.5000  12.0000 Du        
  10924 ****         0.2500   7.5000  12.2500 Du        
  10925 ****         0.2500   7.5000  12.5000 Du        
  10926 ****         0.2500   7.5000  12.7500 Du        
  10927 ****         0.2500   7.5000  13.0000 Du        
  10928 ****         0.2500   7.5000  13.2500 Du        
  10929 ****         0.2500   7.7500  11.5000 Du        
  10930 ****         0.2500   7.7500  11.7500 Du        
  10931 ****         0.2500   7.7500  12.0000 Du        
  10932 ****         0.2500   7.7500  12.2500 Du        
  10933 ****         0.2500   7.7500  12.5000 Du        
  10934 ****         0.2500   7.7500  12.7500 Du        
  10935 ****         0.2500   7.7500  13.0000 Du        
  10936 ****         0.2500   8.0000  11.5000 Du        
  10937 ****         0.2500   8.0000  11.7500 Du        
  10938 ****         0.2500   8.0000  12.0000 Du        
  10939 ****         0.2500   8.0000  12.2500 Du        
  10940 ****         0.2500   8.0000  12.5000 Du        
  10941 ****         0.2500   8.0000  12.7500 Du        
  10942 ****         0.2500   8.0000  13.0000 Du        
  10943 ****         0.2500   8.2500  11.5000 Du        
  10944 ****         0.2500   8.2500  11.7500 Du        
  10945 ****         0.2500   8.2500  12.0000 Du        
  10946 ****         0.2500   8.2500  12.2500 Du        
  10947 ****         0.2500   8.2500  12.5000 Du        
  10948 ****         0.2500   8.2500  12.7500 Du        
  10949 ****         0.2500   8.5000  11.5000 Du        
  10950 ****         0.2500   8.5000  11.7500 Du        
  10951 ****         0.2500   8.5000  12.0000 Du        
  10952 ****         0.2500   8.5000  12.2500 Du        
  10953 ****         0.2500   8.5000  12.5000 Du        
  10954 ****         0.2500   8.5000  12.7500 Du        
  10955 ****         0.2500   8.5000  13.0000 Du        
  10956 ****         0.2500   8.5000  15.5000 Du        
  10957 ****         0.2500   8.5000  15.7500 Du        
  10958 ****         0.2500   8.5000  16.0000 Du        
  10959 ****         0.2500   8.7500  11.7500 Du        
  10960 ****         0.2500   8.7500  12.0000 Du        
  10961 ****         0.2500   8.7500  12.2500 Du        
  10962 ****         0.2500   8.7500  12.5000 Du        
  10963 ****         0.2500   8.7500  12.7500 Du        
  10964 ****         0.2500   8.7500  13.0000 Du        
  10965 ****         0.2500   8.7500  15.2500 Du        
  10966 ****         0.2500   8.7500  15.5000 Du        
  10967 ****         0.2500   8.7500  15.7500 Du        
  10968 ****         0.2500   8.7500  16.0000 Du        
  10969 ****         0.2500   8.7500  16.2500 Du        
  10970 ****         0.2500   9.0000  11.7500 Du        
  10971 ****         0.2500   9.0000  12.0000 Du        
  10972 ****         0.2500   9.0000  12.2500 Du        
  10973 ****         0.2500   9.0000  12.5000 Du        
  10974 ****         0.2500   9.0000  12.7500 Du        
  10975 ****         0.2500   9.0000  13.0000 Du        
  10976 ****         0.2500   9.0000  13.2500 Du        
  10977 ****         0.2500   9.0000  15.5000 Du        
  10978 ****         0.2500   9.0000  15.7500 Du        
  10979 ****         0.2500   9.0000  16.0000 Du        
  10980 ****         0.2500   9.0000  16.2500 Du        
  10981 ****         0.2500   9.0000  16.5000 Du        
  10982 ****         0.2500   9.2500  12.0000 Du        
  10983 ****         0.2500   9.2500  12.2500 Du        
  10984 ****         0.2500   9.2500  12.5000 Du        
  10985 ****         0.2500   9.2500  12.7500 Du        
  10986 ****         0.2500   9.2500  13.0000 Du        
  10987 ****         0.2500   9.2500  13.2500 Du        
  10988 ****         0.2500   9.2500  15.5000 Du        
  10989 ****         0.2500   9.2500  15.7500 Du        
  10990 ****         0.2500   9.2500  16.0000 Du        
  10991 ****         0.2500   9.2500  16.2500 Du        
  10992 ****         0.2500   9.2500  16.5000 Du        
  10993 ****         0.2500   9.5000  12.0000 Du        
  10994 ****         0.2500   9.5000  12.2500 Du        
  10995 ****         0.2500   9.5000  12.5000 Du        
  10996 ****         0.2500   9.5000  12.7500 Du        
  10997 ****         0.2500   9.5000  13.0000 Du        
  10998 ****         0.2500   9.5000  15.7500 Du        
  10999 ****         0.2500   9.7500  12.2500 Du        
  11000 ****         0.2500   9.7500  12.5000 Du        
  11001 ****         0.2500   9.7500  12.7500 Du        
  11002 ****         0.2500   9.7500  13.0000 Du        
  11003 ****         0.2500   9.7500  13.2500 Du        
  11004 ****         0.2500  10.0000  12.2500 Du        
  11005 ****         0.2500  10.0000  12.5000 Du        
  11006 ****         0.2500  10.0000  12.7500 Du        
  11007 ****         0.2500  10.0000  13.0000 Du        
  11008 ****         0.2500  10.0000  13.2500 Du        
  11009 ****         0.2500  10.2500  12.5000 Du        
  11010 ****         0.2500  10.2500  12.7500 Du        
  11011 ****         0.2500  10.2500  13.0000 Du        
  11012 ****         0.2500  10.2500  13.2500 Du        
  11013 ****         0.2500  10.5000  12.7500 Du        
  11014 ****         0.2500  10.5000  13.0000 Du        
  11015 ****         0.2500  10.7500  12.7500 Du        
  11016 ****         0.2500  10.7500  13.0000 Du        
  11017 ****         0.2500  11.0000  12.7500 Du        
  11018 ****         0.2500  11.0000  13.0000 Du        
  11019 ****         0.2500  11.2500  12.7500 Du        
  11020 ****         0.2500  11.2500  13.0000 Du        
  11021 ****         0.2500  11.2500  13.2500 Du        
  11022 ****         0.2500  11.5000  12.7500 Du        
  11023 ****         0.2500  11.5000  13.0000 Du        
  11024 ****         0.2500  11.7500  13.0000 Du        
  11025 ****         0.2500  12.0000  13.0000 Du        
  11026 ****         0.5000  -2.2500  25.2500 Du        
  11027 ****         0.5000  -2.0000  25.2500 Du        
  11028 ****         0.5000  -2.0000  25.5000 Du        
  11029 ****         0.5000  -1.7500  25.2500 Du        
  11030 ****         0.5000  -1.7500  25.5000 Du        
  11031 ****         0.5000  -1.7500  25.7500 Du        
  11032 ****         0.5000  -1.5000  25.5000 Du        
  11033 ****         0.5000  -1.5000  25.7500 Du        
  11034 ****         0.5000  -1.5000  26.0000 Du        
  11035 ****         0.5000  -1.2500  25.5000 Du        
  11036 ****         0.5000  -1.2500  25.7500 Du        
  11037 ****         0.5000  -1.2500  26.0000 Du        
  11038 ****         0.5000  -1.2500  26.2500 Du        
  11039 ****         0.5000  -1.0000  25.7500 Du        
  11040 ****         0.5000  -1.0000  26.0000 Du        
  11041 ****         0.5000  -1.0000  26.2500 Du        
  11042 ****         0.5000  -1.0000  26.5000 Du        
  11043 ****         0.5000  -1.0000  26.7500 Du        
  11044 ****         0.5000  -0.7500  25.7500 Du        
  11045 ****         0.5000  -0.7500  26.0000 Du        
  11046 ****         0.5000  -0.7500  26.2500 Du        
  11047 ****         0.5000  -0.7500  26.5000 Du        
  11048 ****         0.5000  -0.7500  26.7500 Du        
  11049 ****         0.5000  -0.7500  27.0000 Du        
  11050 ****         0.5000  -0.5000  26.0000 Du        
  11051 ****         0.5000  -0.5000  26.2500 Du        
  11052 ****         0.5000  -0.5000  26.5000 Du        
  11053 ****         0.5000  -0.5000  26.7500 Du        
  11054 ****         0.5000  -0.5000  27.0000 Du        
  11055 ****         0.5000  -0.5000  27.2500 Du        
  11056 ****         0.5000  -0.2500  26.0000 Du        
  11057 ****         0.5000  -0.2500  26.2500 Du        
  11058 ****         0.5000  -0.2500  26.5000 Du        
  11059 ****         0.5000  -0.2500  26.7500 Du        
  11060 ****         0.5000  -0.2500  27.0000 Du        
  11061 ****         0.5000  -0.2500  27.2500 Du        
  11062 ****         0.5000  -0.2500  27.5000 Du        
  11063 ****         0.5000  -0.2500  27.7500 Du        
  11064 ****         0.5000   0.0000  26.2500 Du        
  11065 ****         0.5000   0.0000  26.5000 Du        
  11066 ****         0.5000   0.0000  26.7500 Du        
  11067 ****         0.5000   0.0000  27.0000 Du        
  11068 ****         0.5000   0.0000  27.2500 Du        
  11069 ****         0.5000   0.0000  27.5000 Du        
  11070 ****         0.5000   0.0000  27.7500 Du        
  11071 ****         0.5000   0.0000  28.0000 Du        
  11072 ****         0.5000   0.2500  26.2500 Du        
  11073 ****         0.5000   0.2500  26.5000 Du        
  11074 ****         0.5000   0.2500  26.7500 Du        
  11075 ****         0.5000   0.2500  27.0000 Du        
  11076 ****         0.5000   0.2500  27.2500 Du        
  11077 ****         0.5000   0.2500  27.5000 Du        
  11078 ****         0.5000   0.2500  27.7500 Du        
  11079 ****         0.5000   0.2500  28.0000 Du        
  11080 ****         0.5000   0.5000  26.2500 Du        
  11081 ****         0.5000   0.5000  26.5000 Du        
  11082 ****         0.5000   0.5000  26.7500 Du        
  11083 ****         0.5000   0.5000  27.0000 Du        
  11084 ****         0.5000   0.5000  27.2500 Du        
  11085 ****         0.5000   0.5000  27.5000 Du        
  11086 ****         0.5000   0.5000  27.7500 Du        
  11087 ****         0.5000   0.5000  28.0000 Du        
  11088 ****         0.5000   0.7500  26.2500 Du        
  11089 ****         0.5000   0.7500  26.5000 Du        
  11090 ****         0.5000   0.7500  26.7500 Du        
  11091 ****         0.5000   0.7500  27.0000 Du        
  11092 ****         0.5000   0.7500  27.2500 Du        
  11093 ****         0.5000   0.7500  27.5000 Du        
  11094 ****         0.5000   0.7500  27.7500 Du        
  11095 ****         0.5000   0.7500  28.0000 Du        
  11096 ****         0.5000   1.0000  26.5000 Du        
  11097 ****         0.5000   1.0000  26.7500 Du        
  11098 ****         0.5000   1.0000  27.0000 Du        
  11099 ****         0.5000   1.0000  27.2500 Du        
  11100 ****         0.5000   1.0000  27.5000 Du        
  11101 ****         0.5000   1.2500  26.2500 Du        
  11102 ****         0.5000   1.2500  26.5000 Du        
  11103 ****         0.5000   1.2500  26.7500 Du        
  11104 ****         0.5000   1.2500  27.0000 Du        
  11105 ****         0.5000   1.2500  27.2500 Du        
  11106 ****         0.5000   1.2500  27.5000 Du        
  11107 ****         0.5000   1.5000  26.5000 Du        
  11108 ****         0.5000   1.5000  26.7500 Du        
  11109 ****         0.5000   1.5000  27.0000 Du        
  11110 ****         0.5000   1.5000  27.2500 Du        
  11111 ****         0.5000   1.5000  27.5000 Du        
  11112 ****         0.5000   1.7500  26.5000 Du        
  11113 ****         0.5000   1.7500  26.7500 Du        
  11114 ****         0.5000   1.7500  27.0000 Du        
  11115 ****         0.5000   1.7500  27.2500 Du        
  11116 ****         0.5000   1.7500  27.5000 Du        
  11117 ****         0.5000   2.0000  26.5000 Du        
  11118 ****         0.5000   2.0000  26.7500 Du        
  11119 ****         0.5000   2.0000  27.0000 Du        
  11120 ****         0.5000   2.0000  27.2500 Du        
  11121 ****         0.5000   2.2500  26.5000 Du        
  11122 ****         0.5000   2.2500  26.7500 Du        
  11123 ****         0.5000   2.2500  27.0000 Du        
  11124 ****         0.5000   2.2500  27.2500 Du        
  11125 ****         0.5000   2.5000  14.0000 Du        
  11126 ****         0.5000   2.5000  14.2500 Du        
  11127 ****         0.5000   2.5000  14.5000 Du        
  11128 ****         0.5000   2.5000  14.7500 Du        
  11129 ****         0.5000   2.5000  26.5000 Du        
  11130 ****         0.5000   2.5000  26.7500 Du        
  11131 ****         0.5000   2.7500  13.7500 Du        
  11132 ****         0.5000   2.7500  14.0000 Du        
  11133 ****         0.5000   2.7500  14.2500 Du        
  11134 ****         0.5000   2.7500  14.5000 Du        
  11135 ****         0.5000   2.7500  14.7500 Du        
  11136 ****         0.5000   3.0000  13.2500 Du        
  11137 ****         0.5000   3.0000  13.5000 Du        
  11138 ****         0.5000   3.0000  13.7500 Du        
  11139 ****         0.5000   3.0000  14.0000 Du        
  11140 ****         0.5000   3.0000  14.2500 Du        
  11141 ****         0.5000   3.0000  14.5000 Du        
  11142 ****         0.5000   3.2500  13.0000 Du        
  11143 ****         0.5000   3.2500  13.2500 Du        
  11144 ****         0.5000   3.2500  13.5000 Du        
  11145 ****         0.5000   3.2500  13.7500 Du        
  11146 ****         0.5000   3.2500  14.0000 Du        
  11147 ****         0.5000   3.2500  14.2500 Du        
  11148 ****         0.5000   3.2500  14.5000 Du        
  11149 ****         0.5000   3.5000  13.0000 Du        
  11150 ****         0.5000   3.5000  13.2500 Du        
  11151 ****         0.5000   3.5000  13.5000 Du        
  11152 ****         0.5000   3.5000  13.7500 Du        
  11153 ****         0.5000   3.5000  14.0000 Du        
  11154 ****         0.5000   3.7500  13.0000 Du        
  11155 ****         0.5000   3.7500  13.2500 Du        
  11156 ****         0.5000   3.7500  13.5000 Du        
  11157 ****         0.5000   3.7500  13.7500 Du        
  11158 ****         0.5000   3.7500  14.0000 Du        
  11159 ****         0.5000   4.0000  12.7500 Du        
  11160 ****         0.5000   4.0000  13.0000 Du        
  11161 ****         0.5000   4.0000  13.2500 Du        
  11162 ****         0.5000   4.0000  13.5000 Du        
  11163 ****         0.5000   4.0000  13.7500 Du        
  11164 ****         0.5000   4.2500  12.7500 Du        
  11165 ****         0.5000   4.2500  13.0000 Du        
  11166 ****         0.5000   4.2500  13.2500 Du        
  11167 ****         0.5000   4.2500  13.5000 Du        
  11168 ****         0.5000   4.2500  13.7500 Du        
  11169 ****         0.5000   4.5000  12.7500 Du        
  11170 ****         0.5000   4.5000  13.0000 Du        
  11171 ****         0.5000   4.5000  13.2500 Du        
  11172 ****         0.5000   4.5000  13.5000 Du        
  11173 ****         0.5000   4.7500  12.7500 Du        
  11174 ****         0.5000   4.7500  13.0000 Du        
  11175 ****         0.5000   4.7500  13.2500 Du        
  11176 ****         0.5000   4.7500  13.5000 Du        
  11177 ****         0.5000   5.0000  12.5000 Du        
  11178 ****         0.5000   5.0000  12.7500 Du        
  11179 ****         0.5000   5.0000  13.0000 Du        
  11180 ****         0.5000   5.0000  13.2500 Du        
  11181 ****         0.5000   5.0000  13.5000 Du        
  11182 ****         0.5000   5.2500  12.5000 Du        
  11183 ****         0.5000   5.2500  12.7500 Du        
  11184 ****         0.5000   5.2500  13.0000 Du        
  11185 ****         0.5000   5.2500  13.2500 Du        
  11186 ****         0.5000   5.5000  12.7500 Du        
  11187 ****         0.5000   5.5000  13.0000 Du        
  11188 ****         0.5000   5.5000  13.2500 Du        
  11189 ****         0.5000   5.7500  12.5000 Du        
  11190 ****         0.5000   5.7500  12.7500 Du        
  11191 ****         0.5000   5.7500  13.0000 Du        
  11192 ****         0.5000   5.7500  13.2500 Du        
  11193 ****         0.5000   6.0000  12.5000 Du        
  11194 ****         0.5000   6.0000  12.7500 Du        
  11195 ****         0.5000   6.0000  13.0000 Du        
  11196 ****         0.5000   6.0000  13.2500 Du        
  11197 ****         0.5000   6.2500  12.5000 Du        
  11198 ****         0.5000   6.2500  12.7500 Du        
  11199 ****         0.5000   6.2500  13.0000 Du        
  11200 ****         0.5000   6.2500  13.2500 Du        
  11201 ****         0.5000   6.5000  12.7500 Du        
  11202 ****         0.5000   6.5000  13.0000 Du        
  11203 ****         0.5000   6.5000  13.2500 Du        
  11204 ****         0.5000   6.7500  12.2500 Du        
  11205 ****         0.5000   6.7500  12.7500 Du        
  11206 ****         0.5000   6.7500  13.0000 Du        
  11207 ****         0.5000   6.7500  13.2500 Du        
  11208 ****         0.5000   7.0000  12.2500 Du        
  11209 ****         0.5000   7.0000  12.7500 Du        
  11210 ****         0.5000   7.0000  13.0000 Du        
  11211 ****         0.5000   7.0000  13.2500 Du        
  11212 ****         0.5000   7.2500  12.0000 Du        
  11213 ****         0.5000   7.2500  12.2500 Du        
  11214 ****         0.5000   7.2500  12.7500 Du        
  11215 ****         0.5000   7.2500  13.0000 Du        
  11216 ****         0.5000   7.2500  13.2500 Du        
  11217 ****         0.5000   7.5000  12.0000 Du        
  11218 ****         0.5000   7.5000  12.2500 Du        
  11219 ****         0.5000   7.7500  11.7500 Du        
  11220 ****         0.5000   7.7500  12.0000 Du        
  11221 ****         0.5000   7.7500  12.2500 Du        
  11222 ****         0.5000   8.0000  11.5000 Du        
  11223 ****         0.5000   8.0000  11.7500 Du        
  11224 ****         0.5000   8.0000  12.0000 Du        
  11225 ****         0.5000   8.0000  12.2500 Du        
  11226 ****         0.5000   8.2500  11.5000 Du        
  11227 ****         0.5000   8.2500  11.7500 Du        
  11228 ****         0.5000   8.2500  12.0000 Du        
  11229 ****         0.5000   8.2500  12.2500 Du        
  11230 ****         0.5000   8.5000  11.7500 Du        
  11231 ****         0.5000   8.5000  12.0000 Du        
  11232 ****         0.5000   8.5000  12.2500 Du        
  11233 ****         0.5000   8.7500  11.7500 Du        
  11234 ****         0.5000   8.7500  12.0000 Du        
  11235 ****         0.5000   8.7500  12.2500 Du        
  11236 ****         0.5000   9.0000  12.0000 Du        
  11237 ****         0.5000   9.0000  12.2500 Du        
  11238 ****         0.5000   9.5000  12.2500 Du        
  11239 ****         0.5000   9.7500  12.2500 Du        
  11240 ****         0.7500  -2.2500  25.2500 Du        
  11241 ****         0.7500  -2.2500  25.5000 Du        
  11242 ****         0.7500  -2.0000  25.0000 Du        
  11243 ****         0.7500  -2.0000  25.2500 Du        
  11244 ****         0.7500  -2.0000  25.5000 Du        
  11245 ****         0.7500  -2.0000  25.7500 Du        
  11246 ****         0.7500  -1.7500  25.2500 Du        
  11247 ****         0.7500  -1.7500  25.5000 Du        
  11248 ****         0.7500  -1.7500  25.7500 Du        
  11249 ****         0.7500  -1.5000  25.5000 Du        
  11250 ****         0.7500  -1.5000  25.7500 Du        
  11251 ****         0.7500  -1.5000  26.0000 Du        
  11252 ****         0.7500  -1.2500  25.5000 Du        
  11253 ****         0.7500  -1.2500  25.7500 Du        
  11254 ****         0.7500  -1.2500  26.0000 Du        
  11255 ****         0.7500  -1.2500  26.2500 Du        
  11256 ****         0.7500  -1.0000  25.7500 Du        
  11257 ****         0.7500  -1.0000  26.0000 Du        
  11258 ****         0.7500  -1.0000  26.2500 Du        
  11259 ****         0.7500  -0.7500  26.0000 Du        
  11260 ****         0.7500  -0.7500  26.2500 Du        
  11261 ****         0.7500  -0.7500  26.5000 Du        
  11262 ****         0.7500  -0.2500  26.7500 Du        
  11263 ****         0.7500  -0.2500  27.0000 Du        
  11264 ****         0.7500  -0.2500  27.2500 Du        
  11265 ****         0.7500   0.0000  26.7500 Du        
  11266 ****         0.7500   0.0000  27.0000 Du        
  11267 ****         0.7500   0.0000  27.2500 Du        
  11268 ****         0.7500   0.2500  26.7500 Du        
  11269 ****         0.7500   0.2500  27.0000 Du        
  11270 ****         0.7500   0.2500  27.2500 Du        
  11271 ****         0.7500   0.5000  26.7500 Du        
  11272 ****         0.7500   0.5000  27.0000 Du        
  11273 ****         0.7500   0.5000  27.2500 Du        
  11274 ****         0.7500   0.5000  27.5000 Du        
  11275 ****         0.7500   0.7500  26.5000 Du        
  11276 ****         0.7500   0.7500  26.7500 Du        
  11277 ****         0.7500   0.7500  27.0000 Du        
  11278 ****         0.7500   0.7500  27.2500 Du        
  11279 ****         0.7500   0.7500  27.5000 Du        
  11280 ****         0.7500   1.0000  26.5000 Du        
  11281 ****         0.7500   1.0000  26.7500 Du        
  11282 ****         0.7500   1.0000  27.0000 Du        
  11283 ****         0.7500   1.0000  27.2500 Du        
  11284 ****         0.7500   1.0000  27.5000 Du        
  11285 ****         0.7500   1.2500  26.5000 Du        
  11286 ****         0.7500   1.2500  26.7500 Du        
  11287 ****         0.7500   1.2500  27.0000 Du        
  11288 ****         0.7500   1.2500  27.2500 Du        
  11289 ****         0.7500   1.5000  26.5000 Du        
  11290 ****         0.7500   1.5000  26.7500 Du        
  11291 ****         0.7500   1.5000  27.0000 Du        
  11292 ****         0.7500   1.5000  27.2500 Du        
  11293 ****         0.7500   1.7500  26.5000 Du        
  11294 ****         0.7500   1.7500  26.7500 Du        
  11295 ****         0.7500   1.7500  27.0000 Du        
  11296 ****         0.7500   1.7500  27.2500 Du        
  11297 ****         0.7500   2.0000  26.5000 Du        
  11298 ****         0.7500   2.0000  26.7500 Du        
  11299 ****         0.7500   2.0000  27.0000 Du        
  11300 ****         0.7500   2.0000  27.2500 Du        
  11301 ****         0.7500   2.2500  13.2500 Du        
  11302 ****         0.7500   2.2500  13.5000 Du        
  11303 ****         0.7500   2.2500  13.7500 Du        
  11304 ****         0.7500   2.2500  14.0000 Du        
  11305 ****         0.7500   2.2500  14.2500 Du        
  11306 ****         0.7500   2.2500  14.5000 Du        
  11307 ****         0.7500   2.2500  26.5000 Du        
  11308 ****         0.7500   2.2500  26.7500 Du        
  11309 ****         0.7500   2.2500  27.0000 Du        
  11310 ****         0.7500   2.2500  27.2500 Du        
  11311 ****         0.7500   2.5000  13.0000 Du        
  11312 ****         0.7500   2.5000  13.2500 Du        
  11313 ****         0.7500   2.5000  13.5000 Du        
  11314 ****         0.7500   2.5000  13.7500 Du        
  11315 ****         0.7500   2.5000  14.0000 Du        
  11316 ****         0.7500   2.5000  14.2500 Du        
  11317 ****         0.7500   2.5000  14.5000 Du        
  11318 ****         0.7500   2.5000  14.7500 Du        
  11319 ****         0.7500   2.5000  26.5000 Du        
  11320 ****         0.7500   2.5000  26.7500 Du        
  11321 ****         0.7500   2.5000  27.0000 Du        
  11322 ****         0.7500   2.7500  13.0000 Du        
  11323 ****         0.7500   2.7500  13.2500 Du        
  11324 ****         0.7500   2.7500  13.5000 Du        
  11325 ****         0.7500   2.7500  13.7500 Du        
  11326 ****         0.7500   2.7500  14.0000 Du        
  11327 ****         0.7500   2.7500  14.2500 Du        
  11328 ****         0.7500   2.7500  14.5000 Du        
  11329 ****         0.7500   2.7500  14.7500 Du        
  11330 ****         0.7500   2.7500  26.5000 Du        
  11331 ****         0.7500   2.7500  26.7500 Du        
  11332 ****         0.7500   3.0000  13.0000 Du        
  11333 ****         0.7500   3.0000  13.2500 Du        
  11334 ****         0.7500   3.0000  13.5000 Du        
  11335 ****         0.7500   3.0000  13.7500 Du        
  11336 ****         0.7500   3.0000  14.0000 Du        
  11337 ****         0.7500   3.0000  14.2500 Du        
  11338 ****         0.7500   3.0000  14.5000 Du        
  11339 ****         0.7500   3.0000  26.7500 Du        
  11340 ****         0.7500   3.2500  13.0000 Du        
  11341 ****         0.7500   3.2500  13.2500 Du        
  11342 ****         0.7500   3.2500  13.5000 Du        
  11343 ****         0.7500   3.2500  13.7500 Du        
  11344 ****         0.7500   3.2500  14.0000 Du        
  11345 ****         0.7500   3.2500  14.2500 Du        
  11346 ****         0.7500   3.5000  13.0000 Du        
  11347 ****         0.7500   3.5000  13.2500 Du        
  11348 ****         0.7500   3.5000  13.5000 Du        
  11349 ****         0.7500   3.5000  13.7500 Du        
  11350 ****         0.7500   3.5000  14.0000 Du        
  11351 ****         0.7500   3.5000  26.2500 Du        
  11352 ****         0.7500   3.7500  13.0000 Du        
  11353 ****         0.7500   3.7500  13.2500 Du        
  11354 ****         0.7500   3.7500  13.5000 Du        
  11355 ****         0.7500   3.7500  13.7500 Du        
  11356 ****         0.7500   3.7500  26.2500 Du        
  11357 ****         0.7500   4.0000  12.7500 Du        
  11358 ****         0.7500   4.0000  13.0000 Du        
  11359 ****         0.7500   4.0000  13.2500 Du        
  11360 ****         0.7500   4.0000  13.5000 Du        
  11361 ****         0.7500   4.0000  13.7500 Du        
  11362 ****         0.7500   4.2500  12.7500 Du        
  11363 ****         0.7500   4.2500  13.0000 Du        
  11364 ****         0.7500   4.2500  13.2500 Du        
  11365 ****         0.7500   4.2500  13.5000 Du        
  11366 ****         0.7500   4.5000  12.7500 Du        
  11367 ****         0.7500   4.5000  13.0000 Du        
  11368 ****         0.7500   4.5000  13.2500 Du        
  11369 ****         0.7500   4.5000  13.5000 Du        
  11370 ****         0.7500   4.7500  12.7500 Du        
  11371 ****         0.7500   4.7500  13.0000 Du        
  11372 ****         0.7500   4.7500  13.2500 Du        
  11373 ****         0.7500   5.0000  12.7500 Du        
  11374 ****         0.7500   5.0000  13.0000 Du        
  11375 ****         0.7500   5.0000  13.2500 Du        
  11376 ****         0.7500   5.2500  12.5000 Du        
  11377 ****         0.7500   5.2500  12.7500 Du        
  11378 ****         0.7500   5.2500  13.0000 Du        
  11379 ****         0.7500   5.2500  13.2500 Du        
  11380 ****         0.7500   5.5000  12.7500 Du        
  11381 ****         0.7500   5.5000  13.0000 Du        
  11382 ****         0.7500   5.5000  13.2500 Du        
  11383 ****         0.7500   5.7500  12.5000 Du        
  11384 ****         0.7500   5.7500  12.7500 Du        
  11385 ****         0.7500   5.7500  13.0000 Du        
  11386 ****         0.7500   5.7500  13.2500 Du        
  11387 ****         0.7500   6.0000  12.5000 Du        
  11388 ****         0.7500   6.0000  12.7500 Du        
  11389 ****         0.7500   6.0000  13.0000 Du        
  11390 ****         0.7500   6.0000  13.2500 Du        
  11391 ****         0.7500   6.2500  12.5000 Du        
  11392 ****         0.7500   6.2500  12.7500 Du        
  11393 ****         0.7500   6.2500  13.0000 Du        
  11394 ****         0.7500   6.2500  13.2500 Du        
  11395 ****         0.7500   6.5000  12.7500 Du        
  11396 ****         0.7500   6.5000  13.0000 Du        
  11397 ****         0.7500   6.7500  12.7500 Du        
  11398 ****         0.7500   6.7500  13.0000 Du        
  11399 ****         0.7500   6.7500  13.2500 Du        
  11400 ****         0.7500   7.0000  12.2500 Du        
  11401 ****         0.7500   7.0000  12.7500 Du        
  11402 ****         0.7500   7.0000  13.0000 Du        
  11403 ****         0.7500   7.2500  12.2500 Du        
  11404 ****         0.7500   7.5000  12.0000 Du        
  11405 ****         0.7500   7.5000  12.2500 Du        
  11406 ****         0.7500   7.7500  11.7500 Du        
  11407 ****         0.7500   7.7500  12.0000 Du        
  11408 ****         0.7500   7.7500  12.2500 Du        
  11409 ****         0.7500   8.0000  11.5000 Du        
  11410 ****         0.7500   8.0000  11.7500 Du        
  11411 ****         0.7500   8.0000  12.0000 Du        
  11412 ****         0.7500   8.0000  12.2500 Du        
  11413 ****         0.7500   8.2500  11.5000 Du        
  11414 ****         0.7500   8.2500  11.7500 Du        
  11415 ****         0.7500   8.2500  12.0000 Du        
  11416 ****         0.7500   8.2500  12.2500 Du        
  11417 ****         0.7500   8.5000  11.7500 Du        
  11418 ****         0.7500   8.5000  12.0000 Du        
  11419 ****         0.7500   8.7500  12.0000 Du        
  11420 ****         0.7500   9.0000  12.0000 Du        
  11421 ****         1.0000  -2.5000  25.2500 Du        
  11422 ****         1.0000  -2.2500  25.0000 Du        
  11423 ****         1.0000  -2.2500  25.2500 Du        
  11424 ****         1.0000  -2.2500  25.5000 Du        
  11425 ****         1.0000  -2.0000  25.0000 Du        
  11426 ****         1.0000  -2.0000  25.2500 Du        
  11427 ****         1.0000  -2.0000  25.5000 Du        
  11428 ****         1.0000  -2.0000  25.7500 Du        
  11429 ****         1.0000  -1.7500  25.2500 Du        
  11430 ****         1.0000  -1.7500  25.5000 Du        
  11431 ****         1.0000  -1.7500  25.7500 Du        
  11432 ****         1.0000  -1.5000  25.5000 Du        
  11433 ****         1.0000  -1.5000  25.7500 Du        
  11434 ****         1.0000   1.2500  26.7500 Du        
  11435 ****         1.0000   1.5000  26.7500 Du        
  11436 ****         1.0000   1.7500  13.0000 Du        
  11437 ****         1.0000   1.7500  13.2500 Du        
  11438 ****         1.0000   1.7500  26.5000 Du        
  11439 ****         1.0000   1.7500  26.7500 Du        
  11440 ****         1.0000   1.7500  27.0000 Du        
  11441 ****         1.0000   2.0000  12.7500 Du        
  11442 ****         1.0000   2.0000  13.0000 Du        
  11443 ****         1.0000   2.0000  13.2500 Du        
  11444 ****         1.0000   2.0000  13.5000 Du        
  11445 ****         1.0000   2.0000  13.7500 Du        
  11446 ****         1.0000   2.0000  14.0000 Du        
  11447 ****         1.0000   2.0000  14.2500 Du        
  11448 ****         1.0000   2.0000  26.5000 Du        
  11449 ****         1.0000   2.0000  26.7500 Du        
  11450 ****         1.0000   2.0000  27.0000 Du        
  11451 ****         1.0000   2.2500  12.7500 Du        
  11452 ****         1.0000   2.2500  13.0000 Du        
  11453 ****         1.0000   2.2500  13.2500 Du        
  11454 ****         1.0000   2.2500  13.5000 Du        
  11455 ****         1.0000   2.2500  13.7500 Du        
  11456 ****         1.0000   2.2500  14.0000 Du        
  11457 ****         1.0000   2.2500  14.2500 Du        
  11458 ****         1.0000   2.2500  14.5000 Du        
  11459 ****         1.0000   2.2500  26.5000 Du        
  11460 ****         1.0000   2.2500  26.7500 Du        
  11461 ****         1.0000   2.2500  27.0000 Du        
  11462 ****         1.0000   2.5000  12.7500 Du        
  11463 ****         1.0000   2.5000  13.0000 Du        
  11464 ****         1.0000   2.5000  13.2500 Du        
  11465 ****         1.0000   2.5000  13.5000 Du        
  11466 ****         1.0000   2.5000  13.7500 Du        
  11467 ****         1.0000   2.5000  14.0000 Du        
  11468 ****         1.0000   2.5000  14.2500 Du        
  11469 ****         1.0000   2.5000  14.5000 Du        
  11470 ****         1.0000   2.5000  26.5000 Du        
  11471 ****         1.0000   2.5000  26.7500 Du        
  11472 ****         1.0000   2.5000  27.0000 Du        
  11473 ****         1.0000   2.7500  12.7500 Du        
  11474 ****         1.0000   2.7500  13.0000 Du        
  11475 ****         1.0000   2.7500  13.2500 Du        
  11476 ****         1.0000   2.7500  13.5000 Du        
  11477 ****         1.0000   2.7500  13.7500 Du        
  11478 ****         1.0000   2.7500  14.0000 Du        
  11479 ****         1.0000   2.7500  14.2500 Du        
  11480 ****         1.0000   2.7500  14.5000 Du        
  11481 ****         1.0000   2.7500  26.2500 Du        
  11482 ****         1.0000   2.7500  26.5000 Du        
  11483 ****         1.0000   2.7500  26.7500 Du        
  11484 ****         1.0000   2.7500  27.0000 Du        
  11485 ****         1.0000   3.0000  12.7500 Du        
  11486 ****         1.0000   3.0000  13.0000 Du        
  11487 ****         1.0000   3.0000  13.2500 Du        
  11488 ****         1.0000   3.0000  13.5000 Du        
  11489 ****         1.0000   3.0000  13.7500 Du        
  11490 ****         1.0000   3.0000  14.0000 Du        
  11491 ****         1.0000   3.0000  14.2500 Du        
  11492 ****         1.0000   3.0000  26.2500 Du        
  11493 ****         1.0000   3.0000  26.5000 Du        
  11494 ****         1.0000   3.0000  26.7500 Du        
  11495 ****         1.0000   3.0000  27.0000 Du        
  11496 ****         1.0000   3.2500  12.7500 Du        
  11497 ****         1.0000   3.2500  13.0000 Du        
  11498 ****         1.0000   3.2500  13.2500 Du        
  11499 ****         1.0000   3.2500  13.5000 Du        
  11500 ****         1.0000   3.2500  13.7500 Du        
  11501 ****         1.0000   3.2500  14.0000 Du        
  11502 ****         1.0000   3.2500  14.2500 Du        
  11503 ****         1.0000   3.2500  26.2500 Du        
  11504 ****         1.0000   3.2500  26.5000 Du        
  11505 ****         1.0000   3.2500  26.7500 Du        
  11506 ****         1.0000   3.5000  13.0000 Du        
  11507 ****         1.0000   3.5000  13.2500 Du        
  11508 ****         1.0000   3.5000  13.5000 Du        
  11509 ****         1.0000   3.5000  13.7500 Du        
  11510 ****         1.0000   3.5000  14.0000 Du        
  11511 ****         1.0000   3.5000  26.2500 Du        
  11512 ****         1.0000   3.7500  13.0000 Du        
  11513 ****         1.0000   3.7500  13.2500 Du        
  11514 ****         1.0000   3.7500  13.5000 Du        
  11515 ****         1.0000   3.7500  13.7500 Du        
  11516 ****         1.0000   3.7500  26.2500 Du        
  11517 ****         1.0000   4.0000  13.0000 Du        
  11518 ****         1.0000   4.0000  13.2500 Du        
  11519 ****         1.0000   4.0000  13.5000 Du        
  11520 ****         1.0000   4.0000  13.7500 Du        
  11521 ****         1.0000   4.0000  26.2500 Du        
  11522 ****         1.0000   4.2500  12.7500 Du        
  11523 ****         1.0000   4.2500  13.0000 Du        
  11524 ****         1.0000   4.2500  13.2500 Du        
  11525 ****         1.0000   4.2500  13.5000 Du        
  11526 ****         1.0000   4.2500  26.2500 Du        
  11527 ****         1.0000   4.5000  12.7500 Du        
  11528 ****         1.0000   4.5000  13.0000 Du        
  11529 ****         1.0000   4.5000  13.2500 Du        
  11530 ****         1.0000   4.7500  12.7500 Du        
  11531 ****         1.0000   4.7500  13.0000 Du        
  11532 ****         1.0000   4.7500  13.2500 Du        
  11533 ****         1.0000   5.0000  12.7500 Du        
  11534 ****         1.0000   5.0000  13.0000 Du        
  11535 ****         1.0000   5.0000  13.2500 Du        
  11536 ****         1.0000   5.2500  12.7500 Du        
  11537 ****         1.0000   5.2500  13.0000 Du        
  11538 ****         1.0000   5.2500  13.2500 Du        
  11539 ****         1.0000   5.5000  12.7500 Du        
  11540 ****         1.0000   5.5000  13.0000 Du        
  11541 ****         1.0000   5.7500  12.7500 Du        
  11542 ****         1.0000   5.7500  13.0000 Du        
  11543 ****         1.0000   6.0000  12.7500 Du        
  11544 ****         1.0000   6.0000  13.0000 Du        
  11545 ****         1.0000   6.2500  12.7500 Du        
  11546 ****         1.0000   6.2500  13.0000 Du        
  11547 ****         1.0000   6.5000  13.0000 Du        
  11548 ****         1.0000   6.7500  13.0000 Du        
  11549 ****         1.0000   7.7500  12.0000 Du        
  11550 ****         1.0000   8.0000  11.7500 Du        
  11551 ****         1.0000   8.0000  12.0000 Du        
  11552 ****         1.0000   8.0000  12.2500 Du        
  11553 ****         1.0000   8.2500  11.5000 Du        
  11554 ****         1.0000   8.2500  11.7500 Du        
  11555 ****         1.0000   8.2500  12.0000 Du        
  11556 ****         1.0000   8.2500  12.2500 Du        
  11557 ****         1.2500  -2.5000  25.2500 Du        
  11558 ****         1.2500  -2.2500  25.0000 Du        
  11559 ****         1.2500  -2.2500  25.2500 Du        
  11560 ****         1.2500  -2.2500  25.5000 Du        
  11561 ****         1.2500  -2.0000  25.0000 Du        
  11562 ****         1.2500  -2.0000  25.2500 Du        
  11563 ****         1.2500  -2.0000  25.5000 Du        
  11564 ****         1.2500  -1.7500  25.2500 Du        
  11565 ****         1.2500  -1.7500  25.5000 Du        
  11566 ****         1.2500   1.5000  12.7500 Du        
  11567 ****         1.2500   1.5000  13.0000 Du        
  11568 ****         1.2500   1.7500  12.5000 Du        
  11569 ****         1.2500   1.7500  12.7500 Du        
  11570 ****         1.2500   1.7500  13.0000 Du        
  11571 ****         1.2500   1.7500  13.2500 Du        
  11572 ****         1.2500   1.7500  13.5000 Du        
  11573 ****         1.2500   1.7500  13.7500 Du        
  11574 ****         1.2500   2.0000  12.5000 Du        
  11575 ****         1.2500   2.0000  12.7500 Du        
  11576 ****         1.2500   2.0000  13.0000 Du        
  11577 ****         1.2500   2.0000  13.2500 Du        
  11578 ****         1.2500   2.0000  13.5000 Du        
  11579 ****         1.2500   2.0000  13.7500 Du        
  11580 ****         1.2500   2.0000  14.0000 Du        
  11581 ****         1.2500   2.0000  14.2500 Du        
  11582 ****         1.2500   2.2500  12.7500 Du        
  11583 ****         1.2500   2.2500  13.0000 Du        
  11584 ****         1.2500   2.2500  13.2500 Du        
  11585 ****         1.2500   2.2500  13.5000 Du        
  11586 ****         1.2500   2.2500  13.7500 Du        
  11587 ****         1.2500   2.2500  14.0000 Du        
  11588 ****         1.2500   2.2500  14.2500 Du        
  11589 ****         1.2500   2.2500  14.5000 Du        
  11590 ****         1.2500   2.5000  12.7500 Du        
  11591 ****         1.2500   2.5000  13.0000 Du        
  11592 ****         1.2500   2.5000  13.2500 Du        
  11593 ****         1.2500   2.5000  13.5000 Du        
  11594 ****         1.2500   2.5000  13.7500 Du        
  11595 ****         1.2500   2.5000  14.0000 Du        
  11596 ****         1.2500   2.5000  14.2500 Du        
  11597 ****         1.2500   2.5000  14.5000 Du        
  11598 ****         1.2500   2.5000  26.5000 Du        
  11599 ****         1.2500   2.5000  26.7500 Du        
  11600 ****         1.2500   2.7500  12.7500 Du        
  11601 ****         1.2500   2.7500  13.0000 Du        
  11602 ****         1.2500   2.7500  13.2500 Du        
  11603 ****         1.2500   2.7500  13.5000 Du        
  11604 ****         1.2500   2.7500  13.7500 Du        
  11605 ****         1.2500   2.7500  14.0000 Du        
  11606 ****         1.2500   2.7500  14.2500 Du        
  11607 ****         1.2500   2.7500  14.5000 Du        
  11608 ****         1.2500   2.7500  26.2500 Du        
  11609 ****         1.2500   2.7500  26.5000 Du        
  11610 ****         1.2500   2.7500  26.7500 Du        
  11611 ****         1.2500   3.0000  12.7500 Du        
  11612 ****         1.2500   3.0000  13.0000 Du        
  11613 ****         1.2500   3.0000  13.2500 Du        
  11614 ****         1.2500   3.0000  13.5000 Du        
  11615 ****         1.2500   3.0000  13.7500 Du        
  11616 ****         1.2500   3.0000  14.0000 Du        
  11617 ****         1.2500   3.0000  14.2500 Du        
  11618 ****         1.2500   3.0000  26.2500 Du        
  11619 ****         1.2500   3.0000  26.5000 Du        
  11620 ****         1.2500   3.0000  26.7500 Du        
  11621 ****         1.2500   3.0000  27.0000 Du        
  11622 ****         1.2500   3.2500  12.7500 Du        
  11623 ****         1.2500   3.2500  13.0000 Du        
  11624 ****         1.2500   3.2500  13.2500 Du        
  11625 ****         1.2500   3.2500  13.5000 Du        
  11626 ****         1.2500   3.2500  13.7500 Du        
  11627 ****         1.2500   3.2500  14.0000 Du        
  11628 ****         1.2500   3.2500  26.2500 Du        
  11629 ****         1.2500   3.2500  26.5000 Du        
  11630 ****         1.2500   3.2500  26.7500 Du        
  11631 ****         1.2500   3.5000  13.0000 Du        
  11632 ****         1.2500   3.5000  13.2500 Du        
  11633 ****         1.2500   3.5000  13.5000 Du        
  11634 ****         1.2500   3.5000  13.7500 Du        
  11635 ****         1.2500   3.5000  26.2500 Du        
  11636 ****         1.2500   3.5000  26.5000 Du        
  11637 ****         1.2500   3.7500  13.0000 Du        
  11638 ****         1.2500   3.7500  13.2500 Du        
  11639 ****         1.2500   3.7500  13.5000 Du        
  11640 ****         1.2500   3.7500  13.7500 Du        
  11641 ****         1.2500   3.7500  26.2500 Du        
  11642 ****         1.2500   4.0000  13.0000 Du        
  11643 ****         1.2500   4.0000  13.2500 Du        
  11644 ****         1.2500   4.0000  13.5000 Du        
  11645 ****         1.2500   4.0000  26.0000 Du        
  11646 ****         1.2500   4.0000  26.2500 Du        
  11647 ****         1.2500   4.2500  12.7500 Du        
  11648 ****         1.2500   4.2500  13.0000 Du        
  11649 ****         1.2500   4.2500  13.2500 Du        
  11650 ****         1.2500   4.2500  13.5000 Du        
  11651 ****         1.2500   4.2500  26.0000 Du        
  11652 ****         1.2500   4.2500  26.2500 Du        
  11653 ****         1.2500   4.5000  12.7500 Du        
  11654 ****         1.2500   4.5000  13.0000 Du        
  11655 ****         1.2500   4.5000  13.2500 Du        
  11656 ****         1.2500   4.7500  12.7500 Du        
  11657 ****         1.2500   4.7500  13.0000 Du        
  11658 ****         1.2500   4.7500  13.2500 Du        
  11659 ****         1.2500   5.0000  12.7500 Du        
  11660 ****         1.2500   5.0000  13.0000 Du        
  11661 ****         1.2500   5.0000  13.2500 Du        
  11662 ****         1.2500   5.2500  12.7500 Du        
  11663 ****         1.2500   5.2500  13.0000 Du        
  11664 ****         1.2500   5.2500  13.2500 Du        
  11665 ****         1.5000  -2.2500  25.0000 Du        
  11666 ****         1.5000  -2.2500  25.2500 Du        
  11667 ****         1.5000  -2.0000  25.0000 Du        
  11668 ****         1.5000  -2.0000  25.2500 Du        
  11669 ****         1.5000   1.5000  12.7500 Du        
  11670 ****         1.5000   1.5000  13.0000 Du        
  11671 ****         1.5000   1.7500  12.7500 Du        
  11672 ****         1.5000   1.7500  13.0000 Du        
  11673 ****         1.5000   1.7500  13.2500 Du        
  11674 ****         1.5000   1.7500  13.5000 Du        
  11675 ****         1.5000   1.7500  13.7500 Du        
  11676 ****         1.5000   1.7500  14.0000 Du        
  11677 ****         1.5000   2.0000  12.7500 Du        
  11678 ****         1.5000   2.0000  13.0000 Du        
  11679 ****         1.5000   2.0000  13.2500 Du        
  11680 ****         1.5000   2.0000  13.5000 Du        
  11681 ****         1.5000   2.0000  13.7500 Du        
  11682 ****         1.5000   2.0000  14.0000 Du        
  11683 ****         1.5000   2.0000  14.2500 Du        
  11684 ****         1.5000   2.2500  12.7500 Du        
  11685 ****         1.5000   2.2500  13.0000 Du        
  11686 ****         1.5000   2.2500  13.2500 Du        
  11687 ****         1.5000   2.2500  13.5000 Du        
  11688 ****         1.5000   2.2500  13.7500 Du        
  11689 ****         1.5000   2.2500  14.0000 Du        
  11690 ****         1.5000   2.2500  14.2500 Du        
  11691 ****         1.5000   2.5000  12.7500 Du        
  11692 ****         1.5000   2.5000  13.0000 Du        
  11693 ****         1.5000   2.5000  13.2500 Du        
  11694 ****         1.5000   2.5000  13.5000 Du        
  11695 ****         1.5000   2.5000  13.7500 Du        
  11696 ****         1.5000   2.5000  14.0000 Du        
  11697 ****         1.5000   2.5000  14.2500 Du        
  11698 ****         1.5000   2.7500  12.7500 Du        
  11699 ****         1.5000   2.7500  13.0000 Du        
  11700 ****         1.5000   2.7500  13.2500 Du        
  11701 ****         1.5000   2.7500  13.5000 Du        
  11702 ****         1.5000   2.7500  13.7500 Du        
  11703 ****         1.5000   2.7500  14.0000 Du        
  11704 ****         1.5000   2.7500  14.2500 Du        
  11705 ****         1.5000   2.7500  26.2500 Du        
  11706 ****         1.5000   2.7500  26.5000 Du        
  11707 ****         1.5000   2.7500  26.7500 Du        
  11708 ****         1.5000   3.0000  12.7500 Du        
  11709 ****         1.5000   3.0000  13.0000 Du        
  11710 ****         1.5000   3.0000  13.2500 Du        
  11711 ****         1.5000   3.0000  13.5000 Du        
  11712 ****         1.5000   3.0000  13.7500 Du        
  11713 ****         1.5000   3.0000  14.0000 Du        
  11714 ****         1.5000   3.0000  26.2500 Du        
  11715 ****         1.5000   3.0000  26.5000 Du        
  11716 ****         1.5000   3.0000  26.7500 Du        
  11717 ****         1.5000   3.2500  13.0000 Du        
  11718 ****         1.5000   3.2500  13.2500 Du        
  11719 ****         1.5000   3.2500  13.5000 Du        
  11720 ****         1.5000   3.2500  13.7500 Du        
  11721 ****         1.5000   3.2500  14.0000 Du        
  11722 ****         1.5000   3.2500  26.2500 Du        
  11723 ****         1.5000   3.2500  26.5000 Du        
  11724 ****         1.5000   3.2500  26.7500 Du        
  11725 ****         1.5000   3.2500  27.0000 Du        
  11726 ****         1.5000   3.5000  13.0000 Du        
  11727 ****         1.5000   3.5000  13.2500 Du        
  11728 ****         1.5000   3.5000  13.5000 Du        
  11729 ****         1.5000   3.5000  13.7500 Du        
  11730 ****         1.5000   3.5000  26.2500 Du        
  11731 ****         1.5000   3.5000  26.5000 Du        
  11732 ****         1.5000   3.5000  26.7500 Du        
  11733 ****         1.5000   3.7500  13.0000 Du        
  11734 ****         1.5000   3.7500  13.2500 Du        
  11735 ****         1.5000   3.7500  13.5000 Du        
  11736 ****         1.5000   3.7500  26.2500 Du        
  11737 ****         1.5000   3.7500  26.5000 Du        
  11738 ****         1.5000   3.7500  26.7500 Du        
  11739 ****         1.5000   4.0000  13.0000 Du        
  11740 ****         1.5000   4.0000  13.2500 Du        
  11741 ****         1.5000   4.0000  26.2500 Du        
  11742 ****         1.5000   4.0000  26.5000 Du        
  11743 ****         1.5000   4.0000  26.7500 Du        
  11744 ****         1.5000   4.2500  13.0000 Du        
  11745 ****         1.5000   4.2500  13.2500 Du        
  11746 ****         1.5000   4.2500  26.0000 Du        
  11747 ****         1.5000   4.2500  26.2500 Du        
  11748 ****         1.5000   4.5000  13.0000 Du        
  11749 ****         1.5000   4.5000  26.0000 Du        
  11750 ****         1.5000   4.5000  26.2500 Du        
  11751 ****         1.5000   4.7500  13.0000 Du        
  11752 ****         1.5000   4.7500  26.0000 Du        
  11753 ****         1.5000   4.7500  26.2500 Du        
  11754 ****         1.5000   5.0000  26.0000 Du        
  11755 ****         1.5000   5.0000  26.2500 Du        
  11756 ****         1.7500   1.2500  13.0000 Du        
  11757 ****         1.7500   1.5000  12.7500 Du        
  11758 ****         1.7500   1.5000  13.0000 Du        
  11759 ****         1.7500   1.5000  13.2500 Du        
  11760 ****         1.7500   1.5000  13.5000 Du        
  11761 ****         1.7500   1.7500  12.7500 Du        
  11762 ****         1.7500   1.7500  13.0000 Du        
  11763 ****         1.7500   1.7500  13.2500 Du        
  11764 ****         1.7500   1.7500  13.5000 Du        
  11765 ****         1.7500   1.7500  13.7500 Du        
  11766 ****         1.7500   1.7500  14.0000 Du        
  11767 ****         1.7500   2.0000  12.5000 Du        
  11768 ****         1.7500   2.0000  12.7500 Du        
  11769 ****         1.7500   2.0000  13.0000 Du        
  11770 ****         1.7500   2.0000  13.2500 Du        
  11771 ****         1.7500   2.0000  13.5000 Du        
  11772 ****         1.7500   2.0000  13.7500 Du        
  11773 ****         1.7500   2.0000  14.0000 Du        
  11774 ****         1.7500   2.0000  14.2500 Du        
  11775 ****         1.7500   2.2500  12.5000 Du        
  11776 ****         1.7500   2.2500  12.7500 Du        
  11777 ****         1.7500   2.2500  13.0000 Du        
  11778 ****         1.7500   2.2500  13.2500 Du        
  11779 ****         1.7500   2.2500  13.5000 Du        
  11780 ****         1.7500   2.2500  13.7500 Du        
  11781 ****         1.7500   2.2500  14.0000 Du        
  11782 ****         1.7500   2.2500  14.2500 Du        
  11783 ****         1.7500   2.5000  12.7500 Du        
  11784 ****         1.7500   2.5000  13.0000 Du        
  11785 ****         1.7500   2.5000  13.2500 Du        
  11786 ****         1.7500   2.5000  13.5000 Du        
  11787 ****         1.7500   2.5000  13.7500 Du        
  11788 ****         1.7500   2.5000  14.0000 Du        
  11789 ****         1.7500   2.5000  14.2500 Du        
  11790 ****         1.7500   2.7500  12.7500 Du        
  11791 ****         1.7500   2.7500  13.0000 Du        
  11792 ****         1.7500   2.7500  13.2500 Du        
  11793 ****         1.7500   2.7500  13.5000 Du        
  11794 ****         1.7500   2.7500  13.7500 Du        
  11795 ****         1.7500   2.7500  14.0000 Du        
  11796 ****         1.7500   2.7500  14.2500 Du        
  11797 ****         1.7500   3.0000  12.7500 Du        
  11798 ****         1.7500   3.0000  13.0000 Du        
  11799 ****         1.7500   3.0000  13.2500 Du        
  11800 ****         1.7500   3.0000  13.5000 Du        
  11801 ****         1.7500   3.0000  13.7500 Du        
  11802 ****         1.7500   3.0000  14.0000 Du        
  11803 ****         1.7500   3.0000  26.2500 Du        
  11804 ****         1.7500   3.0000  26.5000 Du        
  11805 ****         1.7500   3.2500  12.7500 Du        
  11806 ****         1.7500   3.2500  13.0000 Du        
  11807 ****         1.7500   3.2500  13.2500 Du        
  11808 ****         1.7500   3.2500  13.5000 Du        
  11809 ****         1.7500   3.2500  13.7500 Du        
  11810 ****         1.7500   3.2500  26.2500 Du        
  11811 ****         1.7500   3.2500  26.5000 Du        
  11812 ****         1.7500   3.2500  26.7500 Du        
  11813 ****         1.7500   3.5000  13.0000 Du        
  11814 ****         1.7500   3.5000  13.2500 Du        
  11815 ****         1.7500   3.5000  13.5000 Du        
  11816 ****         1.7500   3.5000  13.7500 Du        
  11817 ****         1.7500   3.5000  26.2500 Du        
  11818 ****         1.7500   3.5000  26.5000 Du        
  11819 ****         1.7500   3.7500  13.0000 Du        
  11820 ****         1.7500   3.7500  13.2500 Du        
  11821 ****         1.7500   3.7500  13.5000 Du        
  11822 ****         1.7500   3.7500  26.2500 Du        
  11823 ****         1.7500   3.7500  26.5000 Du        
  11824 ****         1.7500   3.7500  26.7500 Du        
  11825 ****         1.7500   4.0000  13.0000 Du        
  11826 ****         1.7500   4.0000  13.2500 Du        
  11827 ****         1.7500   4.0000  26.2500 Du        
  11828 ****         1.7500   4.0000  26.5000 Du        
  11829 ****         1.7500   4.2500  13.0000 Du        
  11830 ****         1.7500   4.2500  13.2500 Du        
  11831 ****         1.7500   4.2500  26.0000 Du        
  11832 ****         1.7500   4.2500  26.2500 Du        
  11833 ****         1.7500   4.5000  13.0000 Du        
  11834 ****         1.7500   4.5000  26.0000 Du        
  11835 ****         1.7500   4.5000  26.2500 Du        
  11836 ****         1.7500   4.7500  13.0000 Du        
  11837 ****         1.7500   4.7500  26.0000 Du        
  11838 ****         1.7500   4.7500  26.2500 Du        
  11839 ****         1.7500   5.0000  13.0000 Du        
  11840 ****         1.7500   5.0000  26.0000 Du        
  11841 ****         1.7500   5.0000  26.2500 Du        
  11842 ****         2.0000   1.2500  13.0000 Du        
  11843 ****         2.0000   1.2500  13.2500 Du        
  11844 ****         2.0000   1.5000  12.7500 Du        
  11845 ****         2.0000   1.5000  13.0000 Du        
  11846 ****         2.0000   1.5000  13.2500 Du        
  11847 ****         2.0000   1.5000  13.5000 Du        
  11848 ****         2.0000   1.5000  13.7500 Du        
  11849 ****         2.0000   1.7500  12.7500 Du        
  11850 ****         2.0000   1.7500  13.0000 Du        
  11851 ****         2.0000   1.7500  13.2500 Du        
  11852 ****         2.0000   1.7500  13.5000 Du        
  11853 ****         2.0000   1.7500  13.7500 Du        
  11854 ****         2.0000   1.7500  14.0000 Du        
  11855 ****         2.0000   2.0000  12.5000 Du        
  11856 ****         2.0000   2.0000  12.7500 Du        
  11857 ****         2.0000   2.0000  13.0000 Du        
  11858 ****         2.0000   2.0000  13.2500 Du        
  11859 ****         2.0000   2.0000  13.5000 Du        
  11860 ****         2.0000   2.0000  13.7500 Du        
  11861 ****         2.0000   2.0000  14.0000 Du        
  11862 ****         2.0000   2.0000  14.2500 Du        
  11863 ****         2.0000   2.2500  12.5000 Du        
  11864 ****         2.0000   2.2500  12.7500 Du        
  11865 ****         2.0000   2.2500  13.0000 Du        
  11866 ****         2.0000   2.2500  13.2500 Du        
  11867 ****         2.0000   2.2500  13.5000 Du        
  11868 ****         2.0000   2.2500  13.7500 Du        
  11869 ****         2.0000   2.2500  14.0000 Du        
  11870 ****         2.0000   2.2500  14.2500 Du        
  11871 ****         2.0000   2.5000  12.7500 Du        
  11872 ****         2.0000   2.5000  13.0000 Du        
  11873 ****         2.0000   2.5000  13.2500 Du        
  11874 ****         2.0000   2.5000  13.5000 Du        
  11875 ****         2.0000   2.5000  13.7500 Du        
  11876 ****         2.0000   2.5000  14.0000 Du        
  11877 ****         2.0000   2.5000  14.2500 Du        
  11878 ****         2.0000   2.7500  12.7500 Du        
  11879 ****         2.0000   2.7500  13.0000 Du        
  11880 ****         2.0000   2.7500  13.2500 Du        
  11881 ****         2.0000   2.7500  13.5000 Du        
  11882 ****         2.0000   2.7500  13.7500 Du        
  11883 ****         2.0000   2.7500  14.0000 Du        
  11884 ****         2.0000   2.7500  14.2500 Du        
  11885 ****         2.0000   3.0000  12.7500 Du        
  11886 ****         2.0000   3.0000  13.0000 Du        
  11887 ****         2.0000   3.0000  13.2500 Du        
  11888 ****         2.0000   3.0000  13.5000 Du        
  11889 ****         2.0000   3.0000  13.7500 Du        
  11890 ****         2.0000   3.0000  14.0000 Du        
  11891 ****         2.0000   3.2500  12.7500 Du        
  11892 ****         2.0000   3.2500  13.0000 Du        
  11893 ****         2.0000   3.2500  13.2500 Du        
  11894 ****         2.0000   3.2500  13.5000 Du        
  11895 ****         2.0000   3.2500  13.7500 Du        
  11896 ****         2.0000   3.5000  12.7500 Du        
  11897 ****         2.0000   3.5000  13.0000 Du        
  11898 ****         2.0000   3.5000  13.2500 Du        
  11899 ****         2.0000   3.5000  13.5000 Du        
  11900 ****         2.0000   3.7500  12.7500 Du        
  11901 ****         2.0000   3.7500  13.0000 Du        
  11902 ****         2.0000   3.7500  13.2500 Du        
  11903 ****         2.0000   3.7500  13.5000 Du        
  11904 ****         2.0000   4.0000  12.7500 Du        
  11905 ****         2.0000   4.0000  13.0000 Du        
  11906 ****         2.0000   4.0000  13.2500 Du        
  11907 ****         2.0000   4.0000  26.2500 Du        
  11908 ****         2.0000   4.2500  12.7500 Du        
  11909 ****         2.0000   4.2500  13.0000 Du        
  11910 ****         2.0000   4.2500  13.2500 Du        
  11911 ****         2.0000   4.5000  12.7500 Du        
  11912 ****         2.0000   4.5000  13.0000 Du        
  11913 ****         2.0000   4.5000  26.0000 Du        
  11914 ****         2.0000   4.7500  12.7500 Du        
  11915 ****         2.0000   4.7500  13.0000 Du        
  11916 ****         2.0000   4.7500  26.0000 Du        
  11917 ****         2.0000   5.0000  12.7500 Du        
  11918 ****         2.0000   5.0000  13.0000 Du        
  11919 ****         2.0000   5.0000  26.0000 Du        
  11920 ****         2.0000   5.2500  12.7500 Du        
  11921 ****         2.0000   5.2500  13.0000 Du        
  11922 ****         2.0000   6.7500  25.2500 Du        
  11923 ****         2.0000   7.0000  25.0000 Du        
  11924 ****         2.0000   7.0000  25.2500 Du        
  11925 ****         2.0000   7.2500  24.7500 Du        
  11926 ****         2.0000   7.2500  25.0000 Du        
  11927 ****         2.0000   7.2500  25.2500 Du        
  11928 ****         2.2500   1.2500  13.0000 Du        
  11929 ****         2.2500   1.2500  13.2500 Du        
  11930 ****         2.2500   1.2500  13.5000 Du        
  11931 ****         2.2500   1.5000  12.7500 Du        
  11932 ****         2.2500   1.5000  13.0000 Du        
  11933 ****         2.2500   1.5000  13.2500 Du        
  11934 ****         2.2500   1.5000  13.5000 Du        
  11935 ****         2.2500   1.5000  13.7500 Du        
  11936 ****         2.2500   1.7500  12.7500 Du        
  11937 ****         2.2500   1.7500  13.0000 Du        
  11938 ****         2.2500   1.7500  13.2500 Du        
  11939 ****         2.2500   1.7500  13.5000 Du        
  11940 ****         2.2500   1.7500  13.7500 Du        
  11941 ****         2.2500   1.7500  14.0000 Du        
  11942 ****         2.2500   2.0000  12.5000 Du        
  11943 ****         2.2500   2.0000  12.7500 Du        
  11944 ****         2.2500   2.0000  13.0000 Du        
  11945 ****         2.2500   2.0000  13.2500 Du        
  11946 ****         2.2500   2.0000  13.5000 Du        
  11947 ****         2.2500   2.0000  13.7500 Du        
  11948 ****         2.2500   2.0000  14.0000 Du        
  11949 ****         2.2500   2.2500  12.5000 Du        
  11950 ****         2.2500   2.2500  12.7500 Du        
  11951 ****         2.2500   2.2500  13.0000 Du        
  11952 ****         2.2500   2.2500  13.2500 Du        
  11953 ****         2.2500   2.2500  13.5000 Du        
  11954 ****         2.2500   2.2500  13.7500 Du        
  11955 ****         2.2500   2.2500  14.0000 Du        
  11956 ****         2.2500   2.2500  14.2500 Du        
  11957 ****         2.2500   2.5000  12.5000 Du        
  11958 ****         2.2500   2.5000  12.7500 Du        
  11959 ****         2.2500   2.5000  13.0000 Du        
  11960 ****         2.2500   2.5000  13.2500 Du        
  11961 ****         2.2500   2.5000  13.5000 Du        
  11962 ****         2.2500   2.5000  13.7500 Du        
  11963 ****         2.2500   2.5000  14.0000 Du        
  11964 ****         2.2500   2.5000  14.2500 Du        
  11965 ****         2.2500   2.7500  12.7500 Du        
  11966 ****         2.2500   2.7500  13.0000 Du        
  11967 ****         2.2500   2.7500  13.2500 Du        
  11968 ****         2.2500   2.7500  13.5000 Du        
  11969 ****         2.2500   2.7500  13.7500 Du        
  11970 ****         2.2500   2.7500  14.0000 Du        
  11971 ****         2.2500   3.0000  12.7500 Du        
  11972 ****         2.2500   3.0000  13.0000 Du        
  11973 ****         2.2500   3.0000  13.2500 Du        
  11974 ****         2.2500   3.0000  13.5000 Du        
  11975 ****         2.2500   3.0000  13.7500 Du        
  11976 ****         2.2500   3.0000  14.0000 Du        
  11977 ****         2.2500   3.2500  12.7500 Du        
  11978 ****         2.2500   3.2500  13.0000 Du        
  11979 ****         2.2500   3.2500  13.2500 Du        
  11980 ****         2.2500   3.2500  13.5000 Du        
  11981 ****         2.2500   3.2500  13.7500 Du        
  11982 ****         2.2500   3.5000  12.7500 Du        
  11983 ****         2.2500   3.5000  13.0000 Du        
  11984 ****         2.2500   3.5000  13.2500 Du        
  11985 ****         2.2500   3.5000  13.5000 Du        
  11986 ****         2.2500   3.7500  12.7500 Du        
  11987 ****         2.2500   3.7500  13.0000 Du        
  11988 ****         2.2500   3.7500  13.2500 Du        
  11989 ****         2.2500   3.7500  13.5000 Du        
  11990 ****         2.2500   4.0000  12.7500 Du        
  11991 ****         2.2500   4.0000  13.0000 Du        
  11992 ****         2.2500   4.0000  13.2500 Du        
  11993 ****         2.2500   4.2500  12.7500 Du        
  11994 ****         2.2500   4.2500  13.0000 Du        
  11995 ****         2.2500   4.5000  12.7500 Du        
  11996 ****         2.2500   4.5000  13.0000 Du        
  11997 ****         2.2500   4.7500  12.7500 Du        
  11998 ****         2.2500   4.7500  13.0000 Du        
  11999 ****         2.2500   5.0000  12.7500 Du        
  12000 ****         2.2500   5.0000  13.0000 Du        
  12001 ****         2.2500   5.2500  12.7500 Du        
  12002 ****         2.2500   5.2500  13.0000 Du        
  12003 ****         2.2500   6.2500  25.2500 Du        
  12004 ****         2.2500   6.5000  25.2500 Du        
  12005 ****         2.2500   6.7500  25.0000 Du        
  12006 ****         2.2500   6.7500  25.2500 Du        
  12007 ****         2.2500   7.0000  24.7500 Du        
  12008 ****         2.2500   7.0000  25.0000 Du        
  12009 ****         2.2500   7.0000  25.2500 Du        
  12010 ****         2.2500   7.2500  24.5000 Du        
  12011 ****         2.2500   7.2500  24.7500 Du        
  12012 ****         2.2500   7.2500  25.0000 Du        
  12013 ****         2.2500   7.2500  25.2500 Du        
  12014 ****         2.2500   7.5000  24.7500 Du        
  12015 ****         2.2500   7.5000  25.0000 Du        
  12016 ****         2.5000   1.0000  13.0000 Du        
  12017 ****         2.5000   1.0000  13.2500 Du        
  12018 ****         2.5000   1.0000  13.5000 Du        
  12019 ****         2.5000   1.2500  13.0000 Du        
  12020 ****         2.5000   1.2500  13.2500 Du        
  12021 ****         2.5000   1.2500  13.5000 Du        
  12022 ****         2.5000   1.2500  13.7500 Du        
  12023 ****         2.5000   1.5000  12.7500 Du        
  12024 ****         2.5000   1.5000  13.0000 Du        
  12025 ****         2.5000   1.5000  13.2500 Du        
  12026 ****         2.5000   1.5000  13.5000 Du        
  12027 ****         2.5000   1.5000  13.7500 Du        
  12028 ****         2.5000   1.7500  12.7500 Du        
  12029 ****         2.5000   1.7500  13.0000 Du        
  12030 ****         2.5000   1.7500  13.2500 Du        
  12031 ****         2.5000   1.7500  13.5000 Du        
  12032 ****         2.5000   1.7500  13.7500 Du        
  12033 ****         2.5000   1.7500  14.0000 Du        
  12034 ****         2.5000   2.0000  12.5000 Du        
  12035 ****         2.5000   2.0000  12.7500 Du        
  12036 ****         2.5000   2.0000  13.0000 Du        
  12037 ****         2.5000   2.0000  13.2500 Du        
  12038 ****         2.5000   2.0000  13.5000 Du        
  12039 ****         2.5000   2.0000  13.7500 Du        
  12040 ****         2.5000   2.0000  14.0000 Du        
  12041 ****         2.5000   2.2500  12.5000 Du        
  12042 ****         2.5000   2.2500  12.7500 Du        
  12043 ****         2.5000   2.2500  13.0000 Du        
  12044 ****         2.5000   2.2500  13.2500 Du        
  12045 ****         2.5000   2.2500  13.5000 Du        
  12046 ****         2.5000   2.2500  13.7500 Du        
  12047 ****         2.5000   2.2500  14.0000 Du        
  12048 ****         2.5000   2.2500  14.2500 Du        
  12049 ****         2.5000   2.5000  12.5000 Du        
  12050 ****         2.5000   2.5000  12.7500 Du        
  12051 ****         2.5000   2.5000  13.0000 Du        
  12052 ****         2.5000   2.5000  13.2500 Du        
  12053 ****         2.5000   2.5000  13.5000 Du        
  12054 ****         2.5000   2.5000  13.7500 Du        
  12055 ****         2.5000   2.5000  14.0000 Du        
  12056 ****         2.5000   2.5000  14.2500 Du        
  12057 ****         2.5000   2.7500  12.5000 Du        
  12058 ****         2.5000   2.7500  12.7500 Du        
  12059 ****         2.5000   2.7500  13.0000 Du        
  12060 ****         2.5000   2.7500  13.2500 Du        
  12061 ****         2.5000   2.7500  13.5000 Du        
  12062 ****         2.5000   2.7500  13.7500 Du        
  12063 ****         2.5000   2.7500  14.0000 Du        
  12064 ****         2.5000   3.0000  12.5000 Du        
  12065 ****         2.5000   3.0000  12.7500 Du        
  12066 ****         2.5000   3.0000  13.0000 Du        
  12067 ****         2.5000   3.0000  13.2500 Du        
  12068 ****         2.5000   3.0000  13.5000 Du        
  12069 ****         2.5000   3.0000  13.7500 Du        
  12070 ****         2.5000   3.2500  12.7500 Du        
  12071 ****         2.5000   3.2500  13.0000 Du        
  12072 ****         2.5000   3.2500  13.2500 Du        
  12073 ****         2.5000   3.2500  13.5000 Du        
  12074 ****         2.5000   3.2500  13.7500 Du        
  12075 ****         2.5000   3.5000  12.7500 Du        
  12076 ****         2.5000   3.5000  13.0000 Du        
  12077 ****         2.5000   3.5000  13.2500 Du        
  12078 ****         2.5000   3.5000  13.5000 Du        
  12079 ****         2.5000   3.7500  12.7500 Du        
  12080 ****         2.5000   3.7500  13.0000 Du        
  12081 ****         2.5000   3.7500  13.2500 Du        
  12082 ****         2.5000   4.0000  12.7500 Du        
  12083 ****         2.5000   4.0000  13.0000 Du        
  12084 ****         2.5000   4.0000  13.2500 Du        
  12085 ****         2.5000   4.2500  12.7500 Du        
  12086 ****         2.5000   4.2500  13.0000 Du        
  12087 ****         2.5000   4.2500  13.2500 Du        
  12088 ****         2.5000   4.5000  12.7500 Du        
  12089 ****         2.5000   4.5000  13.0000 Du        
  12090 ****         2.5000   4.7500  12.7500 Du        
  12091 ****         2.5000   4.7500  13.0000 Du        
  12092 ****         2.5000   5.0000  12.5000 Du        
  12093 ****         2.5000   5.0000  12.7500 Du        
  12094 ****         2.5000   5.0000  13.0000 Du        
  12095 ****         2.5000   5.2500  12.7500 Du        
  12096 ****         2.5000   5.2500  13.0000 Du        
  12097 ****         2.5000   5.5000  12.7500 Du        
  12098 ****         2.5000   6.0000  25.2500 Du        
  12099 ****         2.5000   6.2500  25.2500 Du        
  12100 ****         2.5000   6.5000  25.0000 Du        
  12101 ****         2.5000   6.5000  25.2500 Du        
  12102 ****         2.5000   6.7500  24.7500 Du        
  12103 ****         2.5000   6.7500  25.0000 Du        
  12104 ****         2.5000   6.7500  25.2500 Du        
  12105 ****         2.5000   7.0000  24.2500 Du        
  12106 ****         2.5000   7.0000  24.5000 Du        
  12107 ****         2.5000   7.0000  24.7500 Du        
  12108 ****         2.5000   7.0000  25.0000 Du        
  12109 ****         2.5000   7.0000  25.2500 Du        
  12110 ****         2.5000   7.2500  24.0000 Du        
  12111 ****         2.5000   7.2500  24.2500 Du        
  12112 ****         2.5000   7.2500  24.5000 Du        
  12113 ****         2.5000   7.2500  24.7500 Du        
  12114 ****         2.5000   7.2500  25.0000 Du        
  12115 ****         2.5000   7.2500  25.2500 Du        
  12116 ****         2.5000   7.5000   6.0000 Du        
  12117 ****         2.5000   7.5000  24.2500 Du        
  12118 ****         2.5000   7.5000  24.5000 Du        
  12119 ****         2.5000   7.5000  24.7500 Du        
  12120 ****         2.5000   7.5000  25.0000 Du        
  12121 ****         2.5000   7.5000  25.2500 Du        
  12122 ****         2.5000   7.7500   6.0000 Du        
  12123 ****         2.5000   7.7500  24.5000 Du        
  12124 ****         2.5000   7.7500  24.7500 Du        
  12125 ****         2.5000   7.7500  25.0000 Du        
  12126 ****         2.5000   8.0000   6.0000 Du        
  12127 ****         2.7500   0.7500  13.2500 Du        
  12128 ****         2.7500   0.7500  13.5000 Du        
  12129 ****         2.7500   1.0000  13.0000 Du        
  12130 ****         2.7500   1.0000  13.2500 Du        
  12131 ****         2.7500   1.0000  13.5000 Du        
  12132 ****         2.7500   1.0000  13.7500 Du        
  12133 ****         2.7500   1.2500  12.7500 Du        
  12134 ****         2.7500   1.2500  13.0000 Du        
  12135 ****         2.7500   1.2500  13.2500 Du        
  12136 ****         2.7500   1.2500  13.5000 Du        
  12137 ****         2.7500   1.2500  13.7500 Du        
  12138 ****         2.7500   1.5000  12.7500 Du        
  12139 ****         2.7500   1.5000  13.0000 Du        
  12140 ****         2.7500   1.5000  13.2500 Du        
  12141 ****         2.7500   1.5000  13.5000 Du        
  12142 ****         2.7500   1.5000  13.7500 Du        
  12143 ****         2.7500   1.7500  12.7500 Du        
  12144 ****         2.7500   1.7500  13.0000 Du        
  12145 ****         2.7500   1.7500  13.2500 Du        
  12146 ****         2.7500   1.7500  13.5000 Du        
  12147 ****         2.7500   1.7500  13.7500 Du        
  12148 ****         2.7500   1.7500  14.0000 Du        
  12149 ****         2.7500   2.0000  12.5000 Du        
  12150 ****         2.7500   2.0000  12.7500 Du        
  12151 ****         2.7500   2.0000  13.0000 Du        
  12152 ****         2.7500   2.0000  13.2500 Du        
  12153 ****         2.7500   2.0000  13.5000 Du        
  12154 ****         2.7500   2.0000  13.7500 Du        
  12155 ****         2.7500   2.0000  14.0000 Du        
  12156 ****         2.7500   2.2500  12.5000 Du        
  12157 ****         2.7500   2.2500  12.7500 Du        
  12158 ****         2.7500   2.2500  13.0000 Du        
  12159 ****         2.7500   2.2500  13.2500 Du        
  12160 ****         2.7500   2.2500  13.5000 Du        
  12161 ****         2.7500   2.2500  13.7500 Du        
  12162 ****         2.7500   2.2500  14.0000 Du        
  12163 ****         2.7500   2.2500  14.2500 Du        
  12164 ****         2.7500   2.5000  12.5000 Du        
  12165 ****         2.7500   2.5000  12.7500 Du        
  12166 ****         2.7500   2.5000  13.0000 Du        
  12167 ****         2.7500   2.5000  13.2500 Du        
  12168 ****         2.7500   2.5000  13.5000 Du        
  12169 ****         2.7500   2.5000  13.7500 Du        
  12170 ****         2.7500   2.5000  14.0000 Du        
  12171 ****         2.7500   2.5000  14.2500 Du        
  12172 ****         2.7500   2.7500  12.5000 Du        
  12173 ****         2.7500   2.7500  12.7500 Du        
  12174 ****         2.7500   2.7500  13.0000 Du        
  12175 ****         2.7500   2.7500  13.2500 Du        
  12176 ****         2.7500   2.7500  13.5000 Du        
  12177 ****         2.7500   2.7500  13.7500 Du        
  12178 ****         2.7500   2.7500  14.0000 Du        
  12179 ****         2.7500   3.0000  12.5000 Du        
  12180 ****         2.7500   3.0000  12.7500 Du        
  12181 ****         2.7500   3.0000  13.0000 Du        
  12182 ****         2.7500   3.0000  13.2500 Du        
  12183 ****         2.7500   3.0000  13.5000 Du        
  12184 ****         2.7500   3.0000  13.7500 Du        
  12185 ****         2.7500   3.0000  14.0000 Du        
  12186 ****         2.7500   3.2500  12.5000 Du        
  12187 ****         2.7500   3.2500  12.7500 Du        
  12188 ****         2.7500   3.2500  13.0000 Du        
  12189 ****         2.7500   3.2500  13.2500 Du        
  12190 ****         2.7500   3.2500  13.5000 Du        
  12191 ****         2.7500   3.2500  13.7500 Du        
  12192 ****         2.7500   3.5000  12.5000 Du        
  12193 ****         2.7500   3.5000  12.7500 Du        
  12194 ****         2.7500   3.5000  13.0000 Du        
  12195 ****         2.7500   3.5000  13.2500 Du        
  12196 ****         2.7500   3.5000  13.5000 Du        
  12197 ****         2.7500   3.7500  12.5000 Du        
  12198 ****         2.7500   3.7500  12.7500 Du        
  12199 ****         2.7500   3.7500  13.0000 Du        
  12200 ****         2.7500   3.7500  13.2500 Du        
  12201 ****         2.7500   3.7500  13.5000 Du        
  12202 ****         2.7500   4.0000  12.5000 Du        
  12203 ****         2.7500   4.0000  12.7500 Du        
  12204 ****         2.7500   4.0000  13.0000 Du        
  12205 ****         2.7500   4.0000  13.2500 Du        
  12206 ****         2.7500   4.2500  12.5000 Du        
  12207 ****         2.7500   4.2500  12.7500 Du        
  12208 ****         2.7500   4.2500  13.0000 Du        
  12209 ****         2.7500   4.2500  13.2500 Du        
  12210 ****         2.7500   4.5000  12.5000 Du        
  12211 ****         2.7500   4.5000  12.7500 Du        
  12212 ****         2.7500   4.5000  13.0000 Du        
  12213 ****         2.7500   4.7500  12.5000 Du        
  12214 ****         2.7500   4.7500  12.7500 Du        
  12215 ****         2.7500   4.7500  13.0000 Du        
  12216 ****         2.7500   5.0000  12.5000 Du        
  12217 ****         2.7500   5.0000  12.7500 Du        
  12218 ****         2.7500   5.0000  13.0000 Du        
  12219 ****         2.7500   5.2500  12.2500 Du        
  12220 ****         2.7500   5.2500  12.5000 Du        
  12221 ****         2.7500   5.2500  12.7500 Du        
  12222 ****         2.7500   5.2500  13.0000 Du        
  12223 ****         2.7500   5.5000  12.2500 Du        
  12224 ****         2.7500   5.5000  12.5000 Du        
  12225 ****         2.7500   5.5000  12.7500 Du        
  12226 ****         2.7500   5.5000  13.0000 Du        
  12227 ****         2.7500   5.7500  12.2500 Du        
  12228 ****         2.7500   5.7500  12.5000 Du        
  12229 ****         2.7500   5.7500  12.7500 Du        
  12230 ****         2.7500   6.0000  12.7500 Du        
  12231 ****         2.7500   6.2500  25.0000 Du        
  12232 ****         2.7500   6.2500  25.2500 Du        
  12233 ****         2.7500   6.5000  24.7500 Du        
  12234 ****         2.7500   6.5000  25.0000 Du        
  12235 ****         2.7500   6.5000  25.2500 Du        
  12236 ****         2.7500   6.7500  24.5000 Du        
  12237 ****         2.7500   6.7500  24.7500 Du        
  12238 ****         2.7500   6.7500  25.0000 Du        
  12239 ****         2.7500   6.7500  25.2500 Du        
  12240 ****         2.7500   7.0000  24.0000 Du        
  12241 ****         2.7500   7.0000  24.2500 Du        
  12242 ****         2.7500   7.0000  24.5000 Du        
  12243 ****         2.7500   7.0000  24.7500 Du        
  12244 ****         2.7500   7.0000  25.0000 Du        
  12245 ****         2.7500   7.0000  25.2500 Du        
  12246 ****         2.7500   7.2500   6.0000 Du        
  12247 ****         2.7500   7.2500  23.7500 Du        
  12248 ****         2.7500   7.2500  24.0000 Du        
  12249 ****         2.7500   7.2500  24.2500 Du        
  12250 ****         2.7500   7.2500  24.5000 Du        
  12251 ****         2.7500   7.2500  24.7500 Du        
  12252 ****         2.7500   7.2500  25.0000 Du        
  12253 ****         2.7500   7.2500  25.2500 Du        
  12254 ****         2.7500   7.5000   6.0000 Du        
  12255 ****         2.7500   7.5000   6.2500 Du        
  12256 ****         2.7500   7.5000  24.0000 Du        
  12257 ****         2.7500   7.5000  24.2500 Du        
  12258 ****         2.7500   7.5000  24.5000 Du        
  12259 ****         2.7500   7.5000  24.7500 Du        
  12260 ****         2.7500   7.5000  25.0000 Du        
  12261 ****         2.7500   7.5000  25.2500 Du        
  12262 ****         2.7500   7.7500   6.0000 Du        
  12263 ****         2.7500   7.7500   6.2500 Du        
  12264 ****         2.7500   7.7500  24.2500 Du        
  12265 ****         2.7500   7.7500  24.5000 Du        
  12266 ****         2.7500   7.7500  24.7500 Du        
  12267 ****         2.7500   7.7500  25.0000 Du        
  12268 ****         2.7500   7.7500  25.2500 Du        
  12269 ****         2.7500   8.0000   6.0000 Du        
  12270 ****         2.7500   8.0000   6.2500 Du        
  12271 ****         2.7500   8.0000   6.5000 Du        
  12272 ****         2.7500   8.0000  24.5000 Du        
  12273 ****         2.7500   8.0000  24.7500 Du        
  12274 ****         2.7500   8.0000  25.0000 Du        
  12275 ****         2.7500   8.2500   6.0000 Du        
  12276 ****         2.7500   8.2500   6.2500 Du        
  12277 ****         3.0000   0.7500  13.0000 Du        
  12278 ****         3.0000   0.7500  13.2500 Du        
  12279 ****         3.0000   0.7500  13.5000 Du        
  12280 ****         3.0000   0.7500  13.7500 Du        
  12281 ****         3.0000   1.0000  13.0000 Du        
  12282 ****         3.0000   1.0000  13.2500 Du        
  12283 ****         3.0000   1.0000  13.5000 Du        
  12284 ****         3.0000   1.0000  13.7500 Du        
  12285 ****         3.0000   1.2500  12.7500 Du        
  12286 ****         3.0000   1.2500  13.0000 Du        
  12287 ****         3.0000   1.2500  13.2500 Du        
  12288 ****         3.0000   1.2500  13.5000 Du        
  12289 ****         3.0000   1.2500  13.7500 Du        
  12290 ****         3.0000   1.5000  12.7500 Du        
  12291 ****         3.0000   1.5000  13.0000 Du        
  12292 ****         3.0000   1.5000  13.2500 Du        
  12293 ****         3.0000   1.5000  13.5000 Du        
  12294 ****         3.0000   1.5000  13.7500 Du        
  12295 ****         3.0000   1.5000  14.0000 Du        
  12296 ****         3.0000   1.7500  12.7500 Du        
  12297 ****         3.0000   1.7500  13.0000 Du        
  12298 ****         3.0000   1.7500  13.2500 Du        
  12299 ****         3.0000   1.7500  13.5000 Du        
  12300 ****         3.0000   1.7500  13.7500 Du        
  12301 ****         3.0000   1.7500  14.0000 Du        
  12302 ****         3.0000   2.0000  12.5000 Du        
  12303 ****         3.0000   2.0000  12.7500 Du        
  12304 ****         3.0000   2.0000  13.0000 Du        
  12305 ****         3.0000   2.0000  13.2500 Du        
  12306 ****         3.0000   2.0000  13.5000 Du        
  12307 ****         3.0000   2.0000  13.7500 Du        
  12308 ****         3.0000   2.0000  14.0000 Du        
  12309 ****         3.0000   2.2500  12.5000 Du        
  12310 ****         3.0000   2.2500  12.7500 Du        
  12311 ****         3.0000   2.2500  13.0000 Du        
  12312 ****         3.0000   2.2500  13.2500 Du        
  12313 ****         3.0000   2.2500  13.5000 Du        
  12314 ****         3.0000   2.2500  13.7500 Du        
  12315 ****         3.0000   2.2500  14.0000 Du        
  12316 ****         3.0000   2.2500  14.2500 Du        
  12317 ****         3.0000   2.5000  12.5000 Du        
  12318 ****         3.0000   2.5000  12.7500 Du        
  12319 ****         3.0000   2.5000  13.0000 Du        
  12320 ****         3.0000   2.5000  13.2500 Du        
  12321 ****         3.0000   2.5000  13.5000 Du        
  12322 ****         3.0000   2.5000  13.7500 Du        
  12323 ****         3.0000   2.5000  14.0000 Du        
  12324 ****         3.0000   2.5000  14.2500 Du        
  12325 ****         3.0000   2.7500  12.2500 Du        
  12326 ****         3.0000   2.7500  12.5000 Du        
  12327 ****         3.0000   2.7500  12.7500 Du        
  12328 ****         3.0000   2.7500  13.0000 Du        
  12329 ****         3.0000   2.7500  13.2500 Du        
  12330 ****         3.0000   2.7500  13.5000 Du        
  12331 ****         3.0000   2.7500  13.7500 Du        
  12332 ****         3.0000   2.7500  14.0000 Du        
  12333 ****         3.0000   3.0000  12.2500 Du        
  12334 ****         3.0000   3.0000  12.5000 Du        
  12335 ****         3.0000   3.0000  12.7500 Du        
  12336 ****         3.0000   3.0000  13.0000 Du        
  12337 ****         3.0000   3.0000  13.2500 Du        
  12338 ****         3.0000   3.0000  13.5000 Du        
  12339 ****         3.0000   3.0000  13.7500 Du        
  12340 ****         3.0000   3.0000  14.0000 Du        
  12341 ****         3.0000   3.2500  12.2500 Du        
  12342 ****         3.0000   3.2500  12.5000 Du        
  12343 ****         3.0000   3.2500  12.7500 Du        
  12344 ****         3.0000   3.2500  13.0000 Du        
  12345 ****         3.0000   3.2500  13.2500 Du        
  12346 ****         3.0000   3.2500  13.5000 Du        
  12347 ****         3.0000   3.2500  13.7500 Du        
  12348 ****         3.0000   3.5000  12.5000 Du        
  12349 ****         3.0000   3.5000  12.7500 Du        
  12350 ****         3.0000   3.5000  13.0000 Du        
  12351 ****         3.0000   3.5000  13.2500 Du        
  12352 ****         3.0000   3.5000  13.5000 Du        
  12353 ****         3.0000   3.7500  12.5000 Du        
  12354 ****         3.0000   3.7500  12.7500 Du        
  12355 ****         3.0000   3.7500  13.0000 Du        
  12356 ****         3.0000   3.7500  13.2500 Du        
  12357 ****         3.0000   3.7500  13.5000 Du        
  12358 ****         3.0000   4.0000  12.2500 Du        
  12359 ****         3.0000   4.0000  12.5000 Du        
  12360 ****         3.0000   4.0000  12.7500 Du        
  12361 ****         3.0000   4.0000  13.0000 Du        
  12362 ****         3.0000   4.0000  13.2500 Du        
  12363 ****         3.0000   4.2500  12.2500 Du        
  12364 ****         3.0000   4.2500  12.5000 Du        
  12365 ****         3.0000   4.2500  12.7500 Du        
  12366 ****         3.0000   4.2500  13.0000 Du        
  12367 ****         3.0000   4.2500  13.2500 Du        
  12368 ****         3.0000   4.5000  12.5000 Du        
  12369 ****         3.0000   4.5000  12.7500 Du        
  12370 ****         3.0000   4.5000  13.0000 Du        
  12371 ****         3.0000   4.5000  13.2500 Du        
  12372 ****         3.0000   4.7500  12.2500 Du        
  12373 ****         3.0000   4.7500  12.5000 Du        
  12374 ****         3.0000   4.7500  12.7500 Du        
  12375 ****         3.0000   4.7500  13.0000 Du        
  12376 ****         3.0000   4.7500  13.2500 Du        
  12377 ****         3.0000   5.0000  12.2500 Du        
  12378 ****         3.0000   5.0000  12.5000 Du        
  12379 ****         3.0000   5.0000  12.7500 Du        
  12380 ****         3.0000   5.0000  13.0000 Du        
  12381 ****         3.0000   5.2500  12.2500 Du        
  12382 ****         3.0000   5.2500  12.5000 Du        
  12383 ****         3.0000   5.2500  12.7500 Du        
  12384 ****         3.0000   5.2500  13.0000 Du        
  12385 ****         3.0000   5.5000  12.2500 Du        
  12386 ****         3.0000   5.5000  12.5000 Du        
  12387 ****         3.0000   5.5000  12.7500 Du        
  12388 ****         3.0000   5.5000  13.0000 Du        
  12389 ****         3.0000   5.7500  12.2500 Du        
  12390 ****         3.0000   5.7500  12.5000 Du        
  12391 ****         3.0000   5.7500  12.7500 Du        
  12392 ****         3.0000   5.7500  13.0000 Du        
  12393 ****         3.0000   6.0000  12.0000 Du        
  12394 ****         3.0000   6.0000  12.2500 Du        
  12395 ****         3.0000   6.0000  12.5000 Du        
  12396 ****         3.0000   6.0000  12.7500 Du        
  12397 ****         3.0000   6.2500  12.0000 Du        
  12398 ****         3.0000   6.2500  12.2500 Du        
  12399 ****         3.0000   6.2500  12.5000 Du        
  12400 ****         3.0000   6.5000  12.2500 Du        
  12401 ****         3.0000   6.7500  24.2500 Du        
  12402 ****         3.0000   6.7500  24.5000 Du        
  12403 ****         3.0000   6.7500  24.7500 Du        
  12404 ****         3.0000   6.7500  25.0000 Du        
  12405 ****         3.0000   6.7500  25.2500 Du        
  12406 ****         3.0000   7.0000   6.0000 Du        
  12407 ****         3.0000   7.0000  23.7500 Du        
  12408 ****         3.0000   7.0000  24.0000 Du        
  12409 ****         3.0000   7.0000  24.2500 Du        
  12410 ****         3.0000   7.0000  24.5000 Du        
  12411 ****         3.0000   7.0000  24.7500 Du        
  12412 ****         3.0000   7.0000  25.0000 Du        
  12413 ****         3.0000   7.0000  25.2500 Du        
  12414 ****         3.0000   7.2500   6.0000 Du        
  12415 ****         3.0000   7.2500   6.2500 Du        
  12416 ****         3.0000   7.2500  23.7500 Du        
  12417 ****         3.0000   7.2500  24.0000 Du        
  12418 ****         3.0000   7.2500  24.2500 Du        
  12419 ****         3.0000   7.2500  24.5000 Du        
  12420 ****         3.0000   7.2500  24.7500 Du        
  12421 ****         3.0000   7.2500  25.0000 Du        
  12422 ****         3.0000   7.2500  25.2500 Du        
  12423 ****         3.0000   7.5000   6.0000 Du        
  12424 ****         3.0000   7.5000   6.2500 Du        
  12425 ****         3.0000   7.5000   6.5000 Du        
  12426 ****         3.0000   7.5000  23.7500 Du        
  12427 ****         3.0000   7.5000  24.0000 Du        
  12428 ****         3.0000   7.5000  24.2500 Du        
  12429 ****         3.0000   7.5000  24.5000 Du        
  12430 ****         3.0000   7.5000  24.7500 Du        
  12431 ****         3.0000   7.5000  25.0000 Du        
  12432 ****         3.0000   7.5000  25.2500 Du        
  12433 ****         3.0000   7.7500   6.0000 Du        
  12434 ****         3.0000   7.7500   6.2500 Du        
  12435 ****         3.0000   7.7500   6.5000 Du        
  12436 ****         3.0000   7.7500  23.7500 Du        
  12437 ****         3.0000   7.7500  24.0000 Du        
  12438 ****         3.0000   7.7500  24.2500 Du        
  12439 ****         3.0000   7.7500  24.5000 Du        
  12440 ****         3.0000   7.7500  24.7500 Du        
  12441 ****         3.0000   7.7500  25.0000 Du        
  12442 ****         3.0000   7.7500  25.2500 Du        
  12443 ****         3.0000   8.0000   6.0000 Du        
  12444 ****         3.0000   8.0000   6.2500 Du        
  12445 ****         3.0000   8.0000   6.5000 Du        
  12446 ****         3.0000   8.0000   6.7500 Du        
  12447 ****         3.0000   8.0000  24.0000 Du        
  12448 ****         3.0000   8.0000  24.2500 Du        
  12449 ****         3.0000   8.0000  24.5000 Du        
  12450 ****         3.0000   8.0000  24.7500 Du        
  12451 ****         3.0000   8.0000  25.0000 Du        
  12452 ****         3.0000   8.0000  25.2500 Du        
  12453 ****         3.0000   8.2500   6.0000 Du        
  12454 ****         3.0000   8.2500   6.2500 Du        
  12455 ****         3.0000   8.2500   6.5000 Du        
  12456 ****         3.0000   8.2500   6.7500 Du        
  12457 ****         3.0000   8.2500  24.5000 Du        
  12458 ****         3.0000   8.2500  24.7500 Du        
  12459 ****         3.0000   8.2500  25.0000 Du        
  12460 ****         3.0000   8.5000   6.0000 Du        
  12461 ****         3.0000   8.5000   6.2500 Du        
  12462 ****         3.2500   0.5000  13.2500 Du        
  12463 ****         3.2500   0.5000  13.5000 Du        
  12464 ****         3.2500   0.7500  13.0000 Du        
  12465 ****         3.2500   0.7500  13.2500 Du        
  12466 ****         3.2500   0.7500  13.5000 Du        
  12467 ****         3.2500   0.7500  13.7500 Du        
  12468 ****         3.2500   1.0000  13.0000 Du        
  12469 ****         3.2500   1.0000  13.2500 Du        
  12470 ****         3.2500   1.0000  13.5000 Du        
  12471 ****         3.2500   1.0000  13.7500 Du        
  12472 ****         3.2500   1.2500  12.7500 Du        
  12473 ****         3.2500   1.2500  13.0000 Du        
  12474 ****         3.2500   1.2500  13.2500 Du        
  12475 ****         3.2500   1.2500  13.5000 Du        
  12476 ****         3.2500   1.2500  13.7500 Du        
  12477 ****         3.2500   1.2500  14.0000 Du        
  12478 ****         3.2500   1.5000  12.7500 Du        
  12479 ****         3.2500   1.5000  13.0000 Du        
  12480 ****         3.2500   1.5000  13.2500 Du        
  12481 ****         3.2500   1.5000  13.5000 Du        
  12482 ****         3.2500   1.5000  13.7500 Du        
  12483 ****         3.2500   1.5000  14.0000 Du        
  12484 ****         3.2500   1.7500  12.5000 Du        
  12485 ****         3.2500   1.7500  12.7500 Du        
  12486 ****         3.2500   1.7500  13.0000 Du        
  12487 ****         3.2500   1.7500  13.2500 Du        
  12488 ****         3.2500   1.7500  13.5000 Du        
  12489 ****         3.2500   1.7500  13.7500 Du        
  12490 ****         3.2500   1.7500  14.0000 Du        
  12491 ****         3.2500   2.0000  12.5000 Du        
  12492 ****         3.2500   2.0000  12.7500 Du        
  12493 ****         3.2500   2.0000  13.0000 Du        
  12494 ****         3.2500   2.0000  13.2500 Du        
  12495 ****         3.2500   2.0000  13.5000 Du        
  12496 ****         3.2500   2.0000  13.7500 Du        
  12497 ****         3.2500   2.0000  14.0000 Du        
  12498 ****         3.2500   2.0000  14.2500 Du        
  12499 ****         3.2500   2.2500  12.5000 Du        
  12500 ****         3.2500   2.2500  12.7500 Du        
  12501 ****         3.2500   2.2500  13.0000 Du        
  12502 ****         3.2500   2.2500  13.2500 Du        
  12503 ****         3.2500   2.2500  13.5000 Du        
  12504 ****         3.2500   2.2500  13.7500 Du        
  12505 ****         3.2500   2.2500  14.0000 Du        
  12506 ****         3.2500   2.2500  14.2500 Du        
  12507 ****         3.2500   2.5000  12.2500 Du        
  12508 ****         3.2500   2.5000  12.5000 Du        
  12509 ****         3.2500   2.5000  12.7500 Du        
  12510 ****         3.2500   2.5000  13.0000 Du        
  12511 ****         3.2500   2.5000  13.2500 Du        
  12512 ****         3.2500   2.5000  13.5000 Du        
  12513 ****         3.2500   2.5000  13.7500 Du        
  12514 ****         3.2500   2.5000  14.0000 Du        
  12515 ****         3.2500   2.5000  14.2500 Du        
  12516 ****         3.2500   2.7500  12.2500 Du        
  12517 ****         3.2500   2.7500  12.5000 Du        
  12518 ****         3.2500   2.7500  12.7500 Du        
  12519 ****         3.2500   2.7500  13.0000 Du        
  12520 ****         3.2500   2.7500  13.2500 Du        
  12521 ****         3.2500   2.7500  13.5000 Du        
  12522 ****         3.2500   2.7500  13.7500 Du        
  12523 ****         3.2500   2.7500  14.0000 Du        
  12524 ****         3.2500   3.0000  12.2500 Du        
  12525 ****         3.2500   3.0000  12.5000 Du        
  12526 ****         3.2500   3.0000  12.7500 Du        
  12527 ****         3.2500   3.0000  13.0000 Du        
  12528 ****         3.2500   3.0000  13.2500 Du        
  12529 ****         3.2500   3.0000  13.5000 Du        
  12530 ****         3.2500   3.0000  13.7500 Du        
  12531 ****         3.2500   3.0000  14.0000 Du        
  12532 ****         3.2500   3.2500  12.2500 Du        
  12533 ****         3.2500   3.2500  12.5000 Du        
  12534 ****         3.2500   3.2500  12.7500 Du        
  12535 ****         3.2500   3.2500  13.0000 Du        
  12536 ****         3.2500   3.2500  13.2500 Du        
  12537 ****         3.2500   3.2500  13.5000 Du        
  12538 ****         3.2500   3.2500  13.7500 Du        
  12539 ****         3.2500   3.5000  12.2500 Du        
  12540 ****         3.2500   3.5000  12.5000 Du        
  12541 ****         3.2500   3.5000  12.7500 Du        
  12542 ****         3.2500   3.5000  13.0000 Du        
  12543 ****         3.2500   3.5000  13.2500 Du        
  12544 ****         3.2500   3.5000  13.5000 Du        
  12545 ****         3.2500   3.7500  12.2500 Du        
  12546 ****         3.2500   3.7500  12.5000 Du        
  12547 ****         3.2500   3.7500  12.7500 Du        
  12548 ****         3.2500   3.7500  13.0000 Du        
  12549 ****         3.2500   3.7500  13.2500 Du        
  12550 ****         3.2500   3.7500  13.5000 Du        
  12551 ****         3.2500   4.0000  12.2500 Du        
  12552 ****         3.2500   4.0000  12.5000 Du        
  12553 ****         3.2500   4.0000  12.7500 Du        
  12554 ****         3.2500   4.0000  13.0000 Du        
  12555 ****         3.2500   4.0000  13.2500 Du        
  12556 ****         3.2500   4.2500  12.2500 Du        
  12557 ****         3.2500   4.2500  12.5000 Du        
  12558 ****         3.2500   4.2500  12.7500 Du        
  12559 ****         3.2500   4.2500  13.0000 Du        
  12560 ****         3.2500   4.2500  13.2500 Du        
  12561 ****         3.2500   4.5000  12.2500 Du        
  12562 ****         3.2500   4.5000  12.5000 Du        
  12563 ****         3.2500   4.5000  12.7500 Du        
  12564 ****         3.2500   4.5000  13.0000 Du        
  12565 ****         3.2500   4.5000  13.2500 Du        
  12566 ****         3.2500   4.7500  12.0000 Du        
  12567 ****         3.2500   4.7500  12.2500 Du        
  12568 ****         3.2500   4.7500  12.5000 Du        
  12569 ****         3.2500   4.7500  12.7500 Du        
  12570 ****         3.2500   4.7500  13.0000 Du        
  12571 ****         3.2500   4.7500  13.2500 Du        
  12572 ****         3.2500   5.0000  12.0000 Du        
  12573 ****         3.2500   5.0000  12.2500 Du        
  12574 ****         3.2500   5.0000  12.5000 Du        
  12575 ****         3.2500   5.0000  12.7500 Du        
  12576 ****         3.2500   5.0000  13.0000 Du        
  12577 ****         3.2500   5.0000  13.2500 Du        
  12578 ****         3.2500   5.2500  12.0000 Du        
  12579 ****         3.2500   5.2500  12.2500 Du        
  12580 ****         3.2500   5.2500  12.5000 Du        
  12581 ****         3.2500   5.2500  12.7500 Du        
  12582 ****         3.2500   5.2500  13.0000 Du        
  12583 ****         3.2500   5.2500  13.2500 Du        
  12584 ****         3.2500   5.5000  12.0000 Du        
  12585 ****         3.2500   5.5000  12.2500 Du        
  12586 ****         3.2500   5.5000  12.5000 Du        
  12587 ****         3.2500   5.5000  12.7500 Du        
  12588 ****         3.2500   5.5000  13.0000 Du        
  12589 ****         3.2500   5.7500  12.0000 Du        
  12590 ****         3.2500   5.7500  12.2500 Du        
  12591 ****         3.2500   5.7500  12.5000 Du        
  12592 ****         3.2500   5.7500  12.7500 Du        
  12593 ****         3.2500   5.7500  13.0000 Du        
  12594 ****         3.2500   6.0000  12.0000 Du        
  12595 ****         3.2500   6.0000  12.2500 Du        
  12596 ****         3.2500   6.0000  12.5000 Du        
  12597 ****         3.2500   6.0000  12.7500 Du        
  12598 ****         3.2500   6.0000  13.0000 Du        
  12599 ****         3.2500   6.2500  12.0000 Du        
  12600 ****         3.2500   6.2500  12.2500 Du        
  12601 ****         3.2500   6.2500  12.5000 Du        
  12602 ****         3.2500   6.2500  12.7500 Du        
  12603 ****         3.2500   6.5000  12.0000 Du        
  12604 ****         3.2500   6.5000  12.2500 Du        
  12605 ****         3.2500   6.7500   6.0000 Du        
  12606 ****         3.2500   6.7500  12.2500 Du        
  12607 ****         3.2500   7.0000   6.0000 Du        
  12608 ****         3.2500   7.0000   6.2500 Du        
  12609 ****         3.2500   7.0000  23.7500 Du        
  12610 ****         3.2500   7.0000  24.0000 Du        
  12611 ****         3.2500   7.0000  24.2500 Du        
  12612 ****         3.2500   7.0000  24.5000 Du        
  12613 ****         3.2500   7.0000  24.7500 Du        
  12614 ****         3.2500   7.0000  25.0000 Du        
  12615 ****         3.2500   7.2500   6.0000 Du        
  12616 ****         3.2500   7.2500   6.2500 Du        
  12617 ****         3.2500   7.2500   6.5000 Du        
  12618 ****         3.2500   7.2500  23.5000 Du        
  12619 ****         3.2500   7.2500  23.7500 Du        
  12620 ****         3.2500   7.2500  24.0000 Du        
  12621 ****         3.2500   7.2500  24.2500 Du        
  12622 ****         3.2500   7.2500  24.5000 Du        
  12623 ****         3.2500   7.2500  24.7500 Du        
  12624 ****         3.2500   7.2500  25.0000 Du        
  12625 ****         3.2500   7.2500  25.2500 Du        
  12626 ****         3.2500   7.5000   6.0000 Du        
  12627 ****         3.2500   7.5000   6.2500 Du        
  12628 ****         3.2500   7.5000   6.5000 Du        
  12629 ****         3.2500   7.5000  23.5000 Du        
  12630 ****         3.2500   7.5000  23.7500 Du        
  12631 ****         3.2500   7.5000  24.0000 Du        
  12632 ****         3.2500   7.5000  24.2500 Du        
  12633 ****         3.2500   7.5000  24.5000 Du        
  12634 ****         3.2500   7.5000  24.7500 Du        
  12635 ****         3.2500   7.5000  25.0000 Du        
  12636 ****         3.2500   7.5000  25.2500 Du        
  12637 ****         3.2500   7.7500   6.0000 Du        
  12638 ****         3.2500   7.7500   6.2500 Du        
  12639 ****         3.2500   7.7500   6.5000 Du        
  12640 ****         3.2500   7.7500   6.7500 Du        
  12641 ****         3.2500   7.7500  23.5000 Du        
  12642 ****         3.2500   7.7500  23.7500 Du        
  12643 ****         3.2500   7.7500  24.0000 Du        
  12644 ****         3.2500   7.7500  24.2500 Du        
  12645 ****         3.2500   7.7500  24.5000 Du        
  12646 ****         3.2500   7.7500  24.7500 Du        
  12647 ****         3.2500   7.7500  25.0000 Du        
  12648 ****         3.2500   7.7500  25.2500 Du        
  12649 ****         3.2500   8.0000   6.0000 Du        
  12650 ****         3.2500   8.0000   6.2500 Du        
  12651 ****         3.2500   8.0000   6.5000 Du        
  12652 ****         3.2500   8.0000   6.7500 Du        
  12653 ****         3.2500   8.0000   7.0000 Du        
  12654 ****         3.2500   8.0000  23.7500 Du        
  12655 ****         3.2500   8.0000  24.0000 Du        
  12656 ****         3.2500   8.0000  24.2500 Du        
  12657 ****         3.2500   8.0000  24.5000 Du        
  12658 ****         3.2500   8.0000  24.7500 Du        
  12659 ****         3.2500   8.0000  25.0000 Du        
  12660 ****         3.2500   8.0000  25.2500 Du        
  12661 ****         3.2500   8.2500   6.0000 Du        
  12662 ****         3.2500   8.2500   6.2500 Du        
  12663 ****         3.2500   8.2500   6.5000 Du        
  12664 ****         3.2500   8.2500   6.7500 Du        
  12665 ****         3.2500   8.2500   7.0000 Du        
  12666 ****         3.2500   8.2500  24.2500 Du        
  12667 ****         3.2500   8.2500  24.5000 Du        
  12668 ****         3.2500   8.2500  24.7500 Du        
  12669 ****         3.2500   8.2500  25.0000 Du        
  12670 ****         3.2500   8.5000   6.0000 Du        
  12671 ****         3.2500   8.5000   6.2500 Du        
  12672 ****         3.2500   8.5000   6.5000 Du        
  12673 ****         3.2500   8.5000   6.7500 Du        
  12674 ****         3.5000   0.5000  13.2500 Du        
  12675 ****         3.5000   0.5000  13.5000 Du        
  12676 ****         3.5000   0.7500  13.0000 Du        
  12677 ****         3.5000   0.7500  13.2500 Du        
  12678 ****         3.5000   0.7500  13.5000 Du        
  12679 ****         3.5000   0.7500  13.7500 Du        
  12680 ****         3.5000   1.0000  12.7500 Du        
  12681 ****         3.5000   1.0000  13.0000 Du        
  12682 ****         3.5000   1.0000  13.2500 Du        
  12683 ****         3.5000   1.0000  13.5000 Du        
  12684 ****         3.5000   1.0000  13.7500 Du        
  12685 ****         3.5000   1.2500  12.7500 Du        
  12686 ****         3.5000   1.2500  13.0000 Du        
  12687 ****         3.5000   1.2500  13.2500 Du        
  12688 ****         3.5000   1.2500  13.5000 Du        
  12689 ****         3.5000   1.2500  13.7500 Du        
  12690 ****         3.5000   1.2500  14.0000 Du        
  12691 ****         3.5000   1.5000  12.7500 Du        
  12692 ****         3.5000   1.5000  13.0000 Du        
  12693 ****         3.5000   1.5000  13.2500 Du        
  12694 ****         3.5000   1.5000  13.5000 Du        
  12695 ****         3.5000   1.5000  13.7500 Du        
  12696 ****         3.5000   1.5000  14.0000 Du        
  12697 ****         3.5000   1.7500  12.5000 Du        
  12698 ****         3.5000   1.7500  12.7500 Du        
  12699 ****         3.5000   1.7500  13.0000 Du        
  12700 ****         3.5000   1.7500  13.2500 Du        
  12701 ****         3.5000   1.7500  13.5000 Du        
  12702 ****         3.5000   1.7500  13.7500 Du        
  12703 ****         3.5000   1.7500  14.0000 Du        
  12704 ****         3.5000   2.0000  12.5000 Du        
  12705 ****         3.5000   2.0000  12.7500 Du        
  12706 ****         3.5000   2.0000  13.0000 Du        
  12707 ****         3.5000   2.0000  13.2500 Du        
  12708 ****         3.5000   2.0000  13.5000 Du        
  12709 ****         3.5000   2.0000  13.7500 Du        
  12710 ****         3.5000   2.0000  14.0000 Du        
  12711 ****         3.5000   2.0000  14.2500 Du        
  12712 ****         3.5000   2.2500  12.2500 Du        
  12713 ****         3.5000   2.2500  12.5000 Du        
  12714 ****         3.5000   2.2500  12.7500 Du        
  12715 ****         3.5000   2.2500  13.0000 Du        
  12716 ****         3.5000   2.2500  13.2500 Du        
  12717 ****         3.5000   2.2500  13.5000 Du        
  12718 ****         3.5000   2.2500  13.7500 Du        
  12719 ****         3.5000   2.2500  14.0000 Du        
  12720 ****         3.5000   2.2500  14.2500 Du        
  12721 ****         3.5000   2.5000  12.2500 Du        
  12722 ****         3.5000   2.5000  12.5000 Du        
  12723 ****         3.5000   2.5000  12.7500 Du        
  12724 ****         3.5000   2.5000  13.0000 Du        
  12725 ****         3.5000   2.5000  13.2500 Du        
  12726 ****         3.5000   2.5000  13.5000 Du        
  12727 ****         3.5000   2.5000  13.7500 Du        
  12728 ****         3.5000   2.5000  14.0000 Du        
  12729 ****         3.5000   2.5000  14.2500 Du        
  12730 ****         3.5000   2.7500  12.2500 Du        
  12731 ****         3.5000   2.7500  12.5000 Du        
  12732 ****         3.5000   2.7500  12.7500 Du        
  12733 ****         3.5000   2.7500  13.0000 Du        
  12734 ****         3.5000   2.7500  13.2500 Du        
  12735 ****         3.5000   2.7500  13.5000 Du        
  12736 ****         3.5000   2.7500  13.7500 Du        
  12737 ****         3.5000   2.7500  14.0000 Du        
  12738 ****         3.5000   3.0000  12.0000 Du        
  12739 ****         3.5000   3.0000  12.2500 Du        
  12740 ****         3.5000   3.0000  12.5000 Du        
  12741 ****         3.5000   3.0000  12.7500 Du        
  12742 ****         3.5000   3.0000  13.0000 Du        
  12743 ****         3.5000   3.0000  13.2500 Du        
  12744 ****         3.5000   3.0000  13.5000 Du        
  12745 ****         3.5000   3.0000  13.7500 Du        
  12746 ****         3.5000   3.0000  14.0000 Du        
  12747 ****         3.5000   3.2500  12.0000 Du        
  12748 ****         3.5000   3.2500  12.2500 Du        
  12749 ****         3.5000   3.2500  12.5000 Du        
  12750 ****         3.5000   3.2500  12.7500 Du        
  12751 ****         3.5000   3.2500  13.0000 Du        
  12752 ****         3.5000   3.2500  13.2500 Du        
  12753 ****         3.5000   3.2500  13.5000 Du        
  12754 ****         3.5000   3.2500  13.7500 Du        
  12755 ****         3.5000   3.5000  12.0000 Du        
  12756 ****         3.5000   3.5000  12.2500 Du        
  12757 ****         3.5000   3.5000  12.5000 Du        
  12758 ****         3.5000   3.5000  12.7500 Du        
  12759 ****         3.5000   3.5000  13.0000 Du        
  12760 ****         3.5000   3.5000  13.2500 Du        
  12761 ****         3.5000   3.5000  13.5000 Du        
  12762 ****         3.5000   3.7500  12.0000 Du        
  12763 ****         3.5000   3.7500  12.2500 Du        
  12764 ****         3.5000   3.7500  12.5000 Du        
  12765 ****         3.5000   3.7500  12.7500 Du        
  12766 ****         3.5000   3.7500  13.0000 Du        
  12767 ****         3.5000   3.7500  13.2500 Du        
  12768 ****         3.5000   3.7500  13.5000 Du        
  12769 ****         3.5000   4.0000  12.0000 Du        
  12770 ****         3.5000   4.0000  12.2500 Du        
  12771 ****         3.5000   4.0000  12.5000 Du        
  12772 ****         3.5000   4.0000  12.7500 Du        
  12773 ****         3.5000   4.0000  13.0000 Du        
  12774 ****         3.5000   4.0000  13.2500 Du        
  12775 ****         3.5000   4.2500  12.0000 Du        
  12776 ****         3.5000   4.2500  12.2500 Du        
  12777 ****         3.5000   4.2500  12.5000 Du        
  12778 ****         3.5000   4.2500  12.7500 Du        
  12779 ****         3.5000   4.2500  13.0000 Du        
  12780 ****         3.5000   4.2500  13.2500 Du        
  12781 ****         3.5000   4.5000  12.0000 Du        
  12782 ****         3.5000   4.5000  12.2500 Du        
  12783 ****         3.5000   4.5000  12.5000 Du        
  12784 ****         3.5000   4.5000  12.7500 Du        
  12785 ****         3.5000   4.5000  13.0000 Du        
  12786 ****         3.5000   4.5000  13.2500 Du        
  12787 ****         3.5000   4.7500  12.0000 Du        
  12788 ****         3.5000   4.7500  12.2500 Du        
  12789 ****         3.5000   4.7500  12.5000 Du        
  12790 ****         3.5000   4.7500  12.7500 Du        
  12791 ****         3.5000   4.7500  13.0000 Du        
  12792 ****         3.5000   4.7500  13.2500 Du        
  12793 ****         3.5000   5.0000  11.7500 Du        
  12794 ****         3.5000   5.0000  12.0000 Du        
  12795 ****         3.5000   5.0000  12.2500 Du        
  12796 ****         3.5000   5.0000  12.5000 Du        
  12797 ****         3.5000   5.0000  12.7500 Du        
  12798 ****         3.5000   5.0000  13.0000 Du        
  12799 ****         3.5000   5.0000  13.2500 Du        
  12800 ****         3.5000   5.2500  11.7500 Du        
  12801 ****         3.5000   5.2500  12.0000 Du        
  12802 ****         3.5000   5.2500  12.2500 Du        
  12803 ****         3.5000   5.2500  12.5000 Du        
  12804 ****         3.5000   5.2500  12.7500 Du        
  12805 ****         3.5000   5.2500  13.0000 Du        
  12806 ****         3.5000   5.2500  13.2500 Du        
  12807 ****         3.5000   5.5000  11.7500 Du        
  12808 ****         3.5000   5.5000  12.0000 Du        
  12809 ****         3.5000   5.5000  12.2500 Du        
  12810 ****         3.5000   5.5000  12.5000 Du        
  12811 ****         3.5000   5.5000  12.7500 Du        
  12812 ****         3.5000   5.5000  13.0000 Du        
  12813 ****         3.5000   5.5000  13.2500 Du        
  12814 ****         3.5000   5.7500  11.7500 Du        
  12815 ****         3.5000   5.7500  12.0000 Du        
  12816 ****         3.5000   5.7500  12.2500 Du        
  12817 ****         3.5000   5.7500  12.5000 Du        
  12818 ****         3.5000   5.7500  12.7500 Du        
  12819 ****         3.5000   5.7500  13.0000 Du        
  12820 ****         3.5000   5.7500  13.2500 Du        
  12821 ****         3.5000   6.0000  11.7500 Du        
  12822 ****         3.5000   6.0000  12.0000 Du        
  12823 ****         3.5000   6.0000  12.2500 Du        
  12824 ****         3.5000   6.0000  12.5000 Du        
  12825 ****         3.5000   6.0000  12.7500 Du        
  12826 ****         3.5000   6.0000  13.0000 Du        
  12827 ****         3.5000   6.2500  11.7500 Du        
  12828 ****         3.5000   6.2500  12.0000 Du        
  12829 ****         3.5000   6.2500  12.2500 Du        
  12830 ****         3.5000   6.2500  12.5000 Du        
  12831 ****         3.5000   6.2500  12.7500 Du        
  12832 ****         3.5000   6.2500  13.0000 Du        
  12833 ****         3.5000   6.5000  12.0000 Du        
  12834 ****         3.5000   6.5000  12.2500 Du        
  12835 ****         3.5000   6.5000  12.5000 Du        
  12836 ****         3.5000   6.5000  12.7500 Du        
  12837 ****         3.5000   6.7500   6.0000 Du        
  12838 ****         3.5000   6.7500   6.2500 Du        
  12839 ****         3.5000   6.7500  12.0000 Du        
  12840 ****         3.5000   6.7500  12.2500 Du        
  12841 ****         3.5000   6.7500  12.5000 Du        
  12842 ****         3.5000   7.0000   6.0000 Du        
  12843 ****         3.5000   7.0000   6.2500 Du        
  12844 ****         3.5000   7.0000   6.5000 Du        
  12845 ****         3.5000   7.0000  12.2500 Du        
  12846 ****         3.5000   7.2500   6.0000 Du        
  12847 ****         3.5000   7.2500   6.2500 Du        
  12848 ****         3.5000   7.2500   6.5000 Du        
  12849 ****         3.5000   7.2500  23.7500 Du        
  12850 ****         3.5000   7.2500  24.0000 Du        
  12851 ****         3.5000   7.2500  24.2500 Du        
  12852 ****         3.5000   7.2500  24.5000 Du        
  12853 ****         3.5000   7.2500  24.7500 Du        
  12854 ****         3.5000   7.5000   6.0000 Du        
  12855 ****         3.5000   7.5000   6.2500 Du        
  12856 ****         3.5000   7.5000   6.5000 Du        
  12857 ****         3.5000   7.5000   6.7500 Du        
  12858 ****         3.5000   7.5000  23.2500 Du        
  12859 ****         3.5000   7.5000  23.5000 Du        
  12860 ****         3.5000   7.5000  23.7500 Du        
  12861 ****         3.5000   7.5000  24.0000 Du        
  12862 ****         3.5000   7.5000  24.2500 Du        
  12863 ****         3.5000   7.5000  24.5000 Du        
  12864 ****         3.5000   7.5000  24.7500 Du        
  12865 ****         3.5000   7.5000  25.0000 Du        
  12866 ****         3.5000   7.7500   6.0000 Du        
  12867 ****         3.5000   7.7500   6.2500 Du        
  12868 ****         3.5000   7.7500   6.5000 Du        
  12869 ****         3.5000   7.7500   6.7500 Du        
  12870 ****         3.5000   7.7500   7.0000 Du        
  12871 ****         3.5000   7.7500  23.2500 Du        
  12872 ****         3.5000   7.7500  23.5000 Du        
  12873 ****         3.5000   7.7500  23.7500 Du        
  12874 ****         3.5000   7.7500  24.0000 Du        
  12875 ****         3.5000   7.7500  24.2500 Du        
  12876 ****         3.5000   7.7500  24.5000 Du        
  12877 ****         3.5000   7.7500  24.7500 Du        
  12878 ****         3.5000   7.7500  25.0000 Du        
  12879 ****         3.5000   7.7500  25.2500 Du        
  12880 ****         3.5000   8.0000   6.0000 Du        
  12881 ****         3.5000   8.0000   6.2500 Du        
  12882 ****         3.5000   8.0000   6.5000 Du        
  12883 ****         3.5000   8.0000   6.7500 Du        
  12884 ****         3.5000   8.0000   7.0000 Du        
  12885 ****         3.5000   8.0000   7.2500 Du        
  12886 ****         3.5000   8.0000  23.5000 Du        
  12887 ****         3.5000   8.0000  23.7500 Du        
  12888 ****         3.5000   8.0000  24.0000 Du        
  12889 ****         3.5000   8.0000  24.2500 Du        
  12890 ****         3.5000   8.0000  24.5000 Du        
  12891 ****         3.5000   8.0000  24.7500 Du        
  12892 ****         3.5000   8.0000  25.0000 Du        
  12893 ****         3.5000   8.0000  25.2500 Du        
  12894 ****         3.5000   8.2500   6.0000 Du        
  12895 ****         3.5000   8.2500   6.2500 Du        
  12896 ****         3.5000   8.2500   6.5000 Du        
  12897 ****         3.5000   8.2500   6.7500 Du        
  12898 ****         3.5000   8.2500   7.0000 Du        
  12899 ****         3.5000   8.2500   7.2500 Du        
  12900 ****         3.5000   8.2500  24.0000 Du        
  12901 ****         3.5000   8.2500  24.2500 Du        
  12902 ****         3.5000   8.2500  24.5000 Du        
  12903 ****         3.5000   8.2500  24.7500 Du        
  12904 ****         3.5000   8.2500  25.0000 Du        
  12905 ****         3.5000   8.2500  25.2500 Du        
  12906 ****         3.5000   8.5000   6.0000 Du        
  12907 ****         3.5000   8.5000   6.2500 Du        
  12908 ****         3.5000   8.5000   6.5000 Du        
  12909 ****         3.5000   8.5000   6.7500 Du        
  12910 ****         3.5000   8.5000   7.0000 Du        
  12911 ****         3.5000   8.7500   6.5000 Du        
  12912 ****         3.5000   8.7500   6.7500 Du        
  12913 ****         3.5000   8.7500   7.0000 Du        
  12914 ****         3.7500   0.5000  13.0000 Du        
  12915 ****         3.7500   0.5000  13.2500 Du        
  12916 ****         3.7500   0.5000  13.5000 Du        
  12917 ****         3.7500   0.7500  12.7500 Du        
  12918 ****         3.7500   0.7500  13.0000 Du        
  12919 ****         3.7500   0.7500  13.2500 Du        
  12920 ****         3.7500   0.7500  13.5000 Du        
  12921 ****         3.7500   1.0000  12.7500 Du        
  12922 ****         3.7500   1.0000  13.0000 Du        
  12923 ****         3.7500   1.0000  13.2500 Du        
  12924 ****         3.7500   1.0000  13.5000 Du        
  12925 ****         3.7500   1.0000  13.7500 Du        
  12926 ****         3.7500   1.2500  12.7500 Du        
  12927 ****         3.7500   1.2500  13.0000 Du        
  12928 ****         3.7500   1.2500  13.2500 Du        
  12929 ****         3.7500   1.2500  13.5000 Du        
  12930 ****         3.7500   1.2500  13.7500 Du        
  12931 ****         3.7500   1.5000  12.5000 Du        
  12932 ****         3.7500   1.5000  12.7500 Du        
  12933 ****         3.7500   1.5000  13.0000 Du        
  12934 ****         3.7500   1.5000  13.2500 Du        
  12935 ****         3.7500   1.5000  13.5000 Du        
  12936 ****         3.7500   1.5000  13.7500 Du        
  12937 ****         3.7500   1.5000  14.0000 Du        
  12938 ****         3.7500   1.7500  12.5000 Du        
  12939 ****         3.7500   1.7500  12.7500 Du        
  12940 ****         3.7500   1.7500  13.0000 Du        
  12941 ****         3.7500   1.7500  13.2500 Du        
  12942 ****         3.7500   1.7500  13.5000 Du        
  12943 ****         3.7500   1.7500  13.7500 Du        
  12944 ****         3.7500   1.7500  14.0000 Du        
  12945 ****         3.7500   2.0000  12.2500 Du        
  12946 ****         3.7500   2.0000  12.5000 Du        
  12947 ****         3.7500   2.0000  12.7500 Du        
  12948 ****         3.7500   2.0000  13.0000 Du        
  12949 ****         3.7500   2.0000  13.2500 Du        
  12950 ****         3.7500   2.0000  13.5000 Du        
  12951 ****         3.7500   2.0000  13.7500 Du        
  12952 ****         3.7500   2.0000  14.0000 Du        
  12953 ****         3.7500   2.0000  14.2500 Du        
  12954 ****         3.7500   2.2500  12.2500 Du        
  12955 ****         3.7500   2.2500  12.5000 Du        
  12956 ****         3.7500   2.2500  12.7500 Du        
  12957 ****         3.7500   2.2500  13.0000 Du        
  12958 ****         3.7500   2.2500  13.2500 Du        
  12959 ****         3.7500   2.2500  13.5000 Du        
  12960 ****         3.7500   2.2500  13.7500 Du        
  12961 ****         3.7500   2.2500  14.0000 Du        
  12962 ****         3.7500   2.2500  14.2500 Du        
  12963 ****         3.7500   2.5000  12.2500 Du        
  12964 ****         3.7500   2.5000  12.5000 Du        
  12965 ****         3.7500   2.5000  12.7500 Du        
  12966 ****         3.7500   2.5000  13.0000 Du        
  12967 ****         3.7500   2.5000  13.2500 Du        
  12968 ****         3.7500   2.5000  13.5000 Du        
  12969 ****         3.7500   2.5000  13.7500 Du        
  12970 ****         3.7500   2.5000  14.0000 Du        
  12971 ****         3.7500   2.7500  12.0000 Du        
  12972 ****         3.7500   2.7500  12.2500 Du        
  12973 ****         3.7500   2.7500  12.5000 Du        
  12974 ****         3.7500   2.7500  12.7500 Du        
  12975 ****         3.7500   2.7500  13.0000 Du        
  12976 ****         3.7500   2.7500  13.2500 Du        
  12977 ****         3.7500   2.7500  13.5000 Du        
  12978 ****         3.7500   2.7500  13.7500 Du        
  12979 ****         3.7500   2.7500  14.0000 Du        
  12980 ****         3.7500   3.0000  12.0000 Du        
  12981 ****         3.7500   3.0000  12.2500 Du        
  12982 ****         3.7500   3.0000  12.5000 Du        
  12983 ****         3.7500   3.0000  12.7500 Du        
  12984 ****         3.7500   3.0000  13.0000 Du        
  12985 ****         3.7500   3.0000  13.2500 Du        
  12986 ****         3.7500   3.0000  13.5000 Du        
  12987 ****         3.7500   3.0000  13.7500 Du        
  12988 ****         3.7500   3.0000  14.0000 Du        
  12989 ****         3.7500   3.2500  12.0000 Du        
  12990 ****         3.7500   3.2500  12.2500 Du        
  12991 ****         3.7500   3.2500  12.5000 Du        
  12992 ****         3.7500   3.2500  12.7500 Du        
  12993 ****         3.7500   3.2500  13.0000 Du        
  12994 ****         3.7500   3.2500  13.2500 Du        
  12995 ****         3.7500   3.2500  13.5000 Du        
  12996 ****         3.7500   3.2500  13.7500 Du        
  12997 ****         3.7500   3.5000  12.0000 Du        
  12998 ****         3.7500   3.5000  12.2500 Du        
  12999 ****         3.7500   3.5000  12.5000 Du        
  13000 ****         3.7500   3.5000  12.7500 Du        
  13001 ****         3.7500   3.5000  13.0000 Du        
  13002 ****         3.7500   3.5000  13.2500 Du        
  13003 ****         3.7500   3.5000  13.5000 Du        
  13004 ****         3.7500   3.7500  12.0000 Du        
  13005 ****         3.7500   3.7500  12.2500 Du        
  13006 ****         3.7500   3.7500  12.5000 Du        
  13007 ****         3.7500   3.7500  12.7500 Du        
  13008 ****         3.7500   3.7500  13.0000 Du        
  13009 ****         3.7500   3.7500  13.2500 Du        
  13010 ****         3.7500   3.7500  13.5000 Du        
  13011 ****         3.7500   4.0000  11.7500 Du        
  13012 ****         3.7500   4.0000  12.0000 Du        
  13013 ****         3.7500   4.0000  12.2500 Du        
  13014 ****         3.7500   4.0000  12.5000 Du        
  13015 ****         3.7500   4.0000  12.7500 Du        
  13016 ****         3.7500   4.0000  13.0000 Du        
  13017 ****         3.7500   4.0000  13.2500 Du        
  13018 ****         3.7500   4.0000  13.5000 Du        
  13019 ****         3.7500   4.2500  11.7500 Du        
  13020 ****         3.7500   4.2500  12.0000 Du        
  13021 ****         3.7500   4.2500  12.2500 Du        
  13022 ****         3.7500   4.2500  12.5000 Du        
  13023 ****         3.7500   4.2500  12.7500 Du        
  13024 ****         3.7500   4.2500  13.0000 Du        
  13025 ****         3.7500   4.2500  13.2500 Du        
  13026 ****         3.7500   4.5000  11.7500 Du        
  13027 ****         3.7500   4.5000  12.0000 Du        
  13028 ****         3.7500   4.5000  12.2500 Du        
  13029 ****         3.7500   4.5000  12.5000 Du        
  13030 ****         3.7500   4.5000  12.7500 Du        
  13031 ****         3.7500   4.5000  13.0000 Du        
  13032 ****         3.7500   4.5000  13.2500 Du        
  13033 ****         3.7500   4.7500  11.7500 Du        
  13034 ****         3.7500   4.7500  12.0000 Du        
  13035 ****         3.7500   4.7500  12.2500 Du        
  13036 ****         3.7500   4.7500  12.5000 Du        
  13037 ****         3.7500   4.7500  12.7500 Du        
  13038 ****         3.7500   4.7500  13.0000 Du        
  13039 ****         3.7500   4.7500  13.2500 Du        
  13040 ****         3.7500   5.0000  11.5000 Du        
  13041 ****         3.7500   5.0000  11.7500 Du        
  13042 ****         3.7500   5.0000  12.0000 Du        
  13043 ****         3.7500   5.0000  12.2500 Du        
  13044 ****         3.7500   5.0000  12.5000 Du        
  13045 ****         3.7500   5.0000  12.7500 Du        
  13046 ****         3.7500   5.0000  13.0000 Du        
  13047 ****         3.7500   5.0000  13.2500 Du        
  13048 ****         3.7500   5.2500  11.5000 Du        
  13049 ****         3.7500   5.2500  11.7500 Du        
  13050 ****         3.7500   5.2500  12.0000 Du        
  13051 ****         3.7500   5.2500  12.2500 Du        
  13052 ****         3.7500   5.2500  12.5000 Du        
  13053 ****         3.7500   5.2500  12.7500 Du        
  13054 ****         3.7500   5.2500  13.0000 Du        
  13055 ****         3.7500   5.2500  13.2500 Du        
  13056 ****         3.7500   5.5000  11.5000 Du        
  13057 ****         3.7500   5.5000  11.7500 Du        
  13058 ****         3.7500   5.5000  12.0000 Du        
  13059 ****         3.7500   5.5000  12.2500 Du        
  13060 ****         3.7500   5.5000  12.5000 Du        
  13061 ****         3.7500   5.5000  12.7500 Du        
  13062 ****         3.7500   5.5000  13.0000 Du        
  13063 ****         3.7500   5.5000  13.2500 Du        
  13064 ****         3.7500   5.7500  11.5000 Du        
  13065 ****         3.7500   5.7500  11.7500 Du        
  13066 ****         3.7500   5.7500  12.0000 Du        
  13067 ****         3.7500   5.7500  12.2500 Du        
  13068 ****         3.7500   5.7500  12.5000 Du        
  13069 ****         3.7500   5.7500  12.7500 Du        
  13070 ****         3.7500   5.7500  13.0000 Du        
  13071 ****         3.7500   5.7500  13.2500 Du        
  13072 ****         3.7500   6.0000  11.5000 Du        
  13073 ****         3.7500   6.0000  11.7500 Du        
  13074 ****         3.7500   6.0000  12.0000 Du        
  13075 ****         3.7500   6.0000  12.2500 Du        
  13076 ****         3.7500   6.0000  12.5000 Du        
  13077 ****         3.7500   6.0000  12.7500 Du        
  13078 ****         3.7500   6.0000  13.0000 Du        
  13079 ****         3.7500   6.0000  13.2500 Du        
  13080 ****         3.7500   6.2500  11.5000 Du        
  13081 ****         3.7500   6.2500  11.7500 Du        
  13082 ****         3.7500   6.2500  12.0000 Du        
  13083 ****         3.7500   6.2500  12.2500 Du        
  13084 ****         3.7500   6.2500  12.5000 Du        
  13085 ****         3.7500   6.2500  12.7500 Du        
  13086 ****         3.7500   6.2500  13.0000 Du        
  13087 ****         3.7500   6.5000  11.7500 Du        
  13088 ****         3.7500   6.5000  12.0000 Du        
  13089 ****         3.7500   6.5000  12.2500 Du        
  13090 ****         3.7500   6.5000  12.5000 Du        
  13091 ****         3.7500   6.5000  12.7500 Du        
  13092 ****         3.7500   6.5000  13.0000 Du        
  13093 ****         3.7500   6.7500   6.0000 Du        
  13094 ****         3.7500   6.7500   6.2500 Du        
  13095 ****         3.7500   6.7500  11.7500 Du        
  13096 ****         3.7500   6.7500  12.0000 Du        
  13097 ****         3.7500   6.7500  12.2500 Du        
  13098 ****         3.7500   6.7500  12.5000 Du        
  13099 ****         3.7500   6.7500  12.7500 Du        
  13100 ****         3.7500   7.0000   6.0000 Du        
  13101 ****         3.7500   7.0000   6.2500 Du        
  13102 ****         3.7500   7.0000   6.5000 Du        
  13103 ****         3.7500   7.0000  11.2500 Du        
  13104 ****         3.7500   7.0000  11.5000 Du        
  13105 ****         3.7500   7.0000  11.7500 Du        
  13106 ****         3.7500   7.0000  12.0000 Du        
  13107 ****         3.7500   7.0000  12.2500 Du        
  13108 ****         3.7500   7.0000  12.5000 Du        
  13109 ****         3.7500   7.0000  12.7500 Du        
  13110 ****         3.7500   7.2500   6.0000 Du        
  13111 ****         3.7500   7.2500   6.2500 Du        
  13112 ****         3.7500   7.2500   6.5000 Du        
  13113 ****         3.7500   7.2500   6.7500 Du        
  13114 ****         3.7500   7.2500  11.7500 Du        
  13115 ****         3.7500   7.2500  12.0000 Du        
  13116 ****         3.7500   7.2500  12.2500 Du        
  13117 ****         3.7500   7.5000   6.0000 Du        
  13118 ****         3.7500   7.5000   6.2500 Du        
  13119 ****         3.7500   7.5000   6.5000 Du        
  13120 ****         3.7500   7.5000   6.7500 Du        
  13121 ****         3.7500   7.5000   7.0000 Du        
  13122 ****         3.7500   7.5000  11.7500 Du        
  13123 ****         3.7500   7.5000  12.0000 Du        
  13124 ****         3.7500   7.7500   6.0000 Du        
  13125 ****         3.7500   7.7500   6.2500 Du        
  13126 ****         3.7500   7.7500   6.5000 Du        
  13127 ****         3.7500   7.7500   6.7500 Du        
  13128 ****         3.7500   7.7500   7.0000 Du        
  13129 ****         3.7500   7.7500   7.2500 Du        
  13130 ****         3.7500   7.7500  24.2500 Du        
  13131 ****         3.7500   8.0000   6.0000 Du        
  13132 ****         3.7500   8.0000   6.2500 Du        
  13133 ****         3.7500   8.0000   6.5000 Du        
  13134 ****         3.7500   8.0000   6.7500 Du        
  13135 ****         3.7500   8.0000   7.0000 Du        
  13136 ****         3.7500   8.0000   7.2500 Du        
  13137 ****         3.7500   8.0000  24.2500 Du        
  13138 ****         3.7500   8.0000  25.0000 Du        
  13139 ****         3.7500   8.2500   6.0000 Du        
  13140 ****         3.7500   8.2500   6.2500 Du        
  13141 ****         3.7500   8.2500   6.5000 Du        
  13142 ****         3.7500   8.2500   6.7500 Du        
  13143 ****         3.7500   8.2500   7.0000 Du        
  13144 ****         3.7500   8.2500   7.2500 Du        
  13145 ****         3.7500   8.2500   7.5000 Du        
  13146 ****         3.7500   8.5000   6.0000 Du        
  13147 ****         3.7500   8.5000   6.2500 Du        
  13148 ****         3.7500   8.5000   6.5000 Du        
  13149 ****         3.7500   8.5000   6.7500 Du        
  13150 ****         3.7500   8.5000   7.0000 Du        
  13151 ****         3.7500   8.5000   7.2500 Du        
  13152 ****         3.7500   8.7500   6.5000 Du        
  13153 ****         3.7500   8.7500   6.7500 Du        
  13154 ****         3.7500   8.7500   7.0000 Du        
  13155 ****         3.7500   8.7500   7.2500 Du        
  13156 ****         3.7500   9.0000   6.5000 Du        
  13157 ****         3.7500   9.0000   6.7500 Du        
  13158 ****         3.7500   9.0000   7.0000 Du        
  13159 ****         4.0000   0.5000  13.0000 Du        
  13160 ****         4.0000   0.5000  13.2500 Du        
  13161 ****         4.0000   0.7500  12.7500 Du        
  13162 ****         4.0000   0.7500  13.0000 Du        
  13163 ****         4.0000   0.7500  13.2500 Du        
  13164 ****         4.0000   0.7500  13.5000 Du        
  13165 ****         4.0000   1.0000  12.7500 Du        
  13166 ****         4.0000   1.0000  13.0000 Du        
  13167 ****         4.0000   1.0000  13.2500 Du        
  13168 ****         4.0000   1.0000  13.5000 Du        
  13169 ****         4.0000   1.2500  12.5000 Du        
  13170 ****         4.0000   1.2500  12.7500 Du        
  13171 ****         4.0000   1.2500  13.0000 Du        
  13172 ****         4.0000   1.2500  13.2500 Du        
  13173 ****         4.0000   1.2500  13.5000 Du        
  13174 ****         4.0000   1.2500  13.7500 Du        
  13175 ****         4.0000   1.5000  12.5000 Du        
  13176 ****         4.0000   1.5000  12.7500 Du        
  13177 ****         4.0000   1.5000  13.0000 Du        
  13178 ****         4.0000   1.5000  13.2500 Du        
  13179 ****         4.0000   1.5000  13.5000 Du        
  13180 ****         4.0000   1.5000  13.7500 Du        
  13181 ****         4.0000   1.7500  12.5000 Du        
  13182 ****         4.0000   1.7500  12.7500 Du        
  13183 ****         4.0000   1.7500  13.0000 Du        
  13184 ****         4.0000   1.7500  13.2500 Du        
  13185 ****         4.0000   1.7500  13.5000 Du        
  13186 ****         4.0000   1.7500  13.7500 Du        
  13187 ****         4.0000   2.0000  12.2500 Du        
  13188 ****         4.0000   2.0000  12.5000 Du        
  13189 ****         4.0000   2.0000  12.7500 Du        
  13190 ****         4.0000   2.0000  13.0000 Du        
  13191 ****         4.0000   2.0000  13.2500 Du        
  13192 ****         4.0000   2.0000  13.5000 Du        
  13193 ****         4.0000   2.0000  13.7500 Du        
  13194 ****         4.0000   2.0000  14.0000 Du        
  13195 ****         4.0000   2.2500  12.2500 Du        
  13196 ****         4.0000   2.2500  12.5000 Du        
  13197 ****         4.0000   2.2500  12.7500 Du        
  13198 ****         4.0000   2.2500  13.0000 Du        
  13199 ****         4.0000   2.2500  13.2500 Du        
  13200 ****         4.0000   2.2500  13.5000 Du        
  13201 ****         4.0000   2.2500  13.7500 Du        
  13202 ****         4.0000   2.2500  14.0000 Du        
  13203 ****         4.0000   2.5000  12.0000 Du        
  13204 ****         4.0000   2.5000  12.2500 Du        
  13205 ****         4.0000   2.5000  12.5000 Du        
  13206 ****         4.0000   2.5000  12.7500 Du        
  13207 ****         4.0000   2.5000  13.0000 Du        
  13208 ****         4.0000   2.5000  13.2500 Du        
  13209 ****         4.0000   2.5000  13.5000 Du        
  13210 ****         4.0000   2.5000  13.7500 Du        
  13211 ****         4.0000   2.7500  12.0000 Du        
  13212 ****         4.0000   2.7500  12.2500 Du        
  13213 ****         4.0000   2.7500  12.5000 Du        
  13214 ****         4.0000   2.7500  12.7500 Du        
  13215 ****         4.0000   2.7500  13.0000 Du        
  13216 ****         4.0000   2.7500  13.2500 Du        
  13217 ****         4.0000   2.7500  13.5000 Du        
  13218 ****         4.0000   2.7500  13.7500 Du        
  13219 ****         4.0000   3.0000  11.7500 Du        
  13220 ****         4.0000   3.0000  12.0000 Du        
  13221 ****         4.0000   3.0000  12.2500 Du        
  13222 ****         4.0000   3.0000  12.5000 Du        
  13223 ****         4.0000   3.0000  12.7500 Du        
  13224 ****         4.0000   3.0000  13.0000 Du        
  13225 ****         4.0000   3.0000  13.2500 Du        
  13226 ****         4.0000   3.0000  13.5000 Du        
  13227 ****         4.0000   3.0000  13.7500 Du        
  13228 ****         4.0000   3.2500  11.7500 Du        
  13229 ****         4.0000   3.2500  12.0000 Du        
  13230 ****         4.0000   3.2500  12.2500 Du        
  13231 ****         4.0000   3.2500  12.5000 Du        
  13232 ****         4.0000   3.2500  12.7500 Du        
  13233 ****         4.0000   3.2500  13.0000 Du        
  13234 ****         4.0000   3.2500  13.2500 Du        
  13235 ****         4.0000   3.2500  13.5000 Du        
  13236 ****         4.0000   3.5000  11.7500 Du        
  13237 ****         4.0000   3.5000  12.0000 Du        
  13238 ****         4.0000   3.5000  12.2500 Du        
  13239 ****         4.0000   3.5000  12.5000 Du        
  13240 ****         4.0000   3.5000  12.7500 Du        
  13241 ****         4.0000   3.5000  13.0000 Du        
  13242 ****         4.0000   3.5000  13.2500 Du        
  13243 ****         4.0000   3.5000  13.5000 Du        
  13244 ****         4.0000   3.7500  11.7500 Du        
  13245 ****         4.0000   3.7500  12.0000 Du        
  13246 ****         4.0000   3.7500  12.2500 Du        
  13247 ****         4.0000   3.7500  12.5000 Du        
  13248 ****         4.0000   3.7500  12.7500 Du        
  13249 ****         4.0000   3.7500  13.0000 Du        
  13250 ****         4.0000   3.7500  13.2500 Du        
  13251 ****         4.0000   3.7500  13.5000 Du        
  13252 ****         4.0000   4.0000  11.7500 Du        
  13253 ****         4.0000   4.0000  12.0000 Du        
  13254 ****         4.0000   4.0000  12.2500 Du        
  13255 ****         4.0000   4.0000  12.5000 Du        
  13256 ****         4.0000   4.0000  12.7500 Du        
  13257 ****         4.0000   4.0000  13.0000 Du        
  13258 ****         4.0000   4.0000  13.2500 Du        
  13259 ****         4.0000   4.0000  13.5000 Du        
  13260 ****         4.0000   4.2500  11.5000 Du        
  13261 ****         4.0000   4.2500  11.7500 Du        
  13262 ****         4.0000   4.2500  12.0000 Du        
  13263 ****         4.0000   4.2500  12.2500 Du        
  13264 ****         4.0000   4.2500  12.5000 Du        
  13265 ****         4.0000   4.2500  12.7500 Du        
  13266 ****         4.0000   4.2500  13.0000 Du        
  13267 ****         4.0000   4.2500  13.2500 Du        
  13268 ****         4.0000   4.5000  11.5000 Du        
  13269 ****         4.0000   4.5000  11.7500 Du        
  13270 ****         4.0000   4.5000  12.0000 Du        
  13271 ****         4.0000   4.5000  12.2500 Du        
  13272 ****         4.0000   4.5000  12.5000 Du        
  13273 ****         4.0000   4.5000  12.7500 Du        
  13274 ****         4.0000   4.5000  13.0000 Du        
  13275 ****         4.0000   4.5000  13.2500 Du        
  13276 ****         4.0000   4.7500  11.5000 Du        
  13277 ****         4.0000   4.7500  11.7500 Du        
  13278 ****         4.0000   4.7500  12.0000 Du        
  13279 ****         4.0000   4.7500  12.2500 Du        
  13280 ****         4.0000   4.7500  12.5000 Du        
  13281 ****         4.0000   4.7500  12.7500 Du        
  13282 ****         4.0000   4.7500  13.0000 Du        
  13283 ****         4.0000   4.7500  13.2500 Du        
  13284 ****         4.0000   5.0000  11.2500 Du        
  13285 ****         4.0000   5.0000  11.5000 Du        
  13286 ****         4.0000   5.0000  11.7500 Du        
  13287 ****         4.0000   5.0000  12.0000 Du        
  13288 ****         4.0000   5.0000  12.2500 Du        
  13289 ****         4.0000   5.0000  12.5000 Du        
  13290 ****         4.0000   5.0000  12.7500 Du        
  13291 ****         4.0000   5.0000  13.0000 Du        
  13292 ****         4.0000   5.0000  13.2500 Du        
  13293 ****         4.0000   5.2500  11.2500 Du        
  13294 ****         4.0000   5.2500  11.5000 Du        
  13295 ****         4.0000   5.2500  11.7500 Du        
  13296 ****         4.0000   5.2500  12.0000 Du        
  13297 ****         4.0000   5.2500  12.2500 Du        
  13298 ****         4.0000   5.2500  12.5000 Du        
  13299 ****         4.0000   5.2500  12.7500 Du        
  13300 ****         4.0000   5.2500  13.0000 Du        
  13301 ****         4.0000   5.2500  13.2500 Du        
  13302 ****         4.0000   5.5000  11.2500 Du        
  13303 ****         4.0000   5.5000  11.5000 Du        
  13304 ****         4.0000   5.5000  11.7500 Du        
  13305 ****         4.0000   5.5000  12.0000 Du        
  13306 ****         4.0000   5.5000  12.2500 Du        
  13307 ****         4.0000   5.5000  12.5000 Du        
  13308 ****         4.0000   5.5000  12.7500 Du        
  13309 ****         4.0000   5.5000  13.0000 Du        
  13310 ****         4.0000   5.5000  13.2500 Du        
  13311 ****         4.0000   5.7500  11.2500 Du        
  13312 ****         4.0000   5.7500  11.5000 Du        
  13313 ****         4.0000   5.7500  11.7500 Du        
  13314 ****         4.0000   5.7500  12.0000 Du        
  13315 ****         4.0000   5.7500  12.2500 Du        
  13316 ****         4.0000   5.7500  12.5000 Du        
  13317 ****         4.0000   5.7500  12.7500 Du        
  13318 ****         4.0000   5.7500  13.0000 Du        
  13319 ****         4.0000   5.7500  13.2500 Du        
  13320 ****         4.0000   6.0000  11.2500 Du        
  13321 ****         4.0000   6.0000  11.5000 Du        
  13322 ****         4.0000   6.0000  11.7500 Du        
  13323 ****         4.0000   6.0000  12.0000 Du        
  13324 ****         4.0000   6.0000  12.2500 Du        
  13325 ****         4.0000   6.0000  12.5000 Du        
  13326 ****         4.0000   6.0000  12.7500 Du        
  13327 ****         4.0000   6.0000  13.0000 Du        
  13328 ****         4.0000   6.0000  13.2500 Du        
  13329 ****         4.0000   6.2500  11.0000 Du        
  13330 ****         4.0000   6.2500  11.2500 Du        
  13331 ****         4.0000   6.2500  11.5000 Du        
  13332 ****         4.0000   6.2500  11.7500 Du        
  13333 ****         4.0000   6.2500  12.0000 Du        
  13334 ****         4.0000   6.2500  12.2500 Du        
  13335 ****         4.0000   6.2500  12.5000 Du        
  13336 ****         4.0000   6.2500  12.7500 Du        
  13337 ****         4.0000   6.2500  13.0000 Du        
  13338 ****         4.0000   6.2500  13.2500 Du        
  13339 ****         4.0000   6.5000  11.2500 Du        
  13340 ****         4.0000   6.5000  11.5000 Du        
  13341 ****         4.0000   6.5000  11.7500 Du        
  13342 ****         4.0000   6.5000  12.0000 Du        
  13343 ****         4.0000   6.5000  12.2500 Du        
  13344 ****         4.0000   6.5000  12.5000 Du        
  13345 ****         4.0000   6.5000  12.7500 Du        
  13346 ****         4.0000   6.5000  13.0000 Du        
  13347 ****         4.0000   6.7500   6.0000 Du        
  13348 ****         4.0000   6.7500   6.2500 Du        
  13349 ****         4.0000   6.7500  11.0000 Du        
  13350 ****         4.0000   6.7500  11.2500 Du        
  13351 ****         4.0000   6.7500  11.5000 Du        
  13352 ****         4.0000   6.7500  11.7500 Du        
  13353 ****         4.0000   6.7500  12.0000 Du        
  13354 ****         4.0000   6.7500  12.2500 Du        
  13355 ****         4.0000   6.7500  12.5000 Du        
  13356 ****         4.0000   6.7500  12.7500 Du        
  13357 ****         4.0000   6.7500  13.0000 Du        
  13358 ****         4.0000   7.0000   6.0000 Du        
  13359 ****         4.0000   7.0000   6.2500 Du        
  13360 ****         4.0000   7.0000   6.5000 Du        
  13361 ****         4.0000   7.0000   6.7500 Du        
  13362 ****         4.0000   7.0000  11.0000 Du        
  13363 ****         4.0000   7.0000  11.2500 Du        
  13364 ****         4.0000   7.0000  11.5000 Du        
  13365 ****         4.0000   7.0000  11.7500 Du        
  13366 ****         4.0000   7.0000  12.0000 Du        
  13367 ****         4.0000   7.0000  12.2500 Du        
  13368 ****         4.0000   7.0000  12.5000 Du        
  13369 ****         4.0000   7.0000  12.7500 Du        
  13370 ****         4.0000   7.0000  13.0000 Du        
  13371 ****         4.0000   7.2500   6.0000 Du        
  13372 ****         4.0000   7.2500   6.2500 Du        
  13373 ****         4.0000   7.2500   6.5000 Du        
  13374 ****         4.0000   7.2500   6.7500 Du        
  13375 ****         4.0000   7.2500   7.0000 Du        
  13376 ****         4.0000   7.2500  11.0000 Du        
  13377 ****         4.0000   7.2500  11.2500 Du        
  13378 ****         4.0000   7.2500  11.5000 Du        
  13379 ****         4.0000   7.2500  11.7500 Du        
  13380 ****         4.0000   7.2500  12.0000 Du        
  13381 ****         4.0000   7.2500  12.2500 Du        
  13382 ****         4.0000   7.2500  12.5000 Du        
  13383 ****         4.0000   7.2500  12.7500 Du        
  13384 ****         4.0000   7.5000   6.0000 Du        
  13385 ****         4.0000   7.5000   6.2500 Du        
  13386 ****         4.0000   7.5000   6.5000 Du        
  13387 ****         4.0000   7.5000   6.7500 Du        
  13388 ****         4.0000   7.5000   7.0000 Du        
  13389 ****         4.0000   7.5000   7.2500 Du        
  13390 ****         4.0000   7.5000  11.5000 Du        
  13391 ****         4.0000   7.5000  11.7500 Du        
  13392 ****         4.0000   7.5000  12.0000 Du        
  13393 ****         4.0000   7.5000  12.2500 Du        
  13394 ****         4.0000   7.7500   6.0000 Du        
  13395 ****         4.0000   7.7500   6.2500 Du        
  13396 ****         4.0000   7.7500   6.5000 Du        
  13397 ****         4.0000   7.7500   6.7500 Du        
  13398 ****         4.0000   7.7500   7.0000 Du        
  13399 ****         4.0000   7.7500   7.2500 Du        
  13400 ****         4.0000   7.7500   7.5000 Du        
  13401 ****         4.0000   7.7500  11.5000 Du        
  13402 ****         4.0000   7.7500  11.7500 Du        
  13403 ****         4.0000   7.7500  12.0000 Du        
  13404 ****         4.0000   7.7500  12.2500 Du        
  13405 ****         4.0000   8.0000   6.0000 Du        
  13406 ****         4.0000   8.0000   6.2500 Du        
  13407 ****         4.0000   8.0000   6.5000 Du        
  13408 ****         4.0000   8.0000   6.7500 Du        
  13409 ****         4.0000   8.0000   7.0000 Du        
  13410 ****         4.0000   8.0000   7.2500 Du        
  13411 ****         4.0000   8.0000   7.5000 Du        
  13412 ****         4.0000   8.0000   7.7500 Du        
  13413 ****         4.0000   8.0000   8.0000 Du        
  13414 ****         4.0000   8.0000  11.7500 Du        
  13415 ****         4.0000   8.0000  12.0000 Du        
  13416 ****         4.0000   8.2500   6.0000 Du        
  13417 ****         4.0000   8.2500   6.2500 Du        
  13418 ****         4.0000   8.2500   6.5000 Du        
  13419 ****         4.0000   8.2500   6.7500 Du        
  13420 ****         4.0000   8.2500   7.0000 Du        
  13421 ****         4.0000   8.2500   7.2500 Du        
  13422 ****         4.0000   8.2500   7.5000 Du        
  13423 ****         4.0000   8.2500   7.7500 Du        
  13424 ****         4.0000   8.2500   8.0000 Du        
  13425 ****         4.0000   8.2500   8.2500 Du        
  13426 ****         4.0000   8.5000   6.0000 Du        
  13427 ****         4.0000   8.5000   6.2500 Du        
  13428 ****         4.0000   8.5000   6.5000 Du        
  13429 ****         4.0000   8.5000   6.7500 Du        
  13430 ****         4.0000   8.5000   7.0000 Du        
  13431 ****         4.0000   8.5000   7.2500 Du        
  13432 ****         4.0000   8.5000   7.5000 Du        
  13433 ****         4.0000   8.5000   7.7500 Du        
  13434 ****         4.0000   8.7500   6.5000 Du        
  13435 ****         4.0000   8.7500   6.7500 Du        
  13436 ****         4.0000   8.7500   7.0000 Du        
  13437 ****         4.0000   8.7500   7.2500 Du        
  13438 ****         4.0000   8.7500   7.5000 Du        
  13439 ****         4.0000   9.0000   6.5000 Du        
  13440 ****         4.0000   9.0000   6.7500 Du        
  13441 ****         4.0000   9.0000   7.0000 Du        
  13442 ****         4.0000   9.0000   7.2500 Du        
  13443 ****         4.0000   9.2500   7.0000 Du        
  13444 ****         4.0000   9.2500   7.2500 Du        
  13445 ****         4.2500   0.5000  13.0000 Du        
  13446 ****         4.2500   0.5000  13.2500 Du        
  13447 ****         4.2500   0.7500  12.7500 Du        
  13448 ****         4.2500   0.7500  13.0000 Du        
  13449 ****         4.2500   0.7500  13.2500 Du        
  13450 ****         4.2500   1.0000  12.5000 Du        
  13451 ****         4.2500   1.0000  12.7500 Du        
  13452 ****         4.2500   1.0000  13.0000 Du        
  13453 ****         4.2500   1.0000  13.2500 Du        
  13454 ****         4.2500   1.2500  12.5000 Du        
  13455 ****         4.2500   1.2500  12.7500 Du        
  13456 ****         4.2500   1.2500  13.0000 Du        
  13457 ****         4.2500   1.2500  13.2500 Du        
  13458 ****         4.2500   1.2500  13.5000 Du        
  13459 ****         4.2500   1.5000  12.5000 Du        
  13460 ****         4.2500   1.5000  12.7500 Du        
  13461 ****         4.2500   1.5000  13.0000 Du        
  13462 ****         4.2500   1.5000  13.2500 Du        
  13463 ****         4.2500   1.5000  13.5000 Du        
  13464 ****         4.2500   1.7500  12.2500 Du        
  13465 ****         4.2500   1.7500  12.5000 Du        
  13466 ****         4.2500   1.7500  12.7500 Du        
  13467 ****         4.2500   1.7500  13.0000 Du        
  13468 ****         4.2500   1.7500  13.2500 Du        
  13469 ****         4.2500   1.7500  13.5000 Du        
  13470 ****         4.2500   2.0000  12.2500 Du        
  13471 ****         4.2500   2.0000  12.5000 Du        
  13472 ****         4.2500   2.0000  12.7500 Du        
  13473 ****         4.2500   2.0000  13.0000 Du        
  13474 ****         4.2500   2.0000  13.2500 Du        
  13475 ****         4.2500   2.0000  13.5000 Du        
  13476 ****         4.2500   2.2500  12.0000 Du        
  13477 ****         4.2500   2.2500  12.2500 Du        
  13478 ****         4.2500   2.2500  12.5000 Du        
  13479 ****         4.2500   2.2500  12.7500 Du        
  13480 ****         4.2500   2.2500  13.0000 Du        
  13481 ****         4.2500   2.2500  13.2500 Du        
  13482 ****         4.2500   2.2500  13.5000 Du        
  13483 ****         4.2500   2.5000  12.0000 Du        
  13484 ****         4.2500   2.5000  12.2500 Du        
  13485 ****         4.2500   2.5000  12.5000 Du        
  13486 ****         4.2500   2.5000  12.7500 Du        
  13487 ****         4.2500   2.5000  13.0000 Du        
  13488 ****         4.2500   2.5000  13.2500 Du        
  13489 ****         4.2500   2.7500  11.7500 Du        
  13490 ****         4.2500   2.7500  12.0000 Du        
  13491 ****         4.2500   2.7500  12.2500 Du        
  13492 ****         4.2500   2.7500  12.5000 Du        
  13493 ****         4.2500   2.7500  12.7500 Du        
  13494 ****         4.2500   2.7500  13.0000 Du        
  13495 ****         4.2500   2.7500  13.2500 Du        
  13496 ****         4.2500   3.0000  11.7500 Du        
  13497 ****         4.2500   3.0000  12.0000 Du        
  13498 ****         4.2500   3.0000  12.2500 Du        
  13499 ****         4.2500   3.0000  12.5000 Du        
  13500 ****         4.2500   3.0000  12.7500 Du        
  13501 ****         4.2500   3.0000  13.0000 Du        
  13502 ****         4.2500   3.0000  13.2500 Du        
  13503 ****         4.2500   3.2500  11.5000 Du        
  13504 ****         4.2500   3.2500  11.7500 Du        
  13505 ****         4.2500   3.2500  12.0000 Du        
  13506 ****         4.2500   3.2500  12.2500 Du        
  13507 ****         4.2500   3.2500  12.5000 Du        
  13508 ****         4.2500   3.2500  12.7500 Du        
  13509 ****         4.2500   3.2500  13.0000 Du        
  13510 ****         4.2500   3.2500  13.2500 Du        
  13511 ****         4.2500   3.5000  11.5000 Du        
  13512 ****         4.2500   3.5000  11.7500 Du        
  13513 ****         4.2500   3.5000  12.0000 Du        
  13514 ****         4.2500   3.5000  12.2500 Du        
  13515 ****         4.2500   3.5000  12.5000 Du        
  13516 ****         4.2500   3.5000  12.7500 Du        
  13517 ****         4.2500   3.5000  13.0000 Du        
  13518 ****         4.2500   3.5000  13.2500 Du        
  13519 ****         4.2500   3.7500  11.5000 Du        
  13520 ****         4.2500   3.7500  11.7500 Du        
  13521 ****         4.2500   3.7500  12.0000 Du        
  13522 ****         4.2500   3.7500  12.2500 Du        
  13523 ****         4.2500   3.7500  12.5000 Du        
  13524 ****         4.2500   3.7500  12.7500 Du        
  13525 ****         4.2500   3.7500  13.0000 Du        
  13526 ****         4.2500   3.7500  13.2500 Du        
  13527 ****         4.2500   4.0000  11.5000 Du        
  13528 ****         4.2500   4.0000  11.7500 Du        
  13529 ****         4.2500   4.0000  12.0000 Du        
  13530 ****         4.2500   4.0000  12.2500 Du        
  13531 ****         4.2500   4.0000  12.5000 Du        
  13532 ****         4.2500   4.0000  12.7500 Du        
  13533 ****         4.2500   4.0000  13.0000 Du        
  13534 ****         4.2500   4.0000  13.2500 Du        
  13535 ****         4.2500   4.2500  11.2500 Du        
  13536 ****         4.2500   4.2500  11.5000 Du        
  13537 ****         4.2500   4.2500  11.7500 Du        
  13538 ****         4.2500   4.2500  12.0000 Du        
  13539 ****         4.2500   4.2500  12.2500 Du        
  13540 ****         4.2500   4.2500  12.5000 Du        
  13541 ****         4.2500   4.2500  12.7500 Du        
  13542 ****         4.2500   4.2500  13.0000 Du        
  13543 ****         4.2500   4.2500  13.2500 Du        
  13544 ****         4.2500   4.5000  11.2500 Du        
  13545 ****         4.2500   4.5000  11.5000 Du        
  13546 ****         4.2500   4.5000  11.7500 Du        
  13547 ****         4.2500   4.5000  12.0000 Du        
  13548 ****         4.2500   4.5000  12.2500 Du        
  13549 ****         4.2500   4.5000  12.5000 Du        
  13550 ****         4.2500   4.5000  12.7500 Du        
  13551 ****         4.2500   4.5000  13.0000 Du        
  13552 ****         4.2500   4.5000  13.2500 Du        
  13553 ****         4.2500   4.7500  11.0000 Du        
  13554 ****         4.2500   4.7500  11.2500 Du        
  13555 ****         4.2500   4.7500  11.5000 Du        
  13556 ****         4.2500   4.7500  11.7500 Du        
  13557 ****         4.2500   4.7500  12.0000 Du        
  13558 ****         4.2500   4.7500  12.2500 Du        
  13559 ****         4.2500   4.7500  12.5000 Du        
  13560 ****         4.2500   4.7500  12.7500 Du        
  13561 ****         4.2500   4.7500  13.0000 Du        
  13562 ****         4.2500   4.7500  13.2500 Du        
  13563 ****         4.2500   5.0000  11.0000 Du        
  13564 ****         4.2500   5.0000  11.2500 Du        
  13565 ****         4.2500   5.0000  11.5000 Du        
  13566 ****         4.2500   5.0000  11.7500 Du        
  13567 ****         4.2500   5.0000  12.0000 Du        
  13568 ****         4.2500   5.0000  12.2500 Du        
  13569 ****         4.2500   5.0000  12.5000 Du        
  13570 ****         4.2500   5.0000  12.7500 Du        
  13571 ****         4.2500   5.0000  13.0000 Du        
  13572 ****         4.2500   5.0000  13.2500 Du        
  13573 ****         4.2500   5.2500  11.0000 Du        
  13574 ****         4.2500   5.2500  11.2500 Du        
  13575 ****         4.2500   5.2500  11.5000 Du        
  13576 ****         4.2500   5.2500  11.7500 Du        
  13577 ****         4.2500   5.2500  12.0000 Du        
  13578 ****         4.2500   5.2500  12.2500 Du        
  13579 ****         4.2500   5.2500  12.5000 Du        
  13580 ****         4.2500   5.2500  12.7500 Du        
  13581 ****         4.2500   5.2500  13.0000 Du        
  13582 ****         4.2500   5.2500  13.2500 Du        
  13583 ****         4.2500   5.2500  13.5000 Du        
  13584 ****         4.2500   5.5000  11.0000 Du        
  13585 ****         4.2500   5.5000  11.2500 Du        
  13586 ****         4.2500   5.5000  11.5000 Du        
  13587 ****         4.2500   5.5000  11.7500 Du        
  13588 ****         4.2500   5.5000  12.0000 Du        
  13589 ****         4.2500   5.5000  12.2500 Du        
  13590 ****         4.2500   5.5000  12.5000 Du        
  13591 ****         4.2500   5.5000  12.7500 Du        
  13592 ****         4.2500   5.5000  13.0000 Du        
  13593 ****         4.2500   5.5000  13.2500 Du        
  13594 ****         4.2500   5.7500  11.0000 Du        
  13595 ****         4.2500   5.7500  11.2500 Du        
  13596 ****         4.2500   5.7500  11.5000 Du        
  13597 ****         4.2500   5.7500  11.7500 Du        
  13598 ****         4.2500   5.7500  12.0000 Du        
  13599 ****         4.2500   5.7500  12.2500 Du        
  13600 ****         4.2500   5.7500  12.5000 Du        
  13601 ****         4.2500   5.7500  12.7500 Du        
  13602 ****         4.2500   5.7500  13.0000 Du        
  13603 ****         4.2500   5.7500  13.2500 Du        
  13604 ****         4.2500   6.0000  11.0000 Du        
  13605 ****         4.2500   6.0000  11.2500 Du        
  13606 ****         4.2500   6.0000  11.5000 Du        
  13607 ****         4.2500   6.0000  11.7500 Du        
  13608 ****         4.2500   6.0000  12.0000 Du        
  13609 ****         4.2500   6.0000  12.2500 Du        
  13610 ****         4.2500   6.0000  12.5000 Du        
  13611 ****         4.2500   6.0000  12.7500 Du        
  13612 ****         4.2500   6.0000  13.0000 Du        
  13613 ****         4.2500   6.0000  13.2500 Du        
  13614 ****         4.2500   6.2500  11.0000 Du        
  13615 ****         4.2500   6.2500  11.2500 Du        
  13616 ****         4.2500   6.2500  11.5000 Du        
  13617 ****         4.2500   6.2500  11.7500 Du        
  13618 ****         4.2500   6.2500  12.0000 Du        
  13619 ****         4.2500   6.2500  12.2500 Du        
  13620 ****         4.2500   6.2500  12.5000 Du        
  13621 ****         4.2500   6.2500  12.7500 Du        
  13622 ****         4.2500   6.2500  13.0000 Du        
  13623 ****         4.2500   6.2500  13.2500 Du        
  13624 ****         4.2500   6.5000  11.0000 Du        
  13625 ****         4.2500   6.5000  11.2500 Du        
  13626 ****         4.2500   6.5000  11.5000 Du        
  13627 ****         4.2500   6.5000  11.7500 Du        
  13628 ****         4.2500   6.5000  12.0000 Du        
  13629 ****         4.2500   6.5000  12.2500 Du        
  13630 ****         4.2500   6.5000  12.5000 Du        
  13631 ****         4.2500   6.5000  12.7500 Du        
  13632 ****         4.2500   6.5000  13.0000 Du        
  13633 ****         4.2500   6.5000  13.2500 Du        
  13634 ****         4.2500   6.7500  11.0000 Du        
  13635 ****         4.2500   6.7500  11.2500 Du        
  13636 ****         4.2500   6.7500  11.5000 Du        
  13637 ****         4.2500   6.7500  11.7500 Du        
  13638 ****         4.2500   6.7500  12.0000 Du        
  13639 ****         4.2500   6.7500  12.2500 Du        
  13640 ****         4.2500   6.7500  12.5000 Du        
  13641 ****         4.2500   6.7500  12.7500 Du        
  13642 ****         4.2500   6.7500  13.0000 Du        
  13643 ****         4.2500   7.0000   6.0000 Du        
  13644 ****         4.2500   7.0000   6.2500 Du        
  13645 ****         4.2500   7.0000   6.5000 Du        
  13646 ****         4.2500   7.0000   6.7500 Du        
  13647 ****         4.2500   7.0000  10.7500 Du        
  13648 ****         4.2500   7.0000  11.0000 Du        
  13649 ****         4.2500   7.0000  11.2500 Du        
  13650 ****         4.2500   7.0000  11.5000 Du        
  13651 ****         4.2500   7.0000  11.7500 Du        
  13652 ****         4.2500   7.0000  12.0000 Du        
  13653 ****         4.2500   7.0000  12.2500 Du        
  13654 ****         4.2500   7.0000  12.5000 Du        
  13655 ****         4.2500   7.0000  12.7500 Du        
  13656 ****         4.2500   7.0000  13.0000 Du        
  13657 ****         4.2500   7.2500   6.0000 Du        
  13658 ****         4.2500   7.2500   6.2500 Du        
  13659 ****         4.2500   7.2500   6.5000 Du        
  13660 ****         4.2500   7.2500   6.7500 Du        
  13661 ****         4.2500   7.2500   7.0000 Du        
  13662 ****         4.2500   7.2500  10.7500 Du        
  13663 ****         4.2500   7.2500  11.0000 Du        
  13664 ****         4.2500   7.2500  11.2500 Du        
  13665 ****         4.2500   7.2500  11.5000 Du        
  13666 ****         4.2500   7.2500  11.7500 Du        
  13667 ****         4.2500   7.2500  12.0000 Du        
  13668 ****         4.2500   7.2500  12.2500 Du        
  13669 ****         4.2500   7.2500  12.5000 Du        
  13670 ****         4.2500   7.2500  12.7500 Du        
  13671 ****         4.2500   7.2500  13.0000 Du        
  13672 ****         4.2500   7.5000   6.0000 Du        
  13673 ****         4.2500   7.5000   6.2500 Du        
  13674 ****         4.2500   7.5000   6.5000 Du        
  13675 ****         4.2500   7.5000   6.7500 Du        
  13676 ****         4.2500   7.5000   7.0000 Du        
  13677 ****         4.2500   7.5000   7.2500 Du        
  13678 ****         4.2500   7.5000  11.5000 Du        
  13679 ****         4.2500   7.5000  11.7500 Du        
  13680 ****         4.2500   7.5000  12.0000 Du        
  13681 ****         4.2500   7.5000  12.2500 Du        
  13682 ****         4.2500   7.5000  12.7500 Du        
  13683 ****         4.2500   7.7500   6.0000 Du        
  13684 ****         4.2500   7.7500   6.2500 Du        
  13685 ****         4.2500   7.7500   6.5000 Du        
  13686 ****         4.2500   7.7500   6.7500 Du        
  13687 ****         4.2500   7.7500   7.0000 Du        
  13688 ****         4.2500   7.7500   7.2500 Du        
  13689 ****         4.2500   7.7500   7.5000 Du        
  13690 ****         4.2500   7.7500   7.7500 Du        
  13691 ****         4.2500   7.7500   8.0000 Du        
  13692 ****         4.2500   7.7500  10.2500 Du        
  13693 ****         4.2500   7.7500  10.7500 Du        
  13694 ****         4.2500   7.7500  11.0000 Du        
  13695 ****         4.2500   7.7500  11.5000 Du        
  13696 ****         4.2500   7.7500  11.7500 Du        
  13697 ****         4.2500   7.7500  12.0000 Du        
  13698 ****         4.2500   7.7500  12.2500 Du        
  13699 ****         4.2500   8.0000   6.0000 Du        
  13700 ****         4.2500   8.0000   6.2500 Du        
  13701 ****         4.2500   8.0000   6.5000 Du        
  13702 ****         4.2500   8.0000   6.7500 Du        
  13703 ****         4.2500   8.0000   7.0000 Du        
  13704 ****         4.2500   8.0000   7.2500 Du        
  13705 ****         4.2500   8.0000   7.5000 Du        
  13706 ****         4.2500   8.0000   7.7500 Du        
  13707 ****         4.2500   8.0000   8.0000 Du        
  13708 ****         4.2500   8.0000   8.2500 Du        
  13709 ****         4.2500   8.0000   8.5000 Du        
  13710 ****         4.2500   8.0000   8.7500 Du        
  13711 ****         4.2500   8.0000   9.0000 Du        
  13712 ****         4.2500   8.0000   9.2500 Du        
  13713 ****         4.2500   8.0000   9.7500 Du        
  13714 ****         4.2500   8.0000  10.0000 Du        
  13715 ****         4.2500   8.0000  10.5000 Du        
  13716 ****         4.2500   8.0000  11.0000 Du        
  13717 ****         4.2500   8.0000  11.5000 Du        
  13718 ****         4.2500   8.0000  11.7500 Du        
  13719 ****         4.2500   8.0000  12.0000 Du        
  13720 ****         4.2500   8.2500   6.5000 Du        
  13721 ****         4.2500   8.2500   6.7500 Du        
  13722 ****         4.2500   8.2500   7.0000 Du        
  13723 ****         4.2500   8.2500   7.2500 Du        
  13724 ****         4.2500   8.2500   7.5000 Du        
  13725 ****         4.2500   8.2500   7.7500 Du        
  13726 ****         4.2500   8.2500   8.0000 Du        
  13727 ****         4.2500   8.2500   8.2500 Du        
  13728 ****         4.2500   8.2500   8.5000 Du        
  13729 ****         4.2500   8.2500   8.7500 Du        
  13730 ****         4.2500   8.2500   9.0000 Du        
  13731 ****         4.2500   8.2500   9.2500 Du        
  13732 ****         4.2500   8.2500   9.5000 Du        
  13733 ****         4.2500   8.2500   9.7500 Du        
  13734 ****         4.2500   8.2500  11.5000 Du        
  13735 ****         4.2500   8.2500  11.7500 Du        
  13736 ****         4.2500   8.5000   6.5000 Du        
  13737 ****         4.2500   8.5000   6.7500 Du        
  13738 ****         4.2500   8.5000   7.0000 Du        
  13739 ****         4.2500   8.5000   7.2500 Du        
  13740 ****         4.2500   8.5000   7.5000 Du        
  13741 ****         4.2500   8.5000   7.7500 Du        
  13742 ****         4.2500   8.5000   8.0000 Du        
  13743 ****         4.2500   8.5000   8.2500 Du        
  13744 ****         4.2500   8.7500   6.5000 Du        
  13745 ****         4.2500   8.7500   6.7500 Du        
  13746 ****         4.2500   8.7500   7.0000 Du        
  13747 ****         4.2500   8.7500   7.2500 Du        
  13748 ****         4.2500   8.7500   7.5000 Du        
  13749 ****         4.2500   8.7500   7.7500 Du        
  13750 ****         4.2500   8.7500   8.0000 Du        
  13751 ****         4.2500   9.0000   6.5000 Du        
  13752 ****         4.2500   9.0000   6.7500 Du        
  13753 ****         4.2500   9.0000   7.0000 Du        
  13754 ****         4.2500   9.0000   7.2500 Du        
  13755 ****         4.2500   9.0000   7.5000 Du        
  13756 ****         4.2500   9.0000   7.7500 Du        
  13757 ****         4.2500   9.0000   8.0000 Du        
  13758 ****         4.2500   9.2500   7.0000 Du        
  13759 ****         4.2500   9.2500   7.2500 Du        
  13760 ****         4.2500   9.2500   7.5000 Du        
  13761 ****         4.2500   9.2500   7.7500 Du        
  13762 ****         4.2500   9.5000   7.0000 Du        
  13763 ****         4.2500   9.5000   7.2500 Du        
  13764 ****         4.5000   0.7500  12.5000 Du        
  13765 ****         4.5000   0.7500  12.7500 Du        
  13766 ****         4.5000   0.7500  13.0000 Du        
  13767 ****         4.5000   1.0000  12.5000 Du        
  13768 ****         4.5000   1.0000  12.7500 Du        
  13769 ****         4.5000   1.0000  13.0000 Du        
  13770 ****         4.5000   1.0000  13.2500 Du        
  13771 ****         4.5000   1.2500  12.5000 Du        
  13772 ****         4.5000   1.2500  12.7500 Du        
  13773 ****         4.5000   1.2500  13.0000 Du        
  13774 ****         4.5000   1.2500  13.2500 Du        
  13775 ****         4.5000   1.5000  12.5000 Du        
  13776 ****         4.5000   1.5000  12.7500 Du        
  13777 ****         4.5000   1.5000  13.0000 Du        
  13778 ****         4.5000   1.5000  13.2500 Du        
  13779 ****         4.5000   1.7500  12.2500 Du        
  13780 ****         4.5000   1.7500  12.5000 Du        
  13781 ****         4.5000   1.7500  12.7500 Du        
  13782 ****         4.5000   1.7500  13.0000 Du        
  13783 ****         4.5000   1.7500  13.2500 Du        
  13784 ****         4.5000   2.0000  12.2500 Du        
  13785 ****         4.5000   2.0000  12.5000 Du        
  13786 ****         4.5000   2.0000  12.7500 Du        
  13787 ****         4.5000   2.0000  13.0000 Du        
  13788 ****         4.5000   2.2500  12.0000 Du        
  13789 ****         4.5000   2.2500  12.2500 Du        
  13790 ****         4.5000   2.2500  12.5000 Du        
  13791 ****         4.5000   2.2500  12.7500 Du        
  13792 ****         4.5000   2.2500  13.0000 Du        
  13793 ****         4.5000   2.5000  11.7500 Du        
  13794 ****         4.5000   2.5000  12.0000 Du        
  13795 ****         4.5000   2.5000  12.2500 Du        
  13796 ****         4.5000   2.5000  12.5000 Du        
  13797 ****         4.5000   2.5000  12.7500 Du        
  13798 ****         4.5000   2.5000  13.0000 Du        
  13799 ****         4.5000   2.7500  11.7500 Du        
  13800 ****         4.5000   2.7500  12.0000 Du        
  13801 ****         4.5000   2.7500  12.2500 Du        
  13802 ****         4.5000   2.7500  12.5000 Du        
  13803 ****         4.5000   2.7500  12.7500 Du        
  13804 ****         4.5000   2.7500  13.0000 Du        
  13805 ****         4.5000   3.0000  11.5000 Du        
  13806 ****         4.5000   3.0000  11.7500 Du        
  13807 ****         4.5000   3.0000  12.0000 Du        
  13808 ****         4.5000   3.0000  12.2500 Du        
  13809 ****         4.5000   3.0000  12.5000 Du        
  13810 ****         4.5000   3.0000  12.7500 Du        
  13811 ****         4.5000   3.0000  13.0000 Du        
  13812 ****         4.5000   3.2500  11.2500 Du        
  13813 ****         4.5000   3.2500  11.5000 Du        
  13814 ****         4.5000   3.2500  11.7500 Du        
  13815 ****         4.5000   3.2500  12.0000 Du        
  13816 ****         4.5000   3.2500  12.2500 Du        
  13817 ****         4.5000   3.2500  12.5000 Du        
  13818 ****         4.5000   3.2500  12.7500 Du        
  13819 ****         4.5000   3.2500  13.0000 Du        
  13820 ****         4.5000   3.5000  11.2500 Du        
  13821 ****         4.5000   3.5000  11.5000 Du        
  13822 ****         4.5000   3.5000  11.7500 Du        
  13823 ****         4.5000   3.5000  12.0000 Du        
  13824 ****         4.5000   3.5000  12.2500 Du        
  13825 ****         4.5000   3.5000  12.5000 Du        
  13826 ****         4.5000   3.5000  12.7500 Du        
  13827 ****         4.5000   3.7500  11.2500 Du        
  13828 ****         4.5000   3.7500  11.5000 Du        
  13829 ****         4.5000   3.7500  11.7500 Du        
  13830 ****         4.5000   3.7500  12.0000 Du        
  13831 ****         4.5000   3.7500  12.2500 Du        
  13832 ****         4.5000   3.7500  12.5000 Du        
  13833 ****         4.5000   3.7500  12.7500 Du        
  13834 ****         4.5000   3.7500  13.0000 Du        
  13835 ****         4.5000   4.0000  11.2500 Du        
  13836 ****         4.5000   4.0000  11.5000 Du        
  13837 ****         4.5000   4.0000  11.7500 Du        
  13838 ****         4.5000   4.0000  12.0000 Du        
  13839 ****         4.5000   4.0000  12.2500 Du        
  13840 ****         4.5000   4.0000  12.5000 Du        
  13841 ****         4.5000   4.0000  12.7500 Du        
  13842 ****         4.5000   4.0000  13.0000 Du        
  13843 ****         4.5000   4.2500  11.0000 Du        
  13844 ****         4.5000   4.2500  11.2500 Du        
  13845 ****         4.5000   4.2500  11.5000 Du        
  13846 ****         4.5000   4.2500  11.7500 Du        
  13847 ****         4.5000   4.2500  12.0000 Du        
  13848 ****         4.5000   4.2500  12.2500 Du        
  13849 ****         4.5000   4.2500  12.5000 Du        
  13850 ****         4.5000   4.2500  12.7500 Du        
  13851 ****         4.5000   4.2500  13.0000 Du        
  13852 ****         4.5000   4.5000  11.0000 Du        
  13853 ****         4.5000   4.5000  11.2500 Du        
  13854 ****         4.5000   4.5000  11.5000 Du        
  13855 ****         4.5000   4.5000  11.7500 Du        
  13856 ****         4.5000   4.5000  12.0000 Du        
  13857 ****         4.5000   4.5000  12.2500 Du        
  13858 ****         4.5000   4.5000  12.5000 Du        
  13859 ****         4.5000   4.5000  12.7500 Du        
  13860 ****         4.5000   4.5000  13.0000 Du        
  13861 ****         4.5000   4.7500  11.0000 Du        
  13862 ****         4.5000   4.7500  11.2500 Du        
  13863 ****         4.5000   4.7500  11.5000 Du        
  13864 ****         4.5000   4.7500  11.7500 Du        
  13865 ****         4.5000   4.7500  12.0000 Du        
  13866 ****         4.5000   4.7500  12.2500 Du        
  13867 ****         4.5000   4.7500  12.5000 Du        
  13868 ****         4.5000   4.7500  12.7500 Du        
  13869 ****         4.5000   4.7500  13.0000 Du        
  13870 ****         4.5000   4.7500  13.2500 Du        
  13871 ****         4.5000   5.0000  11.0000 Du        
  13872 ****         4.5000   5.0000  11.2500 Du        
  13873 ****         4.5000   5.0000  11.5000 Du        
  13874 ****         4.5000   5.0000  11.7500 Du        
  13875 ****         4.5000   5.0000  12.0000 Du        
  13876 ****         4.5000   5.0000  12.2500 Du        
  13877 ****         4.5000   5.0000  12.5000 Du        
  13878 ****         4.5000   5.0000  12.7500 Du        
  13879 ****         4.5000   5.0000  13.0000 Du        
  13880 ****         4.5000   5.0000  13.2500 Du        
  13881 ****         4.5000   5.2500  10.7500 Du        
  13882 ****         4.5000   5.2500  11.0000 Du        
  13883 ****         4.5000   5.2500  11.2500 Du        
  13884 ****         4.5000   5.2500  11.5000 Du        
  13885 ****         4.5000   5.2500  11.7500 Du        
  13886 ****         4.5000   5.2500  12.0000 Du        
  13887 ****         4.5000   5.2500  12.2500 Du        
  13888 ****         4.5000   5.2500  12.5000 Du        
  13889 ****         4.5000   5.2500  12.7500 Du        
  13890 ****         4.5000   5.2500  13.0000 Du        
  13891 ****         4.5000   5.2500  13.2500 Du        
  13892 ****         4.5000   5.5000  10.7500 Du        
  13893 ****         4.5000   5.5000  11.0000 Du        
  13894 ****         4.5000   5.5000  11.2500 Du        
  13895 ****         4.5000   5.5000  11.5000 Du        
  13896 ****         4.5000   5.5000  11.7500 Du        
  13897 ****         4.5000   5.5000  12.0000 Du        
  13898 ****         4.5000   5.5000  12.2500 Du        
  13899 ****         4.5000   5.5000  12.5000 Du        
  13900 ****         4.5000   5.5000  12.7500 Du        
  13901 ****         4.5000   5.5000  13.0000 Du        
  13902 ****         4.5000   5.5000  13.2500 Du        
  13903 ****         4.5000   5.7500  10.7500 Du        
  13904 ****         4.5000   5.7500  11.0000 Du        
  13905 ****         4.5000   5.7500  11.2500 Du        
  13906 ****         4.5000   5.7500  11.5000 Du        
  13907 ****         4.5000   5.7500  11.7500 Du        
  13908 ****         4.5000   5.7500  12.0000 Du        
  13909 ****         4.5000   5.7500  12.2500 Du        
  13910 ****         4.5000   5.7500  12.5000 Du        
  13911 ****         4.5000   5.7500  12.7500 Du        
  13912 ****         4.5000   5.7500  13.0000 Du        
  13913 ****         4.5000   5.7500  13.2500 Du        
  13914 ****         4.5000   6.0000  10.7500 Du        
  13915 ****         4.5000   6.0000  11.0000 Du        
  13916 ****         4.5000   6.0000  11.2500 Du        
  13917 ****         4.5000   6.0000  11.5000 Du        
  13918 ****         4.5000   6.0000  11.7500 Du        
  13919 ****         4.5000   6.0000  12.0000 Du        
  13920 ****         4.5000   6.0000  12.2500 Du        
  13921 ****         4.5000   6.0000  12.5000 Du        
  13922 ****         4.5000   6.0000  12.7500 Du        
  13923 ****         4.5000   6.0000  13.0000 Du        
  13924 ****         4.5000   6.0000  13.2500 Du        
  13925 ****         4.5000   6.2500  10.7500 Du        
  13926 ****         4.5000   6.2500  11.0000 Du        
  13927 ****         4.5000   6.2500  11.2500 Du        
  13928 ****         4.5000   6.2500  11.5000 Du        
  13929 ****         4.5000   6.2500  11.7500 Du        
  13930 ****         4.5000   6.2500  12.0000 Du        
  13931 ****         4.5000   6.2500  12.2500 Du        
  13932 ****         4.5000   6.2500  12.5000 Du        
  13933 ****         4.5000   6.2500  12.7500 Du        
  13934 ****         4.5000   6.2500  13.0000 Du        
  13935 ****         4.5000   6.2500  13.2500 Du        
  13936 ****         4.5000   6.5000  10.7500 Du        
  13937 ****         4.5000   6.5000  11.0000 Du        
  13938 ****         4.5000   6.5000  11.2500 Du        
  13939 ****         4.5000   6.5000  11.5000 Du        
  13940 ****         4.5000   6.5000  11.7500 Du        
  13941 ****         4.5000   6.5000  12.0000 Du        
  13942 ****         4.5000   6.5000  12.2500 Du        
  13943 ****         4.5000   6.5000  12.5000 Du        
  13944 ****         4.5000   6.5000  12.7500 Du        
  13945 ****         4.5000   6.5000  13.0000 Du        
  13946 ****         4.5000   6.5000  13.2500 Du        
  13947 ****         4.5000   6.7500  10.5000 Du        
  13948 ****         4.5000   6.7500  10.7500 Du        
  13949 ****         4.5000   6.7500  11.0000 Du        
  13950 ****         4.5000   6.7500  11.2500 Du        
  13951 ****         4.5000   6.7500  11.5000 Du        
  13952 ****         4.5000   6.7500  11.7500 Du        
  13953 ****         4.5000   6.7500  12.0000 Du        
  13954 ****         4.5000   6.7500  12.2500 Du        
  13955 ****         4.5000   6.7500  12.5000 Du        
  13956 ****         4.5000   6.7500  12.7500 Du        
  13957 ****         4.5000   6.7500  13.0000 Du        
  13958 ****         4.5000   6.7500  13.2500 Du        
  13959 ****         4.5000   7.0000   6.0000 Du        
  13960 ****         4.5000   7.0000   6.2500 Du        
  13961 ****         4.5000   7.0000   6.5000 Du        
  13962 ****         4.5000   7.0000  10.5000 Du        
  13963 ****         4.5000   7.0000  10.7500 Du        
  13964 ****         4.5000   7.0000  11.0000 Du        
  13965 ****         4.5000   7.0000  11.2500 Du        
  13966 ****         4.5000   7.0000  11.5000 Du        
  13967 ****         4.5000   7.0000  11.7500 Du        
  13968 ****         4.5000   7.0000  12.0000 Du        
  13969 ****         4.5000   7.0000  12.2500 Du        
  13970 ****         4.5000   7.0000  12.5000 Du        
  13971 ****         4.5000   7.0000  12.7500 Du        
  13972 ****         4.5000   7.0000  13.0000 Du        
  13973 ****         4.5000   7.2500   6.0000 Du        
  13974 ****         4.5000   7.2500   6.2500 Du        
  13975 ****         4.5000   7.2500   6.5000 Du        
  13976 ****         4.5000   7.2500   6.7500 Du        
  13977 ****         4.5000   7.2500   7.0000 Du        
  13978 ****         4.5000   7.2500  10.2500 Du        
  13979 ****         4.5000   7.2500  10.5000 Du        
  13980 ****         4.5000   7.2500  10.7500 Du        
  13981 ****         4.5000   7.2500  11.0000 Du        
  13982 ****         4.5000   7.2500  11.2500 Du        
  13983 ****         4.5000   7.2500  11.5000 Du        
  13984 ****         4.5000   7.2500  11.7500 Du        
  13985 ****         4.5000   7.2500  12.0000 Du        
  13986 ****         4.5000   7.2500  12.2500 Du        
  13987 ****         4.5000   7.2500  12.5000 Du        
  13988 ****         4.5000   7.2500  12.7500 Du        
  13989 ****         4.5000   7.2500  13.0000 Du        
  13990 ****         4.5000   7.5000   6.0000 Du        
  13991 ****         4.5000   7.5000   6.2500 Du        
  13992 ****         4.5000   7.5000   6.5000 Du        
  13993 ****         4.5000   7.5000   6.7500 Du        
  13994 ****         4.5000   7.5000   7.0000 Du        
  13995 ****         4.5000   7.5000   7.2500 Du        
  13996 ****         4.5000   7.5000   7.5000 Du        
  13997 ****         4.5000   7.5000   9.7500 Du        
  13998 ****         4.5000   7.5000  10.0000 Du        
  13999 ****         4.5000   7.5000  10.2500 Du        
  14000 ****         4.5000   7.5000  10.5000 Du        
  14001 ****         4.5000   7.5000  10.7500 Du        
  14002 ****         4.5000   7.5000  11.0000 Du        
  14003 ****         4.5000   7.5000  11.2500 Du        
  14004 ****         4.5000   7.5000  11.5000 Du        
  14005 ****         4.5000   7.5000  11.7500 Du        
  14006 ****         4.5000   7.5000  12.0000 Du        
  14007 ****         4.5000   7.5000  12.2500 Du        
  14008 ****         4.5000   7.5000  12.5000 Du        
  14009 ****         4.5000   7.5000  12.7500 Du        
  14010 ****         4.5000   7.5000  13.0000 Du        
  14011 ****         4.5000   7.7500   6.0000 Du        
  14012 ****         4.5000   7.7500   6.2500 Du        
  14013 ****         4.5000   7.7500   6.5000 Du        
  14014 ****         4.5000   7.7500   6.7500 Du        
  14015 ****         4.5000   7.7500   7.0000 Du        
  14016 ****         4.5000   7.7500   7.2500 Du        
  14017 ****         4.5000   7.7500   7.5000 Du        
  14018 ****         4.5000   7.7500   7.7500 Du        
  14019 ****         4.5000   7.7500   8.0000 Du        
  14020 ****         4.5000   7.7500   8.2500 Du        
  14021 ****         4.5000   7.7500   8.5000 Du        
  14022 ****         4.5000   7.7500   8.7500 Du        
  14023 ****         4.5000   7.7500   9.0000 Du        
  14024 ****         4.5000   7.7500   9.2500 Du        
  14025 ****         4.5000   7.7500   9.5000 Du        
  14026 ****         4.5000   7.7500   9.7500 Du        
  14027 ****         4.5000   7.7500  10.0000 Du        
  14028 ****         4.5000   7.7500  10.2500 Du        
  14029 ****         4.5000   7.7500  10.5000 Du        
  14030 ****         4.5000   7.7500  10.7500 Du        
  14031 ****         4.5000   7.7500  11.0000 Du        
  14032 ****         4.5000   7.7500  11.2500 Du        
  14033 ****         4.5000   7.7500  11.5000 Du        
  14034 ****         4.5000   7.7500  11.7500 Du        
  14035 ****         4.5000   7.7500  12.0000 Du        
  14036 ****         4.5000   7.7500  12.2500 Du        
  14037 ****         4.5000   7.7500  12.5000 Du        
  14038 ****         4.5000   7.7500  12.7500 Du        
  14039 ****         4.5000   7.7500  13.0000 Du        
  14040 ****         4.5000   8.0000   6.0000 Du        
  14041 ****         4.5000   8.0000   6.2500 Du        
  14042 ****         4.5000   8.0000   6.5000 Du        
  14043 ****         4.5000   8.0000   6.7500 Du        
  14044 ****         4.5000   8.0000   7.0000 Du        
  14045 ****         4.5000   8.0000   7.2500 Du        
  14046 ****         4.5000   8.0000   7.5000 Du        
  14047 ****         4.5000   8.0000   7.7500 Du        
  14048 ****         4.5000   8.0000   8.0000 Du        
  14049 ****         4.5000   8.0000   8.2500 Du        
  14050 ****         4.5000   8.0000   8.5000 Du        
  14051 ****         4.5000   8.0000   8.7500 Du        
  14052 ****         4.5000   8.0000   9.0000 Du        
  14053 ****         4.5000   8.0000   9.2500 Du        
  14054 ****         4.5000   8.0000   9.5000 Du        
  14055 ****         4.5000   8.0000   9.7500 Du        
  14056 ****         4.5000   8.0000  10.0000 Du        
  14057 ****         4.5000   8.0000  10.2500 Du        
  14058 ****         4.5000   8.0000  10.5000 Du        
  14059 ****         4.5000   8.0000  10.7500 Du        
  14060 ****         4.5000   8.0000  11.0000 Du        
  14061 ****         4.5000   8.0000  11.2500 Du        
  14062 ****         4.5000   8.0000  11.5000 Du        
  14063 ****         4.5000   8.0000  11.7500 Du        
  14064 ****         4.5000   8.0000  12.0000 Du        
  14065 ****         4.5000   8.0000  12.2500 Du        
  14066 ****         4.5000   8.0000  12.5000 Du        
  14067 ****         4.5000   8.0000  12.7500 Du        
  14068 ****         4.5000   8.0000  13.0000 Du        
  14069 ****         4.5000   8.2500   6.5000 Du        
  14070 ****         4.5000   8.2500   6.7500 Du        
  14071 ****         4.5000   8.2500   7.0000 Du        
  14072 ****         4.5000   8.2500   7.2500 Du        
  14073 ****         4.5000   8.2500   7.5000 Du        
  14074 ****         4.5000   8.2500   7.7500 Du        
  14075 ****         4.5000   8.2500   8.0000 Du        
  14076 ****         4.5000   8.2500   8.2500 Du        
  14077 ****         4.5000   8.2500   8.5000 Du        
  14078 ****         4.5000   8.2500   8.7500 Du        
  14079 ****         4.5000   8.2500   9.0000 Du        
  14080 ****         4.5000   8.2500   9.2500 Du        
  14081 ****         4.5000   8.2500   9.5000 Du        
  14082 ****         4.5000   8.2500   9.7500 Du        
  14083 ****         4.5000   8.2500  10.0000 Du        
  14084 ****         4.5000   8.2500  10.2500 Du        
  14085 ****         4.5000   8.2500  10.5000 Du        
  14086 ****         4.5000   8.2500  10.7500 Du        
  14087 ****         4.5000   8.2500  11.0000 Du        
  14088 ****         4.5000   8.2500  11.2500 Du        
  14089 ****         4.5000   8.2500  11.5000 Du        
  14090 ****         4.5000   8.2500  11.7500 Du        
  14091 ****         4.5000   8.2500  12.0000 Du        
  14092 ****         4.5000   8.2500  12.2500 Du        
  14093 ****         4.5000   8.2500  12.5000 Du        
  14094 ****         4.5000   8.2500  12.7500 Du        
  14095 ****         4.5000   8.2500  13.0000 Du        
  14096 ****         4.5000   8.5000   6.5000 Du        
  14097 ****         4.5000   8.5000   6.7500 Du        
  14098 ****         4.5000   8.5000   7.0000 Du        
  14099 ****         4.5000   8.5000   7.2500 Du        
  14100 ****         4.5000   8.5000   7.5000 Du        
  14101 ****         4.5000   8.5000   7.7500 Du        
  14102 ****         4.5000   8.5000   8.0000 Du        
  14103 ****         4.5000   8.5000   8.2500 Du        
  14104 ****         4.5000   8.5000   8.5000 Du        
  14105 ****         4.5000   8.5000   8.7500 Du        
  14106 ****         4.5000   8.5000   9.0000 Du        
  14107 ****         4.5000   8.5000   9.2500 Du        
  14108 ****         4.5000   8.5000   9.7500 Du        
  14109 ****         4.5000   8.5000  10.0000 Du        
  14110 ****         4.5000   8.5000  10.2500 Du        
  14111 ****         4.5000   8.5000  10.7500 Du        
  14112 ****         4.5000   8.7500   6.5000 Du        
  14113 ****         4.5000   8.7500   6.7500 Du        
  14114 ****         4.5000   8.7500   7.0000 Du        
  14115 ****         4.5000   8.7500   7.2500 Du        
  14116 ****         4.5000   8.7500   7.5000 Du        
  14117 ****         4.5000   8.7500   7.7500 Du        
  14118 ****         4.5000   8.7500   8.0000 Du        
  14119 ****         4.5000   8.7500   8.2500 Du        
  14120 ****         4.5000   8.7500   8.5000 Du        
  14121 ****         4.5000   8.7500   8.7500 Du        
  14122 ****         4.5000   8.7500   9.0000 Du        
  14123 ****         4.5000   8.7500   9.2500 Du        
  14124 ****         4.5000   8.7500   9.5000 Du        
  14125 ****         4.5000   8.7500   9.7500 Du        
  14126 ****         4.5000   8.7500  10.0000 Du        
  14127 ****         4.5000   8.7500  10.2500 Du        
  14128 ****         4.5000   8.7500  10.5000 Du        
  14129 ****         4.5000   9.0000   6.5000 Du        
  14130 ****         4.5000   9.0000   6.7500 Du        
  14131 ****         4.5000   9.0000   7.0000 Du        
  14132 ****         4.5000   9.0000   7.2500 Du        
  14133 ****         4.5000   9.0000   7.5000 Du        
  14134 ****         4.5000   9.0000   7.7500 Du        
  14135 ****         4.5000   9.0000   8.0000 Du        
  14136 ****         4.5000   9.0000   8.2500 Du        
  14137 ****         4.5000   9.0000   8.5000 Du        
  14138 ****         4.5000   9.0000   9.0000 Du        
  14139 ****         4.5000   9.0000   9.2500 Du        
  14140 ****         4.5000   9.0000   9.7500 Du        
  14141 ****         4.5000   9.2500   7.0000 Du        
  14142 ****         4.5000   9.2500   7.2500 Du        
  14143 ****         4.5000   9.2500   7.5000 Du        
  14144 ****         4.5000   9.2500   7.7500 Du        
  14145 ****         4.5000   9.2500   8.0000 Du        
  14146 ****         4.5000   9.5000   7.0000 Du        
  14147 ****         4.5000   9.5000   7.2500 Du        
  14148 ****         4.5000   9.7500   7.5000 Du        
  14149 ****         4.7500   0.5000  12.7500 Du        
  14150 ****         4.7500   0.7500  12.5000 Du        
  14151 ****         4.7500   0.7500  12.7500 Du        
  14152 ****         4.7500   0.7500  13.0000 Du        
  14153 ****         4.7500   1.0000  12.5000 Du        
  14154 ****         4.7500   1.0000  12.7500 Du        
  14155 ****         4.7500   1.0000  13.0000 Du        
  14156 ****         4.7500   1.2500  12.5000 Du        
  14157 ****         4.7500   1.2500  12.7500 Du        
  14158 ****         4.7500   1.2500  13.0000 Du        
  14159 ****         4.7500   1.5000  12.2500 Du        
  14160 ****         4.7500   1.5000  12.5000 Du        
  14161 ****         4.7500   1.5000  12.7500 Du        
  14162 ****         4.7500   1.5000  13.0000 Du        
  14163 ****         4.7500   1.7500  12.2500 Du        
  14164 ****         4.7500   1.7500  12.5000 Du        
  14165 ****         4.7500   1.7500  12.7500 Du        
  14166 ****         4.7500   2.0000  12.0000 Du        
  14167 ****         4.7500   2.0000  12.2500 Du        
  14168 ****         4.7500   2.0000  12.5000 Du        
  14169 ****         4.7500   2.0000  12.7500 Du        
  14170 ****         4.7500   2.2500  12.0000 Du        
  14171 ****         4.7500   2.2500  12.2500 Du        
  14172 ****         4.7500   2.2500  12.5000 Du        
  14173 ****         4.7500   2.2500  12.7500 Du        
  14174 ****         4.7500   2.5000  11.7500 Du        
  14175 ****         4.7500   2.5000  12.0000 Du        
  14176 ****         4.7500   2.5000  12.2500 Du        
  14177 ****         4.7500   2.5000  12.5000 Du        
  14178 ****         4.7500   2.5000  12.7500 Du        
  14179 ****         4.7500   2.7500  11.5000 Du        
  14180 ****         4.7500   2.7500  11.7500 Du        
  14181 ****         4.7500   2.7500  12.0000 Du        
  14182 ****         4.7500   2.7500  12.2500 Du        
  14183 ****         4.7500   2.7500  12.5000 Du        
  14184 ****         4.7500   2.7500  12.7500 Du        
  14185 ****         4.7500   3.0000  11.2500 Du        
  14186 ****         4.7500   3.0000  11.5000 Du        
  14187 ****         4.7500   3.0000  11.7500 Du        
  14188 ****         4.7500   3.0000  12.0000 Du        
  14189 ****         4.7500   3.0000  12.2500 Du        
  14190 ****         4.7500   3.0000  12.5000 Du        
  14191 ****         4.7500   3.0000  12.7500 Du        
  14192 ****         4.7500   3.2500  11.2500 Du        
  14193 ****         4.7500   3.2500  11.5000 Du        
  14194 ****         4.7500   3.2500  11.7500 Du        
  14195 ****         4.7500   3.2500  12.0000 Du        
  14196 ****         4.7500   3.2500  12.2500 Du        
  14197 ****         4.7500   3.2500  12.5000 Du        
  14198 ****         4.7500   3.2500  12.7500 Du        
  14199 ****         4.7500   3.5000  11.0000 Du        
  14200 ****         4.7500   3.5000  11.2500 Du        
  14201 ****         4.7500   3.5000  11.5000 Du        
  14202 ****         4.7500   3.5000  11.7500 Du        
  14203 ****         4.7500   3.5000  12.0000 Du        
  14204 ****         4.7500   3.5000  12.2500 Du        
  14205 ****         4.7500   3.5000  12.5000 Du        
  14206 ****         4.7500   3.7500  11.0000 Du        
  14207 ****         4.7500   3.7500  11.2500 Du        
  14208 ****         4.7500   3.7500  11.5000 Du        
  14209 ****         4.7500   3.7500  11.7500 Du        
  14210 ****         4.7500   3.7500  12.0000 Du        
  14211 ****         4.7500   3.7500  12.2500 Du        
  14212 ****         4.7500   3.7500  12.5000 Du        
  14213 ****         4.7500   4.0000  11.0000 Du        
  14214 ****         4.7500   4.0000  11.2500 Du        
  14215 ****         4.7500   4.0000  11.5000 Du        
  14216 ****         4.7500   4.0000  11.7500 Du        
  14217 ****         4.7500   4.0000  12.0000 Du        
  14218 ****         4.7500   4.0000  12.2500 Du        
  14219 ****         4.7500   4.0000  12.5000 Du        
  14220 ****         4.7500   4.0000  12.7500 Du        
  14221 ****         4.7500   4.2500  11.0000 Du        
  14222 ****         4.7500   4.2500  11.2500 Du        
  14223 ****         4.7500   4.2500  11.5000 Du        
  14224 ****         4.7500   4.2500  11.7500 Du        
  14225 ****         4.7500   4.2500  12.0000 Du        
  14226 ****         4.7500   4.2500  12.2500 Du        
  14227 ****         4.7500   4.2500  12.5000 Du        
  14228 ****         4.7500   4.2500  12.7500 Du        
  14229 ****         4.7500   4.5000  11.0000 Du        
  14230 ****         4.7500   4.5000  11.2500 Du        
  14231 ****         4.7500   4.5000  11.5000 Du        
  14232 ****         4.7500   4.5000  11.7500 Du        
  14233 ****         4.7500   4.5000  12.0000 Du        
  14234 ****         4.7500   4.5000  12.2500 Du        
  14235 ****         4.7500   4.5000  12.5000 Du        
  14236 ****         4.7500   4.5000  12.7500 Du        
  14237 ****         4.7500   4.7500  10.7500 Du        
  14238 ****         4.7500   4.7500  11.0000 Du        
  14239 ****         4.7500   4.7500  11.2500 Du        
  14240 ****         4.7500   4.7500  11.5000 Du        
  14241 ****         4.7500   4.7500  11.7500 Du        
  14242 ****         4.7500   4.7500  12.0000 Du        
  14243 ****         4.7500   4.7500  12.2500 Du        
  14244 ****         4.7500   4.7500  12.5000 Du        
  14245 ****         4.7500   4.7500  12.7500 Du        
  14246 ****         4.7500   5.0000  10.7500 Du        
  14247 ****         4.7500   5.0000  11.0000 Du        
  14248 ****         4.7500   5.0000  11.2500 Du        
  14249 ****         4.7500   5.0000  11.5000 Du        
  14250 ****         4.7500   5.0000  11.7500 Du        
  14251 ****         4.7500   5.0000  12.0000 Du        
  14252 ****         4.7500   5.0000  12.2500 Du        
  14253 ****         4.7500   5.0000  12.5000 Du        
  14254 ****         4.7500   5.0000  12.7500 Du        
  14255 ****         4.7500   5.2500  10.7500 Du        
  14256 ****         4.7500   5.2500  11.0000 Du        
  14257 ****         4.7500   5.2500  11.2500 Du        
  14258 ****         4.7500   5.2500  11.5000 Du        
  14259 ****         4.7500   5.2500  11.7500 Du        
  14260 ****         4.7500   5.2500  12.0000 Du        
  14261 ****         4.7500   5.2500  12.7500 Du        
  14262 ****         4.7500   5.2500  13.0000 Du        
  14263 ****         4.7500   5.5000  10.7500 Du        
  14264 ****         4.7500   5.5000  11.0000 Du        
  14265 ****         4.7500   5.5000  11.2500 Du        
  14266 ****         4.7500   5.5000  11.5000 Du        
  14267 ****         4.7500   5.5000  11.7500 Du        
  14268 ****         4.7500   5.7500  10.5000 Du        
  14269 ****         4.7500   5.7500  10.7500 Du        
  14270 ****         4.7500   5.7500  11.0000 Du        
  14271 ****         4.7500   5.7500  11.2500 Du        
  14272 ****         4.7500   5.7500  11.5000 Du        
  14273 ****         4.7500   5.7500  11.7500 Du        
  14274 ****         4.7500   6.0000  10.5000 Du        
  14275 ****         4.7500   6.0000  10.7500 Du        
  14276 ****         4.7500   6.0000  11.0000 Du        
  14277 ****         4.7500   6.0000  11.2500 Du        
  14278 ****         4.7500   6.0000  11.5000 Du        
  14279 ****         4.7500   6.0000  11.7500 Du        
  14280 ****         4.7500   6.0000  12.0000 Du        
  14281 ****         4.7500   6.0000  12.7500 Du        
  14282 ****         4.7500   6.0000  13.0000 Du        
  14283 ****         4.7500   6.0000  13.2500 Du        
  14284 ****         4.7500   6.2500  10.5000 Du        
  14285 ****         4.7500   6.2500  10.7500 Du        
  14286 ****         4.7500   6.2500  11.0000 Du        
  14287 ****         4.7500   6.2500  11.2500 Du        
  14288 ****         4.7500   6.2500  11.5000 Du        
  14289 ****         4.7500   6.2500  11.7500 Du        
  14290 ****         4.7500   6.2500  12.0000 Du        
  14291 ****         4.7500   6.2500  12.2500 Du        
  14292 ****         4.7500   6.2500  12.5000 Du        
  14293 ****         4.7500   6.2500  12.7500 Du        
  14294 ****         4.7500   6.2500  13.0000 Du        
  14295 ****         4.7500   6.2500  13.2500 Du        
  14296 ****         4.7500   6.5000  10.5000 Du        
  14297 ****         4.7500   6.5000  10.7500 Du        
  14298 ****         4.7500   6.5000  11.0000 Du        
  14299 ****         4.7500   6.5000  11.2500 Du        
  14300 ****         4.7500   6.5000  11.5000 Du        
  14301 ****         4.7500   6.5000  11.7500 Du        
  14302 ****         4.7500   6.5000  12.0000 Du        
  14303 ****         4.7500   6.5000  12.2500 Du        
  14304 ****         4.7500   6.5000  12.5000 Du        
  14305 ****         4.7500   6.5000  12.7500 Du        
  14306 ****         4.7500   6.5000  13.0000 Du        
  14307 ****         4.7500   6.5000  13.2500 Du        
  14308 ****         4.7500   6.7500  10.2500 Du        
  14309 ****         4.7500   6.7500  10.5000 Du        
  14310 ****         4.7500   6.7500  10.7500 Du        
  14311 ****         4.7500   6.7500  11.0000 Du        
  14312 ****         4.7500   6.7500  11.2500 Du        
  14313 ****         4.7500   6.7500  11.5000 Du        
  14314 ****         4.7500   6.7500  11.7500 Du        
  14315 ****         4.7500   6.7500  12.0000 Du        
  14316 ****         4.7500   6.7500  12.2500 Du        
  14317 ****         4.7500   6.7500  12.5000 Du        
  14318 ****         4.7500   6.7500  12.7500 Du        
  14319 ****         4.7500   6.7500  13.0000 Du        
  14320 ****         4.7500   7.0000   6.0000 Du        
  14321 ****         4.7500   7.0000   6.2500 Du        
  14322 ****         4.7500   7.0000  10.0000 Du        
  14323 ****         4.7500   7.0000  10.2500 Du        
  14324 ****         4.7500   7.0000  10.5000 Du        
  14325 ****         4.7500   7.0000  10.7500 Du        
  14326 ****         4.7500   7.0000  11.0000 Du        
  14327 ****         4.7500   7.0000  11.2500 Du        
  14328 ****         4.7500   7.0000  11.5000 Du        
  14329 ****         4.7500   7.0000  11.7500 Du        
  14330 ****         4.7500   7.0000  12.0000 Du        
  14331 ****         4.7500   7.0000  12.2500 Du        
  14332 ****         4.7500   7.0000  12.5000 Du        
  14333 ****         4.7500   7.0000  12.7500 Du        
  14334 ****         4.7500   7.0000  13.0000 Du        
  14335 ****         4.7500   7.2500   6.0000 Du        
  14336 ****         4.7500   7.2500   6.2500 Du        
  14337 ****         4.7500   7.2500   6.5000 Du        
  14338 ****         4.7500   7.2500   6.7500 Du        
  14339 ****         4.7500   7.2500   7.0000 Du        
  14340 ****         4.7500   7.2500   9.7500 Du        
  14341 ****         4.7500   7.2500  10.0000 Du        
  14342 ****         4.7500   7.2500  10.2500 Du        
  14343 ****         4.7500   7.2500  10.5000 Du        
  14344 ****         4.7500   7.2500  10.7500 Du        
  14345 ****         4.7500   7.2500  11.0000 Du        
  14346 ****         4.7500   7.2500  11.2500 Du        
  14347 ****         4.7500   7.2500  11.5000 Du        
  14348 ****         4.7500   7.2500  11.7500 Du        
  14349 ****         4.7500   7.2500  12.0000 Du        
  14350 ****         4.7500   7.2500  12.2500 Du        
  14351 ****         4.7500   7.2500  12.5000 Du        
  14352 ****         4.7500   7.2500  12.7500 Du        
  14353 ****         4.7500   7.5000   6.0000 Du        
  14354 ****         4.7500   7.5000   6.2500 Du        
  14355 ****         4.7500   7.5000   6.5000 Du        
  14356 ****         4.7500   7.5000   6.7500 Du        
  14357 ****         4.7500   7.5000   7.0000 Du        
  14358 ****         4.7500   7.5000   7.2500 Du        
  14359 ****         4.7500   7.5000   7.5000 Du        
  14360 ****         4.7500   7.5000   7.7500 Du        
  14361 ****         4.7500   7.5000   8.0000 Du        
  14362 ****         4.7500   7.5000   8.2500 Du        
  14363 ****         4.7500   7.5000   8.5000 Du        
  14364 ****         4.7500   7.5000   8.7500 Du        
  14365 ****         4.7500   7.5000   9.0000 Du        
  14366 ****         4.7500   7.5000   9.2500 Du        
  14367 ****         4.7500   7.5000   9.5000 Du        
  14368 ****         4.7500   7.5000   9.7500 Du        
  14369 ****         4.7500   7.5000  10.0000 Du        
  14370 ****         4.7500   7.5000  10.2500 Du        
  14371 ****         4.7500   7.5000  10.5000 Du        
  14372 ****         4.7500   7.5000  10.7500 Du        
  14373 ****         4.7500   7.5000  11.0000 Du        
  14374 ****         4.7500   7.5000  11.2500 Du        
  14375 ****         4.7500   7.5000  11.5000 Du        
  14376 ****         4.7500   7.5000  11.7500 Du        
  14377 ****         4.7500   7.5000  12.0000 Du        
  14378 ****         4.7500   7.5000  12.2500 Du        
  14379 ****         4.7500   7.7500   6.5000 Du        
  14380 ****         4.7500   7.7500   6.7500 Du        
  14381 ****         4.7500   7.7500   7.0000 Du        
  14382 ****         4.7500   7.7500   7.2500 Du        
  14383 ****         4.7500   7.7500   7.5000 Du        
  14384 ****         4.7500   7.7500   7.7500 Du        
  14385 ****         4.7500   7.7500   8.0000 Du        
  14386 ****         4.7500   7.7500   8.2500 Du        
  14387 ****         4.7500   7.7500   8.5000 Du        
  14388 ****         4.7500   7.7500   8.7500 Du        
  14389 ****         4.7500   7.7500   9.0000 Du        
  14390 ****         4.7500   7.7500   9.2500 Du        
  14391 ****         4.7500   7.7500   9.5000 Du        
  14392 ****         4.7500   7.7500   9.7500 Du        
  14393 ****         4.7500   7.7500  10.0000 Du        
  14394 ****         4.7500   7.7500  10.2500 Du        
  14395 ****         4.7500   7.7500  10.5000 Du        
  14396 ****         4.7500   7.7500  10.7500 Du        
  14397 ****         4.7500   7.7500  11.0000 Du        
  14398 ****         4.7500   7.7500  11.2500 Du        
  14399 ****         4.7500   7.7500  11.5000 Du        
  14400 ****         4.7500   7.7500  11.7500 Du        
  14401 ****         4.7500   7.7500  12.0000 Du        
  14402 ****         4.7500   7.7500  12.2500 Du        
  14403 ****         4.7500   8.0000   6.5000 Du        
  14404 ****         4.7500   8.0000   6.7500 Du        
  14405 ****         4.7500   8.0000   7.0000 Du        
  14406 ****         4.7500   8.0000   7.2500 Du        
  14407 ****         4.7500   8.0000   7.5000 Du        
  14408 ****         4.7500   8.0000   7.7500 Du        
  14409 ****         4.7500   8.0000   8.0000 Du        
  14410 ****         4.7500   8.0000   8.2500 Du        
  14411 ****         4.7500   8.0000   8.5000 Du        
  14412 ****         4.7500   8.0000   8.7500 Du        
  14413 ****         4.7500   8.0000   9.0000 Du        
  14414 ****         4.7500   8.0000   9.2500 Du        
  14415 ****         4.7500   8.0000   9.5000 Du        
  14416 ****         4.7500   8.0000   9.7500 Du        
  14417 ****         4.7500   8.0000  10.0000 Du        
  14418 ****         4.7500   8.0000  10.2500 Du        
  14419 ****         4.7500   8.0000  10.5000 Du        
  14420 ****         4.7500   8.0000  10.7500 Du        
  14421 ****         4.7500   8.0000  11.0000 Du        
  14422 ****         4.7500   8.0000  11.2500 Du        
  14423 ****         4.7500   8.0000  11.5000 Du        
  14424 ****         4.7500   8.0000  11.7500 Du        
  14425 ****         4.7500   8.0000  12.0000 Du        
  14426 ****         4.7500   8.0000  12.2500 Du        
  14427 ****         4.7500   8.2500   6.5000 Du        
  14428 ****         4.7500   8.2500   6.7500 Du        
  14429 ****         4.7500   8.2500   7.0000 Du        
  14430 ****         4.7500   8.2500   7.2500 Du        
  14431 ****         4.7500   8.2500   7.5000 Du        
  14432 ****         4.7500   8.2500   7.7500 Du        
  14433 ****         4.7500   8.2500   8.0000 Du        
  14434 ****         4.7500   8.2500   8.2500 Du        
  14435 ****         4.7500   8.2500   8.5000 Du        
  14436 ****         4.7500   8.2500   8.7500 Du        
  14437 ****         4.7500   8.2500   9.0000 Du        
  14438 ****         4.7500   8.2500   9.2500 Du        
  14439 ****         4.7500   8.2500   9.5000 Du        
  14440 ****         4.7500   8.2500   9.7500 Du        
  14441 ****         4.7500   8.2500  10.0000 Du        
  14442 ****         4.7500   8.2500  10.2500 Du        
  14443 ****         4.7500   8.2500  10.5000 Du        
  14444 ****         4.7500   8.2500  10.7500 Du        
  14445 ****         4.7500   8.2500  11.0000 Du        
  14446 ****         4.7500   8.2500  11.2500 Du        
  14447 ****         4.7500   8.2500  11.5000 Du        
  14448 ****         4.7500   8.2500  11.7500 Du        
  14449 ****         4.7500   8.2500  12.0000 Du        
  14450 ****         4.7500   8.2500  12.2500 Du        
  14451 ****         4.7500   8.5000   6.5000 Du        
  14452 ****         4.7500   8.5000   6.7500 Du        
  14453 ****         4.7500   8.5000   7.0000 Du        
  14454 ****         4.7500   8.5000   7.2500 Du        
  14455 ****         4.7500   8.5000   7.5000 Du        
  14456 ****         4.7500   8.5000   7.7500 Du        
  14457 ****         4.7500   8.5000   8.0000 Du        
  14458 ****         4.7500   8.5000   8.2500 Du        
  14459 ****         4.7500   8.5000   8.5000 Du        
  14460 ****         4.7500   8.5000   8.7500 Du        
  14461 ****         4.7500   8.5000   9.0000 Du        
  14462 ****         4.7500   8.5000   9.2500 Du        
  14463 ****         4.7500   8.5000   9.5000 Du        
  14464 ****         4.7500   8.5000   9.7500 Du        
  14465 ****         4.7500   8.5000  10.0000 Du        
  14466 ****         4.7500   8.5000  10.2500 Du        
  14467 ****         4.7500   8.5000  10.5000 Du        
  14468 ****         4.7500   8.5000  10.7500 Du        
  14469 ****         4.7500   8.5000  11.0000 Du        
  14470 ****         4.7500   8.5000  11.2500 Du        
  14471 ****         4.7500   8.5000  11.5000 Du        
  14472 ****         4.7500   8.7500   7.0000 Du        
  14473 ****         4.7500   8.7500   7.2500 Du        
  14474 ****         4.7500   8.7500   7.5000 Du        
  14475 ****         4.7500   8.7500   7.7500 Du        
  14476 ****         4.7500   8.7500   8.0000 Du        
  14477 ****         4.7500   8.7500   8.2500 Du        
  14478 ****         4.7500   8.7500   8.5000 Du        
  14479 ****         4.7500   8.7500   8.7500 Du        
  14480 ****         4.7500   8.7500   9.0000 Du        
  14481 ****         4.7500   8.7500   9.2500 Du        
  14482 ****         4.7500   8.7500   9.5000 Du        
  14483 ****         4.7500   8.7500   9.7500 Du        
  14484 ****         4.7500   8.7500  10.0000 Du        
  14485 ****         4.7500   8.7500  10.2500 Du        
  14486 ****         4.7500   8.7500  10.5000 Du        
  14487 ****         4.7500   8.7500  10.7500 Du        
  14488 ****         4.7500   8.7500  11.0000 Du        
  14489 ****         4.7500   8.7500  11.2500 Du        
  14490 ****         4.7500   8.7500  11.7500 Du        
  14491 ****         4.7500   9.0000   7.0000 Du        
  14492 ****         4.7500   9.0000   7.2500 Du        
  14493 ****         4.7500   9.0000   7.5000 Du        
  14494 ****         4.7500   9.0000   7.7500 Du        
  14495 ****         4.7500   9.0000   8.0000 Du        
  14496 ****         4.7500   9.0000   8.2500 Du        
  14497 ****         4.7500   9.0000   8.5000 Du        
  14498 ****         4.7500   9.0000   8.7500 Du        
  14499 ****         4.7500   9.0000   9.0000 Du        
  14500 ****         4.7500   9.0000   9.2500 Du        
  14501 ****         4.7500   9.0000   9.7500 Du        
  14502 ****         4.7500   9.0000  10.0000 Du        
  14503 ****         4.7500   9.0000  10.2500 Du        
  14504 ****         4.7500   9.0000  11.0000 Du        
  14505 ****         4.7500   9.2500   7.0000 Du        
  14506 ****         4.7500   9.2500   7.2500 Du        
  14507 ****         4.7500   9.2500   7.5000 Du        
  14508 ****         4.7500   9.2500   7.7500 Du        
  14509 ****         4.7500   9.2500   8.0000 Du        
  14510 ****         4.7500   9.2500  13.7500 Du        
  14511 ****         4.7500   9.5000   7.0000 Du        
  14512 ****         4.7500   9.5000   7.2500 Du        
  14513 ****         4.7500   9.5000   7.5000 Du        
  14514 ****         5.0000   0.5000  12.5000 Du        
  14515 ****         5.0000   0.5000  12.7500 Du        
  14516 ****         5.0000   0.7500  12.5000 Du        
  14517 ****         5.0000   0.7500  12.7500 Du        
  14518 ****         5.0000   1.0000  12.5000 Du        
  14519 ****         5.0000   1.0000  12.7500 Du        
  14520 ****         5.0000   1.2500  12.2500 Du        
  14521 ****         5.0000   1.2500  12.5000 Du        
  14522 ****         5.0000   1.2500  12.7500 Du        
  14523 ****         5.0000   1.5000  12.2500 Du        
  14524 ****         5.0000   1.5000  12.5000 Du        
  14525 ****         5.0000   1.5000  12.7500 Du        
  14526 ****         5.0000   1.7500  12.0000 Du        
  14527 ****         5.0000   1.7500  12.2500 Du        
  14528 ****         5.0000   1.7500  12.5000 Du        
  14529 ****         5.0000   2.0000  12.0000 Du        
  14530 ****         5.0000   2.0000  12.2500 Du        
  14531 ****         5.0000   2.0000  12.5000 Du        
  14532 ****         5.0000   2.2500  11.7500 Du        
  14533 ****         5.0000   2.2500  12.0000 Du        
  14534 ****         5.0000   2.2500  12.2500 Du        
  14535 ****         5.0000   2.2500  12.5000 Du        
  14536 ****         5.0000   2.5000  11.7500 Du        
  14537 ****         5.0000   2.5000  12.0000 Du        
  14538 ****         5.0000   2.5000  12.2500 Du        
  14539 ****         5.0000   2.5000  12.5000 Du        
  14540 ****         5.0000   2.7500  11.2500 Du        
  14541 ****         5.0000   2.7500  11.5000 Du        
  14542 ****         5.0000   2.7500  11.7500 Du        
  14543 ****         5.0000   2.7500  12.0000 Du        
  14544 ****         5.0000   2.7500  12.2500 Du        
  14545 ****         5.0000   2.7500  12.5000 Du        
  14546 ****         5.0000   3.0000  11.0000 Du        
  14547 ****         5.0000   3.0000  11.2500 Du        
  14548 ****         5.0000   3.0000  11.5000 Du        
  14549 ****         5.0000   3.0000  11.7500 Du        
  14550 ****         5.0000   3.0000  12.0000 Du        
  14551 ****         5.0000   3.0000  12.2500 Du        
  14552 ****         5.0000   3.0000  12.5000 Du        
  14553 ****         5.0000   3.2500  11.0000 Du        
  14554 ****         5.0000   3.2500  11.2500 Du        
  14555 ****         5.0000   3.2500  11.5000 Du        
  14556 ****         5.0000   3.2500  11.7500 Du        
  14557 ****         5.0000   3.2500  12.0000 Du        
  14558 ****         5.0000   3.2500  12.2500 Du        
  14559 ****         5.0000   3.2500  12.5000 Du        
  14560 ****         5.0000   3.5000  11.0000 Du        
  14561 ****         5.0000   3.5000  11.2500 Du        
  14562 ****         5.0000   3.5000  11.5000 Du        
  14563 ****         5.0000   3.5000  11.7500 Du        
  14564 ****         5.0000   3.5000  12.0000 Du        
  14565 ****         5.0000   3.5000  12.2500 Du        
  14566 ****         5.0000   3.7500  11.0000 Du        
  14567 ****         5.0000   3.7500  11.2500 Du        
  14568 ****         5.0000   3.7500  11.5000 Du        
  14569 ****         5.0000   3.7500  11.7500 Du        
  14570 ****         5.0000   3.7500  12.0000 Du        
  14571 ****         5.0000   3.7500  12.2500 Du        
  14572 ****         5.0000   4.0000  11.0000 Du        
  14573 ****         5.0000   4.0000  11.2500 Du        
  14574 ****         5.0000   4.0000  11.5000 Du        
  14575 ****         5.0000   4.0000  11.7500 Du        
  14576 ****         5.0000   4.0000  12.0000 Du        
  14577 ****         5.0000   4.0000  12.2500 Du        
  14578 ****         5.0000   4.2500  11.0000 Du        
  14579 ****         5.0000   4.2500  11.2500 Du        
  14580 ****         5.0000   4.2500  11.5000 Du        
  14581 ****         5.0000   4.2500  11.7500 Du        
  14582 ****         5.0000   4.2500  12.0000 Du        
  14583 ****         5.0000   4.2500  12.2500 Du        
  14584 ****         5.0000   4.5000  11.0000 Du        
  14585 ****         5.0000   4.5000  11.2500 Du        
  14586 ****         5.0000   4.5000  11.5000 Du        
  14587 ****         5.0000   4.5000  11.7500 Du        
  14588 ****         5.0000   4.7500  10.7500 Du        
  14589 ****         5.0000   4.7500  11.0000 Du        
  14590 ****         5.0000   4.7500  11.2500 Du        
  14591 ****         5.0000   5.0000  10.7500 Du        
  14592 ****         5.0000   5.0000  11.0000 Du        
  14593 ****         5.0000   5.0000  11.2500 Du        
  14594 ****         5.0000   5.2500  10.7500 Du        
  14595 ****         5.0000   5.2500  11.0000 Du        
  14596 ****         5.0000   5.5000  10.7500 Du        
  14597 ****         5.0000   5.5000  11.0000 Du        
  14598 ****         5.0000   5.7500  10.5000 Du        
  14599 ****         5.0000   5.7500  10.7500 Du        
  14600 ****         5.0000   5.7500  11.0000 Du        
  14601 ****         5.0000   6.0000  10.5000 Du        
  14602 ****         5.0000   6.0000  10.7500 Du        
  14603 ****         5.0000   6.0000  11.0000 Du        
  14604 ****         5.0000   6.2500  10.5000 Du        
  14605 ****         5.0000   6.2500  10.7500 Du        
  14606 ****         5.0000   6.2500  11.0000 Du        
  14607 ****         5.0000   6.2500  11.2500 Du        
  14608 ****         5.0000   6.5000  10.5000 Du        
  14609 ****         5.0000   6.5000  10.7500 Du        
  14610 ****         5.0000   6.5000  11.0000 Du        
  14611 ****         5.0000   6.5000  11.2500 Du        
  14612 ****         5.0000   6.7500  10.2500 Du        
  14613 ****         5.0000   6.7500  10.5000 Du        
  14614 ****         5.0000   6.7500  10.7500 Du        
  14615 ****         5.0000   6.7500  11.0000 Du        
  14616 ****         5.0000   6.7500  11.2500 Du        
  14617 ****         5.0000   7.0000  10.0000 Du        
  14618 ****         5.0000   7.0000  10.2500 Du        
  14619 ****         5.0000   7.0000  10.5000 Du        
  14620 ****         5.0000   7.0000  10.7500 Du        
  14621 ****         5.0000   7.0000  11.0000 Du        
  14622 ****         5.0000   7.0000  11.2500 Du        
  14623 ****         5.0000   7.0000  11.5000 Du        
  14624 ****         5.0000   7.0000  11.7500 Du        
  14625 ****         5.0000   7.2500   6.0000 Du        
  14626 ****         5.0000   7.2500   6.2500 Du        
  14627 ****         5.0000   7.2500   6.5000 Du        
  14628 ****         5.0000   7.2500   6.7500 Du        
  14629 ****         5.0000   7.2500   9.5000 Du        
  14630 ****         5.0000   7.2500   9.7500 Du        
  14631 ****         5.0000   7.2500  10.0000 Du        
  14632 ****         5.0000   7.2500  10.2500 Du        
  14633 ****         5.0000   7.2500  10.5000 Du        
  14634 ****         5.0000   7.2500  10.7500 Du        
  14635 ****         5.0000   7.2500  11.0000 Du        
  14636 ****         5.0000   7.2500  11.2500 Du        
  14637 ****         5.0000   7.2500  11.5000 Du        
  14638 ****         5.0000   7.2500  11.7500 Du        
  14639 ****         5.0000   7.5000   6.0000 Du        
  14640 ****         5.0000   7.5000   6.2500 Du        
  14641 ****         5.0000   7.5000   6.5000 Du        
  14642 ****         5.0000   7.5000   6.7500 Du        
  14643 ****         5.0000   7.5000   7.0000 Du        
  14644 ****         5.0000   7.5000   7.2500 Du        
  14645 ****         5.0000   7.5000   7.5000 Du        
  14646 ****         5.0000   7.5000   7.7500 Du        
  14647 ****         5.0000   7.5000   8.0000 Du        
  14648 ****         5.0000   7.5000   8.2500 Du        
  14649 ****         5.0000   7.5000   8.5000 Du        
  14650 ****         5.0000   7.5000   8.7500 Du        
  14651 ****         5.0000   7.5000   9.0000 Du        
  14652 ****         5.0000   7.5000   9.2500 Du        
  14653 ****         5.0000   7.5000   9.5000 Du        
  14654 ****         5.0000   7.5000   9.7500 Du        
  14655 ****         5.0000   7.5000  10.0000 Du        
  14656 ****         5.0000   7.5000  10.2500 Du        
  14657 ****         5.0000   7.5000  10.5000 Du        
  14658 ****         5.0000   7.5000  10.7500 Du        
  14659 ****         5.0000   7.5000  11.0000 Du        
  14660 ****         5.0000   7.5000  11.2500 Du        
  14661 ****         5.0000   7.5000  11.5000 Du        
  14662 ****         5.0000   7.5000  11.7500 Du        
  14663 ****         5.0000   7.7500   6.5000 Du        
  14664 ****         5.0000   7.7500   6.7500 Du        
  14665 ****         5.0000   7.7500   7.0000 Du        
  14666 ****         5.0000   7.7500   7.2500 Du        
  14667 ****         5.0000   7.7500   7.5000 Du        
  14668 ****         5.0000   7.7500   7.7500 Du        
  14669 ****         5.0000   7.7500   8.0000 Du        
  14670 ****         5.0000   7.7500   8.2500 Du        
  14671 ****         5.0000   7.7500   8.5000 Du        
  14672 ****         5.0000   7.7500   8.7500 Du        
  14673 ****         5.0000   7.7500   9.0000 Du        
  14674 ****         5.0000   7.7500   9.2500 Du        
  14675 ****         5.0000   7.7500   9.5000 Du        
  14676 ****         5.0000   7.7500   9.7500 Du        
  14677 ****         5.0000   7.7500  10.0000 Du        
  14678 ****         5.0000   7.7500  10.2500 Du        
  14679 ****         5.0000   7.7500  10.5000 Du        
  14680 ****         5.0000   7.7500  10.7500 Du        
  14681 ****         5.0000   7.7500  11.0000 Du        
  14682 ****         5.0000   7.7500  11.2500 Du        
  14683 ****         5.0000   7.7500  11.5000 Du        
  14684 ****         5.0000   7.7500  11.7500 Du        
  14685 ****         5.0000   8.0000   6.5000 Du        
  14686 ****         5.0000   8.0000   6.7500 Du        
  14687 ****         5.0000   8.0000   7.0000 Du        
  14688 ****         5.0000   8.0000   7.2500 Du        
  14689 ****         5.0000   8.0000   7.5000 Du        
  14690 ****         5.0000   8.0000   7.7500 Du        
  14691 ****         5.0000   8.0000   8.0000 Du        
  14692 ****         5.0000   8.0000   8.2500 Du        
  14693 ****         5.0000   8.0000   8.5000 Du        
  14694 ****         5.0000   8.0000   8.7500 Du        
  14695 ****         5.0000   8.0000   9.0000 Du        
  14696 ****         5.0000   8.0000   9.2500 Du        
  14697 ****         5.0000   8.0000   9.5000 Du        
  14698 ****         5.0000   8.0000   9.7500 Du        
  14699 ****         5.0000   8.0000  10.0000 Du        
  14700 ****         5.0000   8.0000  10.2500 Du        
  14701 ****         5.0000   8.0000  10.5000 Du        
  14702 ****         5.0000   8.0000  10.7500 Du        
  14703 ****         5.0000   8.0000  11.0000 Du        
  14704 ****         5.0000   8.0000  11.2500 Du        
  14705 ****         5.0000   8.0000  11.5000 Du        
  14706 ****         5.0000   8.0000  11.7500 Du        
  14707 ****         5.0000   8.0000  12.0000 Du        
  14708 ****         5.0000   8.2500   6.5000 Du        
  14709 ****         5.0000   8.2500   6.7500 Du        
  14710 ****         5.0000   8.2500   7.0000 Du        
  14711 ****         5.0000   8.2500   7.2500 Du        
  14712 ****         5.0000   8.2500   7.5000 Du        
  14713 ****         5.0000   8.2500   7.7500 Du        
  14714 ****         5.0000   8.2500   8.0000 Du        
  14715 ****         5.0000   8.2500   8.2500 Du        
  14716 ****         5.0000   8.2500   8.5000 Du        
  14717 ****         5.0000   8.2500   8.7500 Du        
  14718 ****         5.0000   8.2500   9.0000 Du        
  14719 ****         5.0000   8.2500   9.2500 Du        
  14720 ****         5.0000   8.2500   9.5000 Du        
  14721 ****         5.0000   8.2500   9.7500 Du        
  14722 ****         5.0000   8.2500  10.0000 Du        
  14723 ****         5.0000   8.2500  10.2500 Du        
  14724 ****         5.0000   8.2500  10.5000 Du        
  14725 ****         5.0000   8.2500  10.7500 Du        
  14726 ****         5.0000   8.2500  11.0000 Du        
  14727 ****         5.0000   8.2500  11.2500 Du        
  14728 ****         5.0000   8.2500  11.5000 Du        
  14729 ****         5.0000   8.2500  11.7500 Du        
  14730 ****         5.0000   8.5000   6.5000 Du        
  14731 ****         5.0000   8.5000   6.7500 Du        
  14732 ****         5.0000   8.5000   7.0000 Du        
  14733 ****         5.0000   8.5000   7.2500 Du        
  14734 ****         5.0000   8.5000   7.5000 Du        
  14735 ****         5.0000   8.5000   7.7500 Du        
  14736 ****         5.0000   8.5000   8.0000 Du        
  14737 ****         5.0000   8.5000   8.2500 Du        
  14738 ****         5.0000   8.5000   8.5000 Du        
  14739 ****         5.0000   8.5000   8.7500 Du        
  14740 ****         5.0000   8.5000   9.0000 Du        
  14741 ****         5.0000   8.5000   9.2500 Du        
  14742 ****         5.0000   8.5000   9.5000 Du        
  14743 ****         5.0000   8.5000   9.7500 Du        
  14744 ****         5.0000   8.5000  10.0000 Du        
  14745 ****         5.0000   8.5000  10.2500 Du        
  14746 ****         5.0000   8.5000  10.5000 Du        
  14747 ****         5.0000   8.5000  10.7500 Du        
  14748 ****         5.0000   8.5000  11.0000 Du        
  14749 ****         5.0000   8.5000  11.2500 Du        
  14750 ****         5.0000   8.5000  11.5000 Du        
  14751 ****         5.0000   8.7500   7.0000 Du        
  14752 ****         5.0000   8.7500   7.2500 Du        
  14753 ****         5.0000   8.7500   7.5000 Du        
  14754 ****         5.0000   8.7500   7.7500 Du        
  14755 ****         5.0000   8.7500   8.0000 Du        
  14756 ****         5.0000   8.7500   8.2500 Du        
  14757 ****         5.0000   8.7500   8.5000 Du        
  14758 ****         5.0000   8.7500   8.7500 Du        
  14759 ****         5.0000   8.7500   9.0000 Du        
  14760 ****         5.0000   8.7500   9.2500 Du        
  14761 ****         5.0000   8.7500  10.0000 Du        
  14762 ****         5.0000   8.7500  10.2500 Du        
  14763 ****         5.0000   8.7500  10.5000 Du        
  14764 ****         5.0000   8.7500  10.7500 Du        
  14765 ****         5.0000   8.7500  11.0000 Du        
  14766 ****         5.0000   8.7500  11.2500 Du        
  14767 ****         5.0000   8.7500  11.7500 Du        
  14768 ****         5.0000   9.0000   7.0000 Du        
  14769 ****         5.0000   9.0000   7.2500 Du        
  14770 ****         5.0000   9.0000   7.5000 Du        
  14771 ****         5.0000   9.0000   7.7500 Du        
  14772 ****         5.0000   9.0000  10.7500 Du        
  14773 ****         5.0000   9.0000  11.0000 Du        
  14774 ****         5.0000   9.0000  11.7500 Du        
  14775 ****         5.0000   9.0000  12.0000 Du        
  14776 ****         5.0000   9.2500   7.0000 Du        
  14777 ****         5.0000   9.2500   7.2500 Du        
  14778 ****         5.0000   9.2500  12.0000 Du        
  14779 ****         5.0000   9.2500  12.2500 Du        
  14780 ****         5.0000   9.2500  14.0000 Du        
  14781 ****         5.0000   9.2500  14.2500 Du        
  14782 ****         5.0000   9.2500  14.5000 Du        
  14783 ****         5.0000   9.5000  14.0000 Du        
  14784 ****         5.0000   9.5000  14.5000 Du        
  14785 ****         5.0000   9.7500  14.0000 Du        
  14786 ****         5.0000   9.7500  14.2500 Du        
  14787 ****         5.0000   9.7500  14.5000 Du        
  14788 ****         5.0000   9.7500  14.7500 Du        
  14789 ****         5.0000   9.7500  15.0000 Du        
  14790 ****         5.0000  10.0000  14.2500 Du        
  14791 ****         5.0000  10.0000  14.5000 Du        
  14792 ****         5.0000  10.0000  14.7500 Du        
  14793 ****         5.0000  10.0000  15.0000 Du        
  14794 ****         5.2500   0.7500  12.5000 Du        
  14795 ****         5.2500   0.7500  12.7500 Du        
  14796 ****         5.2500   1.0000  12.5000 Du        
  14797 ****         5.2500   1.2500  12.5000 Du        
  14798 ****         5.2500   1.5000  12.2500 Du        
  14799 ****         5.2500   1.7500  12.2500 Du        
  14800 ****         5.2500   2.0000  12.0000 Du        
  14801 ****         5.2500   2.0000  12.2500 Du        
  14802 ****         5.2500   2.2500  12.0000 Du        
  14803 ****         5.2500   2.2500  12.2500 Du        
  14804 ****         5.2500   2.5000  11.7500 Du        
  14805 ****         5.2500   2.5000  12.0000 Du        
  14806 ****         5.2500   2.5000  12.2500 Du        
  14807 ****         5.2500   2.7500  11.2500 Du        
  14808 ****         5.2500   2.7500  11.5000 Du        
  14809 ****         5.2500   2.7500  11.7500 Du        
  14810 ****         5.2500   2.7500  12.0000 Du        
  14811 ****         5.2500   2.7500  12.2500 Du        
  14812 ****         5.2500   3.0000  11.0000 Du        
  14813 ****         5.2500   3.0000  11.2500 Du        
  14814 ****         5.2500   3.0000  11.5000 Du        
  14815 ****         5.2500   3.0000  11.7500 Du        
  14816 ****         5.2500   3.0000  12.0000 Du        
  14817 ****         5.2500   3.0000  12.2500 Du        
  14818 ****         5.2500   3.2500  11.0000 Du        
  14819 ****         5.2500   3.2500  11.2500 Du        
  14820 ****         5.2500   3.2500  11.5000 Du        
  14821 ****         5.2500   3.2500  11.7500 Du        
  14822 ****         5.2500   3.2500  12.0000 Du        
  14823 ****         5.2500   3.2500  12.2500 Du        
  14824 ****         5.2500   3.5000  11.0000 Du        
  14825 ****         5.2500   3.5000  11.2500 Du        
  14826 ****         5.2500   3.5000  11.5000 Du        
  14827 ****         5.2500   3.5000  11.7500 Du        
  14828 ****         5.2500   3.5000  12.0000 Du        
  14829 ****         5.2500   3.7500  11.0000 Du        
  14830 ****         5.2500   3.7500  11.2500 Du        
  14831 ****         5.2500   3.7500  11.5000 Du        
  14832 ****         5.2500   3.7500  11.7500 Du        
  14833 ****         5.2500   3.7500  12.0000 Du        
  14834 ****         5.2500   4.0000  11.0000 Du        
  14835 ****         5.2500   4.0000  11.2500 Du        
  14836 ****         5.2500   4.0000  11.5000 Du        
  14837 ****         5.2500   4.0000  11.7500 Du        
  14838 ****         5.2500   4.2500  11.0000 Du        
  14839 ****         5.2500   4.2500  11.2500 Du        
  14840 ****         5.2500   7.2500   6.5000 Du        
  14841 ****         5.2500   7.5000   6.5000 Du        
  14842 ****         5.2500   7.5000   6.7500 Du        
  14843 ****         5.2500   7.5000   7.0000 Du        
  14844 ****         5.2500   7.5000   7.2500 Du        
  14845 ****         5.2500   7.5000   8.2500 Du        
  14846 ****         5.2500   7.5000   8.7500 Du        
  14847 ****         5.2500   7.5000   9.0000 Du        
  14848 ****         5.2500   7.7500   6.5000 Du        
  14849 ****         5.2500   7.7500   6.7500 Du        
  14850 ****         5.2500   7.7500   7.0000 Du        
  14851 ****         5.2500   7.7500   7.2500 Du        
  14852 ****         5.2500   7.7500   7.5000 Du        
  14853 ****         5.2500   7.7500   7.7500 Du        
  14854 ****         5.2500   7.7500   8.0000 Du        
  14855 ****         5.2500   7.7500   8.2500 Du        
  14856 ****         5.2500   7.7500   8.5000 Du        
  14857 ****         5.2500   7.7500   8.7500 Du        
  14858 ****         5.2500   7.7500   9.0000 Du        
  14859 ****         5.2500   7.7500   9.2500 Du        
  14860 ****         5.2500   7.7500   9.5000 Du        
  14861 ****         5.2500   7.7500   9.7500 Du        
  14862 ****         5.2500   7.7500  11.0000 Du        
  14863 ****         5.2500   7.7500  11.2500 Du        
  14864 ****         5.2500   8.0000   6.5000 Du        
  14865 ****         5.2500   8.0000   6.7500 Du        
  14866 ****         5.2500   8.0000   7.0000 Du        
  14867 ****         5.2500   8.0000   7.2500 Du        
  14868 ****         5.2500   8.0000   7.5000 Du        
  14869 ****         5.2500   8.0000   7.7500 Du        
  14870 ****         5.2500   8.0000   8.0000 Du        
  14871 ****         5.2500   8.0000   8.2500 Du        
  14872 ****         5.2500   8.0000   8.5000 Du        
  14873 ****         5.2500   8.0000   8.7500 Du        
  14874 ****         5.2500   8.0000   9.0000 Du        
  14875 ****         5.2500   8.0000   9.2500 Du        
  14876 ****         5.2500   8.0000   9.5000 Du        
  14877 ****         5.2500   8.0000   9.7500 Du        
  14878 ****         5.2500   8.0000  10.0000 Du        
  14879 ****         5.2500   8.0000  10.2500 Du        
  14880 ****         5.2500   8.0000  10.7500 Du        
  14881 ****         5.2500   8.0000  11.0000 Du        
  14882 ****         5.2500   8.0000  11.2500 Du        
  14883 ****         5.2500   8.2500   7.0000 Du        
  14884 ****         5.2500   8.2500   7.2500 Du        
  14885 ****         5.2500   8.2500   7.5000 Du        
  14886 ****         5.2500   8.2500   7.7500 Du        
  14887 ****         5.2500   8.2500   8.0000 Du        
  14888 ****         5.2500   8.2500   8.2500 Du        
  14889 ****         5.2500   8.2500   8.5000 Du        
  14890 ****         5.2500   8.2500   8.7500 Du        
  14891 ****         5.2500   8.2500   9.0000 Du        
  14892 ****         5.2500   8.2500   9.2500 Du        
  14893 ****         5.2500   8.2500   9.5000 Du        
  14894 ****         5.2500   8.2500   9.7500 Du        
  14895 ****         5.2500   8.2500  10.0000 Du        
  14896 ****         5.2500   8.2500  10.2500 Du        
  14897 ****         5.2500   8.2500  10.5000 Du        
  14898 ****         5.2500   8.2500  10.7500 Du        
  14899 ****         5.2500   8.2500  11.0000 Du        
  14900 ****         5.2500   8.2500  11.2500 Du        
  14901 ****         5.2500   8.2500  11.5000 Du        
  14902 ****         5.2500   8.5000   7.0000 Du        
  14903 ****         5.2500   8.5000   7.2500 Du        
  14904 ****         5.2500   8.5000   7.5000 Du        
  14905 ****         5.2500   8.5000   7.7500 Du        
  14906 ****         5.2500   8.5000   8.0000 Du        
  14907 ****         5.2500   8.5000  11.0000 Du        
  14908 ****         5.2500   8.7500   7.0000 Du        
  14909 ****         5.2500   8.7500   7.2500 Du        
  14910 ****         5.2500   8.7500  11.2500 Du        
  14911 ****         5.2500   9.0000   7.0000 Du        
  14912 ****         5.2500   9.2500  14.5000 Du        
  14913 ****         5.2500   9.2500  14.7500 Du        
  14914 ****         5.2500   9.5000  14.2500 Du        
  14915 ****         5.2500   9.5000  14.5000 Du        
  14916 ****         5.2500   9.5000  14.7500 Du        
  14917 ****         5.2500   9.7500  14.0000 Du        
  14918 ****         5.2500   9.7500  14.2500 Du        
  14919 ****         5.2500   9.7500  14.5000 Du        
  14920 ****         5.2500   9.7500  14.7500 Du        
  14921 ****         5.2500   9.7500  15.0000 Du        
  14922 ****         5.2500  10.0000  14.0000 Du        
  14923 ****         5.2500  10.0000  14.2500 Du        
  14924 ****         5.2500  10.0000  14.5000 Du        
  14925 ****         5.2500  10.0000  14.7500 Du        
  14926 ****         5.2500  10.0000  15.0000 Du        
  14927 ****         5.2500  10.2500  14.0000 Du        
  14928 ****         5.2500  10.2500  14.2500 Du        
  14929 ****         5.2500  10.2500  14.5000 Du        
  14930 ****         5.2500  10.2500  14.7500 Du        
  14931 ****         5.2500  10.2500  15.0000 Du        
  14932 ****         5.5000   2.7500  11.7500 Du        
  14933 ****         5.5000   3.0000  11.2500 Du        
  14934 ****         5.5000   3.0000  11.5000 Du        
  14935 ****         5.5000   3.0000  11.7500 Du        
  14936 ****         5.5000   3.0000  12.0000 Du        
  14937 ****         5.5000   3.2500  11.2500 Du        
  14938 ****         5.5000   3.2500  11.5000 Du        
  14939 ****         5.5000   3.2500  11.7500 Du        
  14940 ****         5.5000   3.2500  12.0000 Du        
  14941 ****         5.5000   3.5000  11.2500 Du        
  14942 ****         5.5000   3.5000  11.5000 Du        
  14943 ****         5.5000   3.5000  11.7500 Du        
  14944 ****         5.5000   3.7500  11.2500 Du        
  14945 ****         5.5000   3.7500  11.5000 Du        
  14946 ****         5.5000   7.5000   6.5000 Du        
  14947 ****         5.5000   7.5000   6.7500 Du        
  14948 ****         5.5000   7.5000   7.0000 Du        
  14949 ****         5.5000   7.7500   6.5000 Du        
  14950 ****         5.5000   7.7500   6.7500 Du        
  14951 ****         5.5000   7.7500   7.0000 Du        
  14952 ****         5.5000   7.7500   7.2500 Du        
  14953 ****         5.5000   7.7500   7.5000 Du        
  14954 ****         5.5000   7.7500   7.7500 Du        
  14955 ****         5.5000   7.7500   8.0000 Du        
  14956 ****         5.5000   7.7500   8.2500 Du        
  14957 ****         5.5000   7.7500   8.5000 Du        
  14958 ****         5.5000   8.0000   6.5000 Du        
  14959 ****         5.5000   8.0000   6.7500 Du        
  14960 ****         5.5000   8.0000   7.0000 Du        
  14961 ****         5.5000   8.0000   7.2500 Du        
  14962 ****         5.5000   8.0000   7.5000 Du        
  14963 ****         5.5000   8.0000   7.7500 Du        
  14964 ****         5.5000   8.0000   8.0000 Du        
  14965 ****         5.5000   8.0000   8.2500 Du        
  14966 ****         5.5000   8.2500   7.0000 Du        
  14967 ****         5.5000   8.2500   7.2500 Du        
  14968 ****         5.5000   8.2500   7.5000 Du        
  14969 ****         5.5000   8.2500   7.7500 Du        
  14970 ****         5.5000   8.5000   7.0000 Du        
  14971 ****         5.5000   9.2500  14.7500 Du        
  14972 ****         5.5000   9.5000  14.5000 Du        
  14973 ****         5.5000   9.5000  14.7500 Du        
  14974 ****         5.5000   9.7500  14.0000 Du        
  14975 ****         5.5000   9.7500  14.2500 Du        
  14976 ****         5.5000   9.7500  14.5000 Du        
  14977 ****         5.5000   9.7500  14.7500 Du        
  14978 ****         5.5000  10.0000  13.7500 Du        
  14979 ****         5.5000  10.0000  14.0000 Du        
  14980 ****         5.5000  10.0000  14.2500 Du        
  14981 ****         5.5000  10.0000  14.5000 Du        
  14982 ****         5.5000  10.0000  14.7500 Du        
  14983 ****         5.5000  10.0000  15.0000 Du        
  14984 ****         5.5000  10.2500  13.7500 Du        
  14985 ****         5.5000  10.2500  14.0000 Du        
  14986 ****         5.5000  10.2500  14.2500 Du        
  14987 ****         5.5000  10.2500  14.5000 Du        
  14988 ****         5.5000  10.2500  14.7500 Du        
  14989 ****         5.5000  10.5000  14.7500 Du        
  14990 ****         5.5000  10.7500  15.0000 Du        
  14991 ****         5.7500   7.7500   7.0000 Du        
  14992 ****         5.7500   7.7500   7.2500 Du        
  14993 ****         5.7500   8.0000   7.0000 Du        
  14994 ****         5.7500   8.0000   7.2500 Du        
  14995 ****         5.7500   8.0000   7.5000 Du        
  14996 ****         5.7500   8.2500   7.0000 Du        
  14997 ****         5.7500  10.0000  14.2500 Du        
  14998 ****         5.7500  10.0000  14.5000 Du        
  14999 ****         5.7500  10.0000  14.7500 Du        
  15000 ****         5.7500  10.2500  14.0000 Du        
  15001 ****         5.7500  10.2500  14.2500 Du        
  15002 ****         5.7500  10.2500  14.5000 Du        
  15003 ****         5.7500  10.2500  14.7500 Du        
  15004 ****         5.7500  10.5000  14.0000 Du        
  15005 ****         5.7500  10.5000  14.2500 Du        
  15006 ****         5.7500  10.5000  14.5000 Du        
  15007 ****         5.7500  10.5000  14.7500 Du        
  15008 ****         5.7500  10.7500  14.0000 Du        
  15009 ****         5.7500  10.7500  14.2500 Du        
  15010 ****         5.7500  10.7500  14.5000 Du        
  15011 ****         5.7500  10.7500  14.7500 Du        
  15012 ****         5.7500  11.0000  14.7500 Du        
  15013 ****         6.0000  10.7500  14.2500 Du        
  15014 ****         6.0000  10.7500  14.5000 Du        
  15015 ****         6.0000  10.7500  14.7500 Du        
  15016 ****         6.0000  11.0000  14.0000 Du        
  15017 ****         6.0000  11.0000  14.2500 Du        
  15018 ****         6.0000  11.0000  14.5000 Du        
  15019 ****         6.0000  11.0000  14.7500 Du        
  15020 ****         6.0000  11.2500  14.2500 Du        
  15021 ****         6.5000  11.7500  15.0000 Du        
