#       Name:                CT1002167954
#       Creating user name   hitesit
#       Creation time:       Sun Apr 16 02:21:31 2023


#       File generated by GOLD software.
#

@<TRIPOS>MOLECULE
CT1002167954|ligand_prepared|mol2|1|dock9
    29    30     1
SMALL
NO_CHARGES


@<TRIPOS>ATOM
      1 C1          -4.4022   1.7038  18.8635 C.3            1 RES1               0.0000
      2 C2          -3.4925   2.0459  17.6660 C.ar           1 RES1               0.0000
      3 C3          -5.8049   2.1678  18.4822 C.2            1 RES1               0.0000
      4 C4          -4.2808   0.1988  19.0753 C.2            1 RES1               0.0000
      5 C5          -3.9933   2.4059  20.1794 C.3            1 RES1               0.0000
      6 C6          -2.8254   3.2659  17.6086 C.ar           1 RES1               0.0000
      7 C7          -3.3087   1.1521  16.6143 C.ar           1 RES1               0.0000
      8 N8          -6.7210   1.2105  18.1590 N.am           1 RES1               0.0000
      9 O9          -6.0917   3.3573  18.4276 O.2            1 RES1               0.0000
     10 N10         -5.3928  -0.5720  18.8578 N.am           1 RES1               0.0000
     11 O11         -3.2279  -0.3285  19.4124 O.2            1 RES1               0.0000
     12 C12         -4.6668   1.8315  21.4157 C.3            1 RES1               0.0000
     13 C13         -2.0020   3.5799  16.5401 C.ar           1 RES1               0.0000
     14 C14         -2.4850   1.4683  15.5465 C.ar           1 RES1               0.0000
     15 C15         -6.5990  -0.1379  18.3796 C.2            1 RES1               0.0000
     16 C16         -1.8309   2.6813  15.5086 C.ar           1 RES1               0.0000
     17 O17         -7.5353  -0.9003  18.1580 O.2            1 RES1               0.0000
     18 H18         -2.9060   2.3248  20.2997 H              1 RES1               0.0000
     19 H19         -4.2438   3.4713  20.1037 H              1 RES1               0.0000
     20 H20         -2.9498   3.9867  18.4099 H              1 RES1               0.0000
     21 H21         -3.8140   0.1923  16.6223 H              1 RES1               0.0000
     22 H22         -7.5757   1.5265  17.7119 H              1 RES1               0.0000
     23 H23         -5.3140  -1.5609  19.0724 H              1 RES1               0.0000
     24 H24         -4.3452   2.3598  22.3108 H              1 RES1               0.0000
     25 H25         -5.7488   1.9185  21.3412 H              1 RES1               0.0000
     26 H26         -4.4189   0.7789  21.5360 H              1 RES1               0.0000
     27 H27         -1.4906   4.5365  16.5143 H              1 RES1               0.0000
     28 H28         -2.3537   0.7582  14.7367 H              1 RES1               0.0000
     29 H29         -1.1855   2.9274  14.6719 H              1 RES1               0.0000
@<TRIPOS>BOND
    1    1    2 1     
    2    1    3 1     
    3    1    4 1     
    4    1    5 1     
    5    2    6 ar    
    6    2    7 ar    
    7    3    8 1     
    8    3    9 2     
    9    4   10 1     
   10    4   11 2     
   11    5   12 1     
   12    5   18 1     
   13    5   19 1     
   14    6   13 ar    
   15    6   20 1     
   16    7   14 ar    
   17    7   21 1     
   18    8   15 1     
   19    8   22 1     
   20   10   15 1     
   21   10   23 1     
   22   12   24 1     
   23   12   25 1     
   24   12   26 1     
   25   13   16 ar    
   26   13   27 1     
   27   14   16 ar    
   28   14   28 1     
   29   15   17 2     
   30   16   29 1     
@<TRIPOS>SUBSTRUCTURE
      1 RES1           1
@<TRIPOS>SET
DONOR_HYDROGENS      STATIC     ATOMS    <user>   **** ""
2 22 23
ATOM$RED        STATIC     ATOMS    COLORGROUP SYSTEM
2 22 23
@<TRIPOS>COMMENT
> <Gold.Version>
2022.3.0

> <Gold.Id.Protein>
unknown|4a9y_clean|pdb

> <Gold.Protein.RotatedTorsions>
[ 1685 1678 1676 1673 ] final   84.04 input   59.97 | X-H torsion
[ 2433 2428 2427 2424 ] final  -33.47 input   60.04 | X-H torsion

> <Gold.Protein.ActiveResidues>
 TRP18   PRO29   VAL30   GLY31   SER32   GLY33   TYR35   GLY36   SER37   VAL38  
 CYS39   ALA40   ARG49   VAL50   ALA51   VAL52   LYS53   LYS54   LEU55   ARG67  
 ARG70   GLU71   LEU72   LEU74   LEU75   MET78   HIS80   ASN82   VAL83   ILE84  
 GLY85   LEU86   LEU87   ASP88   TYR103  LEU104  VAL105  THR106  HIS107  LEU108 
 MET109  GLY110  ALA111  ASP112  ASN114  ASN115  GLY137  LEU138  TYR140  ILE141 
 HIS142  ILE146  ILE147  HIS148  ARG149  ASP150  LEU151  SER154  ASN155  LEU156 
 ALA157  LYS165  ILE166  LEU167  ASP168  PHE169  GLY170  ASP205 

> <Gold.Protein.RotatedAtoms>
   -4.8654   -3.2028   18.4421 H   0  0  0  0  0  0  0  0  0  0  0  0  # atno 1685 bound_to 1678
    6.6264    5.1699   24.4782 H   0  0  0  0  0  0  0  0  0  0  0  0  # atno 2433 bound_to 2428
   -6.2120   -2.3152   18.2268 LP  0  0  0  0  0  0  0  0  0  0  0  0  # atno 5425 bound_to 1678
   -4.7590   -1.7223   17.7755 LP  0  0  0  0  0  0  0  0  0  0  0  0  # atno 5426 bound_to 1678
    6.1125    6.2046   25.6240 LP  0  0  0  0  0  0  0  0  0  0  0  0  # atno 5504 bound_to 2428
    5.0316    5.4133   24.6900 LP  0  0  0  0  0  0  0  0  0  0  0  0  # atno 5505 bound_to 2428

> <Gold.Score>
     Fitness  S(hb_ext) S(vdw_ext)  S(hb_int)    S(int)      intcor
     31.61       0.02      23.40       0.00      -0.59      -0.76

> <Gold.Goldscore.Fitness>
31.6056

> <Gold.Goldscore.Internal.Vdw>
-0.6985

> <Gold.Goldscore.Internal.Torsion>
-0.6489

> <Gold.Goldscore.External.Vdw>
23.3974

> <Gold.Goldscore.Internal.HBond>
0.0000

> <Gold.Goldscore.External.HBond>
0.0231

> <Gold.Goldscore.Internal.Correction>
-0.7585

> <Gold.Goldscore.Hbonds>
donor molecule, donor type, donor heavy atom, donor atom, acceptor molecule, acceptor atom, score
      L1  H    10    23       P1  1678  0.01

> <Gold.Goldscore.Internal.Vdw.Weighted>
-0.6985

> <Gold.Goldscore.Internal.Torsion.Weighted>
-0.6489

> <Gold.Goldscore.External.Vdw.Weighted>
32.1714

> <Gold.Goldscore.Internal.HBond.Weighted>
0.0000

> <Gold.Goldscore.External.HBond.Weighted>
0.0231

> <Gold.Goldscore.Internal.Correction.Weighted>
-0.7585

> <Gold.Rescore>
     Score     S(PLP)   S(hbond)     S(cho)   S(metal)  DE(clash)   DE(tors)     intcor
     28.37     -26.45       0.66       0.00       0.00       0.00       0.03       ----

> <Gold.PLP.Fitness>
28.3675

> <Gold.PLP.PLP>
-26.4470

> <Gold.PLP.part.hbond>
-4.0000

> <Gold.PLP.part.metal>
0.0000

> <Gold.PLP.part.buried>
8.0933

> <Gold.PLP.part.nonpolar>
-35.4036

> <Gold.PLP.part.repulsive>
3.4589

> <Gold.PLP.ligand.clash>
0.0000

> <Gold.PLP.ligand.torsion>
0.0339

> <Gold.PLP.Chemscore.Hbond>
0.6627

> <Gold.PLP.Chemscore.CHOScore>
0.0000

> <Gold.PLP.Chemscore.Metal>
0.0000

> <Gold.Chemscore.Hbonds>
donor molecule, donor type, donor heavy atom, donor atom, acceptor molecule, acceptor atom, score
      L1  H    10    23       P1  1678  0.11
      P1  H  1672  1679       L1    17  0.25

> <Gold.PLP.Chemscore.Internal.Correction>
   9.000000E+99

