#       Name:                CT1002167954
#       Creating user name   hitesit
#       Creation time:       Sun Apr 16 02:21:22 2023


#       File generated by GOLD software.
#

@<TRIPOS>MOLECULE
CT1002167954|ligand_prepared|mol2|1|dock2
    29    30     1
SMALL
NO_CHARGES


@<TRIPOS>ATOM
      1 C1          -3.8582   2.1435  19.3485 C.3            1 RES1               0.0000
      2 C2          -4.8677   1.7226  18.2611 C.ar           1 RES1               0.0000
      3 C3          -2.5386   2.4069  18.6291 C.2            1 RES1               0.0000
      4 C4          -4.4517   3.3720  20.0291 C.2            1 RES1               0.0000
      5 C5          -3.6206   1.0654  20.4314 C.3            1 RES1               0.0000
      6 C6          -6.0747   1.1232  18.6086 C.ar           1 RES1               0.0000
      7 C7          -4.6078   1.9292  16.9089 C.ar           1 RES1               0.0000
      8 N8          -2.1499   3.7052  18.4772 N.am           1 RES1               0.0000
      9 O9          -1.8688   1.4913  18.1672 O.2            1 RES1               0.0000
     10 N10         -3.7926   4.5652  19.8885 N.am           1 RES1               0.0000
     11 O11         -5.4930   3.3209  20.6719 O.2            1 RES1               0.0000
     12 C12         -3.4665  -0.3407  19.8734 C.3            1 RES1               0.0000
     13 C13         -6.9900   0.7467  17.6397 C.ar           1 RES1               0.0000
     14 C14         -5.5244   1.5517  15.9416 C.ar           1 RES1               0.0000
     15 C15         -2.6852   4.7936  19.1180 C.2            1 RES1               0.0000
     16 C16         -6.7158   0.9611  16.3057 C.ar           1 RES1               0.0000
     17 O17         -2.1813   5.9067  18.9984 O.2            1 RES1               0.0000
     18 H18         -2.7147   1.3234  20.9938 H              1 RES1               0.0000
     19 H19         -4.4647   1.0766  21.1320 H              1 RES1               0.0000
     20 H20         -6.3068   0.9443  19.6532 H              1 RES1               0.0000
     21 H21         -3.6766   2.3912  16.5991 H              1 RES1               0.0000
     22 H22         -1.3911   3.8835  17.8270 H              1 RES1               0.0000
     23 H23         -4.1616   5.3563  20.4065 H              1 RES1               0.0000
     24 H24         -3.3020  -1.0578  20.6749 H              1 RES1               0.0000
     25 H25         -4.3598  -0.6397  19.3291 H              1 RES1               0.0000
     26 H26         -2.6202  -0.3944  19.1916 H              1 RES1               0.0000
     27 H27         -7.9255   0.2810  17.9314 H              1 RES1               0.0000
     28 H28         -5.3041   1.7217  14.8929 H              1 RES1               0.0000
     29 H29         -7.4331   0.6664  15.5469 H              1 RES1               0.0000
@<TRIPOS>BOND
    1    1    2 1     
    2    1    3 1     
    3    1    4 1     
    4    1    5 1     
    5    2    6 ar    
    6    2    7 ar    
    7    3    8 1     
    8    3    9 2     
    9    4   10 1     
   10    4   11 2     
   11    5   12 1     
   12    5   18 1     
   13    5   19 1     
   14    6   13 ar    
   15    6   20 1     
   16    7   14 ar    
   17    7   21 1     
   18    8   15 1     
   19    8   22 1     
   20   10   15 1     
   21   10   23 1     
   22   12   24 1     
   23   12   25 1     
   24   12   26 1     
   25   13   16 ar    
   26   13   27 1     
   27   14   16 ar    
   28   14   28 1     
   29   15   17 2     
   30   16   29 1     
@<TRIPOS>SUBSTRUCTURE
      1 RES1           1
@<TRIPOS>SET
DONOR_HYDROGENS      STATIC     ATOMS    <user>   **** ""
2 22 23
ATOM$RED        STATIC     ATOMS    COLORGROUP SYSTEM
2 22 23
@<TRIPOS>COMMENT
> <Gold.Version>
2022.3.0

> <Gold.Id.Protein>
unknown|4a9y_clean|pdb

> <Gold.Protein.RotatedTorsions>
[ 1685 1678 1676 1673 ] final -167.45 input   59.97 | X-H torsion
[ 2433 2428 2427 2424 ] final   80.28 input   60.04 | X-H torsion

> <Gold.Protein.ActiveResidues>
 TRP18   PRO29   VAL30   GLY31   SER32   GLY33   TYR35   GLY36   SER37   VAL38  
 CYS39   ALA40   ARG49   VAL50   ALA51   VAL52   LYS53   LYS54   LEU55   ARG67  
 ARG70   GLU71   LEU72   LEU74   LEU75   MET78   HIS80   ASN82   VAL83   ILE84  
 GLY85   LEU86   LEU87   ASP88   TYR103  LEU104  VAL105  THR106  HIS107  LEU108 
 MET109  GLY110  ALA111  ASP112  ASN114  ASN115  GLY137  LEU138  TYR140  ILE141 
 HIS142  ILE146  ILE147  HIS148  ARG149  ASP150  LEU151  SER154  ASN155  LEU156 
 ALA157  LYS165  ILE166  LEU167  ASP168  PHE169  GLY170  ASP205 

> <Gold.Protein.RotatedAtoms>
   -4.6191   -1.8440   17.8080 H   0  0  0  0  0  0  0  0  0  0  0  0  # atno 1685 bound_to 1678
    5.0758    5.3493   24.6228 H   0  0  0  0  0  0  0  0  0  0  0  0  # atno 2433 bound_to 2428
   -5.0375   -3.2595   18.4929 LP  0  0  0  0  0  0  0  0  0  0  0  0  # atno 5425 bound_to 1678
   -6.1814   -2.1462   18.1480 LP  0  0  0  0  0  0  0  0  0  0  0  0  # atno 5426 bound_to 1678
    6.6954    5.2209   24.5349 LP  0  0  0  0  0  0  0  0  0  0  0  0  # atno 5504 bound_to 2428
    6.0108    6.2163   25.6334 LP  0  0  0  0  0  0  0  0  0  0  0  0  # atno 5505 bound_to 2428

> <Gold.Score>
     Fitness  S(hb_ext) S(vdw_ext)  S(hb_int)    S(int)      intcor
     36.00       0.21      28.22       0.00      -3.01      -0.76

> <Gold.Goldscore.Fitness>
36.0042

> <Gold.Goldscore.Internal.Vdw>
-2.9743

> <Gold.Goldscore.Internal.Torsion>
-0.7897

> <Gold.Goldscore.External.Vdw>
28.2199

> <Gold.Goldscore.Internal.HBond>
0.0000

> <Gold.Goldscore.External.HBond>
0.2073

> <Gold.Goldscore.Internal.Correction>
-0.7585

> <Gold.Goldscore.Hbonds>
donor molecule, donor type, donor heavy atom, donor atom, acceptor molecule, acceptor atom, score
      P1  H  2639  2647       L1     9  0.09
      L1  H     8    22       P1  2642  0.01

> <Gold.Goldscore.Internal.Vdw.Weighted>
-2.9743

> <Gold.Goldscore.Internal.Torsion.Weighted>
-0.7897

> <Gold.Goldscore.External.Vdw.Weighted>
38.8024

> <Gold.Goldscore.Internal.HBond.Weighted>
0.0000

> <Gold.Goldscore.External.HBond.Weighted>
0.2073

> <Gold.Goldscore.Internal.Correction.Weighted>
-0.7585

> <Gold.Rescore>
     Score     S(PLP)   S(hbond)     S(cho)   S(metal)  DE(clash)   DE(tors)     intcor
     34.13     -34.07       0.70       0.00       0.00       1.29       0.38       ----

> <Gold.PLP.Fitness>
34.1262

> <Gold.PLP.PLP>
-34.0698

> <Gold.PLP.part.hbond>
-2.0000

> <Gold.PLP.part.metal>
0.0000

> <Gold.PLP.part.buried>
5.8392

> <Gold.PLP.part.nonpolar>
-37.7859

> <Gold.PLP.part.repulsive>
0.4740

> <Gold.PLP.ligand.clash>
1.2881

> <Gold.PLP.ligand.torsion>
0.3837

> <Gold.PLP.Chemscore.Hbond>
0.7040

> <Gold.PLP.Chemscore.CHOScore>
0.0000

> <Gold.PLP.Chemscore.Metal>
0.0000

> <Gold.Chemscore.Hbonds>
donor molecule, donor type, donor heavy atom, donor atom, acceptor molecule, acceptor atom, score
      L1  H     8    22       P1  2642  0.43

> <Gold.PLP.Chemscore.Internal.Correction>
   9.000000E+99

