#       Name:                CT1002167954
#       Creating user name   hitesit
#       Creation time:       Sun Apr 16 02:35:18 2023


#       File generated by GOLD software.
#

@<TRIPOS>MOLECULE
CT1002167954|ligand_prepared|mol2|1|dock8
    29    30     1
SMALL
NO_CHARGES


@<TRIPOS>ATOM
      1 C1         228.4213 389.5150 -111.9344 C.3            1 RES1               0.0000
      2 C2         229.8279 389.0342 -112.3459 C.ar           1 RES1               0.0000
      3 C3         227.8513 388.4368 -111.0175 C.2            1 RES1               0.0000
      4 C4         228.6137 390.8682 -111.2589 C.2            1 RES1               0.0000
      5 C5         227.4541 389.7087 -113.1254 C.3            1 RES1               0.0000
      6 C6         230.4592 388.0096 -111.6470 C.ar           1 RES1               0.0000
      7 C7         230.5044 389.6028 -113.4218 C.ar           1 RES1               0.0000
      8 N8         227.7855 388.7119 -109.6834 N.am           1 RES1               0.0000
      9 O9         227.5015 387.3468 -111.4533 O.2            1 RES1               0.0000
     10 N10        228.3165 390.9679 -109.9249 N.am           1 RES1               0.0000
     11 O11        229.0357 391.8448 -111.8658 O.2            1 RES1               0.0000
     12 C12        227.5010 388.5800 -114.1433 C.3            1 RES1               0.0000
     13 C13        231.7198 387.5674 -112.0122 C.ar           1 RES1               0.0000
     14 C14        231.7652 389.1592 -113.7852 C.ar           1 RES1               0.0000
     15 C15        227.9403 389.9435 -109.0995 C.2            1 RES1               0.0000
     16 C16        232.3735 388.1414 -113.0817 C.ar           1 RES1               0.0000
     17 O17        227.7433 390.1010 -107.8980 O.2            1 RES1               0.0000
     18 H18        226.4309 389.7935 -112.7391 H              1 RES1               0.0000
     19 H19        227.7007 390.6505 -113.6310 H              1 RES1               0.0000
     20 H20        229.9613 387.5475 -110.8011 H              1 RES1               0.0000
     21 H21        230.0457 390.4055 -113.9891 H              1 RES1               0.0000
     22 H22        227.6044 387.9297 -109.0624 H              1 RES1               0.0000
     23 H23        228.3816 391.8914 -109.5087 H              1 RES1               0.0000
     24 H24        226.8037 388.7658 -114.9575 H              1 RES1               0.0000
     25 H25        228.4986 388.4837 -114.5667 H              1 RES1               0.0000
     26 H26        227.2363 387.6317 -113.6801 H              1 RES1               0.0000
     27 H27        232.1948 386.7670 -111.4545 H              1 RES1               0.0000
     28 H28        232.2762 389.6143 -114.6272 H              1 RES1               0.0000
     29 H29        233.3609 387.7945 -113.3679 H              1 RES1               0.0000
@<TRIPOS>BOND
    1    1    2 1     
    2    1    3 1     
    3    1    4 1     
    4    1    5 1     
    5    2    6 ar    
    6    2    7 ar    
    7    3    8 1     
    8    3    9 2     
    9    4   10 1     
   10    4   11 2     
   11    5   12 1     
   12    5   18 1     
   13    5   19 1     
   14    6   13 ar    
   15    6   20 1     
   16    7   14 ar    
   17    7   21 1     
   18    8   15 1     
   19    8   22 1     
   20   10   15 1     
   21   10   23 1     
   22   12   24 1     
   23   12   25 1     
   24   12   26 1     
   25   13   16 ar    
   26   13   27 1     
   27   14   16 ar    
   28   14   28 1     
   29   15   17 2     
   30   16   29 1     
@<TRIPOS>SUBSTRUCTURE
      1 RES1           1
@<TRIPOS>SET
DONOR_HYDROGENS      STATIC     ATOMS    <user>   **** ""
2 22 23
ATOM$RED        STATIC     ATOMS    COLORGROUP SYSTEM
2 22 23
@<TRIPOS>COMMENT
> <Gold.Version>
2022.3.0

> <Gold.Id.Protein>
unknown|7ts3_clean|pdb

> <Gold.Protein.RotatedTorsions>
[ 17136 17116 17117 17118 ] final   36.68 input   42.97 | X-H torsion
[ 17196 17162 17163 17164 ] final -124.35 input  102.93 | X-H torsion
[ 18266 18253 18254 18255 ] final    3.74 input   38.47 | X-H torsion
[ 18355 18311 18312 18313 ] final  131.15 input   32.37 | X-H torsion
[ 18440 18401 18402 18403 ] final  132.42 input  104.02 | X-H torsion
[ 18448 18412 18411 18409 ] final  110.91 input   60.03 | X-H torsion
[ 18508 18473 18474 18475 ] final  -75.60 input   98.64 | X-H torsion
[ 18655 18628 18629 18630 ] final -167.90 input  122.95 | X-H torsion
[ 7402 7386 7387 7388 ] final  -47.14 input  101.82 | X-H torsion
[ 7448 7441 7442 7443 ] final  124.79 input   81.00 | X-H torsion
[ 18236 18215 18216 18217 ] final  154.08 input   34.45 | X-H torsion
[ 18542 18529 18530 18531 ] final -141.20 input  116.11 | X-H torsion
[ 10056 10030 10029 10026 ] final -173.29 input   60.02 | X-H torsion
[ 18240 18220 18219 18216 ] final -125.98 input   59.98 | X-H torsion
[ 18188 18150 18151 18152 ] final   33.89 input   43.88 | X-H torsion
[ 17244 17223 17224 17225 ] final  148.08 input   49.67 | X-H torsion
[ 10092 10072 10073 10074 ] final -108.21 input   21.26 | X-H torsion
[ 16940 16904 16903 16901 ] final  146.97 input   59.97 | X-H torsion
[ 11376 11356 11355 11352 ] final   46.95 input   60.02 | X-H torsion
[ 11437 11404 11405 11406 ] final  -36.86 input   53.40 | X-H torsion
[ 26042 26007 26006 26004 ] final -144.11 input   59.98 | X-H torsion
[ 17299 17273 17274 17275 ] final  -66.84 input   71.10 | X-H torsion
[ 17364 17329 17330 17331 ] final   35.83 input   83.79 | X-H torsion
[ 26034 25996 25997 25998 ] final  115.04 input  104.01 | X-H torsion
[ 18726 18685 18686 18687 ] final  150.39 input   93.05 | X-H torsion
[ 22392 22358 22359 22360 ] final  -50.08 input   47.29 | X-H torsion
[ 27272 17069 17068 17067 ] final  171.24 input   -0.00 | X-H torsion
[ 27276 18153 18152 18151 ] final -179.04 input   -0.00 | X-H torsion
[ 27279 18256 18255 18254 ] final    5.16 input   -0.00 | X-H torsion
[ 27282 18314 18313 18312 ] final  158.74 input    0.00 | X-H torsion
[ 27285 18404 18403 18402 ] final  -66.70 input   -0.00 | X-H torsion
[ 27290 18476 18475 18474 ] final  173.78 input   -0.00 | X-H torsion
[ 27304 18218 18217 18216 ] final -169.30 input   -0.00 | X-H torsion
[ 27306 16956 16955 16954 ] final -117.43 input   -0.00 | X-H torsion
[ 27311 16996 16995 16994 ] final -144.02 input    0.00 | X-H torsion
[ 27315 17119 17118 17117 ] final  108.33 input    0.00 | X-H torsion
[ 27317 17165 17164 17163 ] final  -16.01 input    0.00 | X-H torsion
[ 27322 10075 10074 10073 ] final  148.52 input   -0.00 | X-H torsion
[ 27324 11354 11353 11352 ] final -176.51 input    0.00 | X-H torsion
[ 27338 7265 7264 7263 ] final  -97.68 input   -0.00 | X-H torsion
[ 27345 2414 2413 2412 ] final   69.65 input    0.00 | X-H torsion
[ 27348 17276 17275 17274 ] final  -44.27 input   -0.00 | X-H torsion

> <Gold.Protein.ActiveResidues>
 MET341  HIS342  TRP414  ARG419  CYS420  VAL421  GLY422  LEU429  LEU460  SER462 
 ALA463  ILE464  SER482  GLN483  ARG486  TYR567  GLY568  LEU569  PRO570  ALA571 
 VAL572  SER573  ASN574  MET575  PRO588  PHE589  SER590  GLY591  TRP592  TYR593 
 MET594  GLY595  GLU597  ILE598  ARG601  ASP602  ARG608  ILE653  VAL654  TRP683 
 PHE709  TYR711  HEM801  H4B802 

> <Gold.Protein.RotatedAtoms>
  240.3424  385.5957 -114.7677 H   0  0  0  0  0  0  0  0  0  0  0  0  # atno 7402 bound_to 7386
  240.4846  386.6906 -116.8563 H   0  0  0  0  0  0  0  0  0  0  0  0  # atno 7448 bound_to 7441
  242.3599  395.1982 -118.2546 H   0  0  0  0  0  0  0  0  0  0  0  0  # atno 10056 bound_to 10030
  240.8795  398.9738 -116.8394 H   0  0  0  0  0  0  0  0  0  0  0  0  # atno 10092 bound_to 10072
  224.6376  393.7199 -113.6738 H   0  0  0  0  0  0  0  0  0  0  0  0  # atno 11376 bound_to 11356
  225.6690  396.2363 -113.0429 H   0  0  0  0  0  0  0  0  0  0  0  0  # atno 11437 bound_to 11404
  225.4492  393.0735 -119.8014 H   0  0  0  0  0  0  0  0  0  0  0  0  # atno 16940 bound_to 16904
  230.6387  395.4664 -117.6584 H   0  0  0  0  0  0  0  0  0  0  0  0  # atno 17136 bound_to 17116
  231.3023  395.4268 -115.2797 H   0  0  0  0  0  0  0  0  0  0  0  0  # atno 17196 bound_to 17162
  229.8803  396.4546 -112.5837 H   0  0  0  0  0  0  0  0  0  0  0  0  # atno 17244 bound_to 17223
  229.6323  396.7010 -109.0769 H   0  0  0  0  0  0  0  0  0  0  0  0  # atno 17299 bound_to 17273
  230.7087  395.9343 -107.4241 H   0  0  0  0  0  0  0  0  0  0  0  0  # atno 17364 bound_to 17329
  233.7368  397.7498 -112.4662 H   0  0  0  0  0  0  0  0  0  0  0  0  # atno 18188 bound_to 18150
  235.6348  398.1903 -115.0049 H   0  0  0  0  0  0  0  0  0  0  0  0  # atno 18236 bound_to 18215
  235.7791  400.0183 -117.5536 H   0  0  0  0  0  0  0  0  0  0  0  0  # atno 18240 bound_to 18220
  236.0531  395.6443 -118.7566 H   0  0  0  0  0  0  0  0  0  0  0  0  # atno 18266 bound_to 18253
  238.4896  394.0629 -121.0646 H   0  0  0  0  0  0  0  0  0  0  0  0  # atno 18355 bound_to 18311
  235.0441  392.3210 -123.5653 H   0  0  0  0  0  0  0  0  0  0  0  0  # atno 18440 bound_to 18401
  228.2227  391.1177 -121.3020 H   0  0  0  0  0  0  0  0  0  0  0  0  # atno 18448 bound_to 18412
  235.6706  388.8036 -123.5707 H   0  0  0  0  0  0  0  0  0  0  0  0  # atno 18508 bound_to 18473
  235.1900  386.4911 -125.4043 H   0  0  0  0  0  0  0  0  0  0  0  0  # atno 18542 bound_to 18529
  232.2189  383.9374 -122.3051 H   0  0  0  0  0  0  0  0  0  0  0  0  # atno 18655 bound_to 18628
  230.0950  386.7112 -123.4924 H   0  0  0  0  0  0  0  0  0  0  0  0  # atno 18726 bound_to 18685
  237.5426  388.3531 -127.5577 H   0  0  0  0  0  0  0  0  0  0  0  0  # atno 22392 bound_to 22358
  232.3394  389.1675 -103.0780 H   0  0  0  0  0  0  0  0  0  0  0  0  # atno 26034 bound_to 25996
  231.3490  386.7689 -108.7180 H   0  0  0  0  0  0  0  0  0  0  0  0  # atno 26042 bound_to 26007
  234.0697  395.9801 -117.5639 LP  0  0  0  0  0  0  0  0  0  0  0  0  # atno 27272 bound_to 17069
  234.3455  394.8577 -118.8539 LP  0  0  0  0  0  0  0  0  0  0  0  0  # atno 27273 bound_to 17069
  232.2851  395.4694 -118.2554 LP  0  0  0  0  0  0  0  0  0  0  0  0  # atno 27274 bound_to 17116
  232.7220  395.8734 -114.3591 LP  0  0  0  0  0  0  0  0  0  0  0  0  # atno 27275 bound_to 17162
  234.0755  396.2401 -115.4000 LP  0  0  0  0  0  0  0  0  0  0  0  0  # atno 27276 bound_to 18153
  233.6776  396.6463 -113.7639 LP  0  0  0  0  0  0  0  0  0  0  0  0  # atno 27277 bound_to 18153
  237.1471  395.8204 -117.3985 LP  0  0  0  0  0  0  0  0  0  0  0  0  # atno 27278 bound_to 18253
  236.9957  396.6938 -120.7874 LP  0  0  0  0  0  0  0  0  0  0  0  0  # atno 27279 bound_to 18256
  236.5586  395.6170 -122.0717 LP  0  0  0  0  0  0  0  0  0  0  0  0  # atno 27280 bound_to 18256
  237.1217  393.3758 -120.2254 LP  0  0  0  0  0  0  0  0  0  0  0  0  # atno 27281 bound_to 18311
  236.4459  390.2317 -121.2435 LP  0  0  0  0  0  0  0  0  0  0  0  0  # atno 27282 bound_to 18314
  237.8396  391.2429 -121.0565 LP  0  0  0  0  0  0  0  0  0  0  0  0  # atno 27283 bound_to 18314
  236.4810  391.6299 -122.8502 LP  0  0  0  0  0  0  0  0  0  0  0  0  # atno 27284 bound_to 18401
  236.0734  389.4146 -125.5629 LP  0  0  0  0  0  0  0  0  0  0  0  0  # atno 27285 bound_to 18404
  237.4812  389.2495 -124.5675 LP  0  0  0  0  0  0  0  0  0  0  0  0  # atno 27286 bound_to 18404
  228.6525  392.6845 -121.3936 LP  0  0  0  0  0  0  0  0  0  0  0  0  # atno 27287 bound_to 18412
  229.1451  391.7722 -120.1320 LP  0  0  0  0  0  0  0  0  0  0  0  0  # atno 27288 bound_to 18412
  235.5771  388.0529 -121.9933 LP  0  0  0  0  0  0  0  0  0  0  0  0  # atno 27289 bound_to 18473
  232.6420  386.3794 -124.2839 LP  0  0  0  0  0  0  0  0  0  0  0  0  # atno 27290 bound_to 18476
  233.4484  387.0073 -122.8855 LP  0  0  0  0  0  0  0  0  0  0  0  0  # atno 27291 bound_to 18476
  231.1896  384.4364 -123.6225 LP  0  0  0  0  0  0  0  0  0  0  0  0  # atno 27292 bound_to 18628
  239.0836  384.5832 -115.4304 LP  0  0  0  0  0  0  0  0  0  0  0  0  # atno 27301 bound_to 7386
  242.0172  385.9326 -116.5097 LP  0  0  0  0  0  0  0  0  0  0  0  0  # atno 27302 bound_to 7441
  237.0036  397.1078 -114.9582 LP  0  0  0  0  0  0  0  0  0  0  0  0  # atno 27303 bound_to 18215
  239.0766  396.6864 -117.5960 LP  0  0  0  0  0  0  0  0  0  0  0  0  # atno 27304 bound_to 18218
  238.3462  397.4619 -116.2302 LP  0  0  0  0  0  0  0  0  0  0  0  0  # atno 27305 bound_to 18218
  233.0689  394.5537 -123.9508 LP  0  0  0  0  0  0  0  0  0  0  0  0  # atno 27306 bound_to 16956
  233.8683  395.5449 -125.1248 LP  0  0  0  0  0  0  0  0  0  0  0  0  # atno 27307 bound_to 16956
  235.0017  384.8437 -124.8616 LP  0  0  0  0  0  0  0  0  0  0  0  0  # atno 27308 bound_to 18529
  242.3220  396.1480 -119.5753 LP  0  0  0  0  0  0  0  0  0  0  0  0  # atno 27309 bound_to 10030
  240.9291  395.6650 -118.8731 LP  0  0  0  0  0  0  0  0  0  0  0  0  # atno 27310 bound_to 10030
  230.4561  396.4648 -119.8498 LP  0  0  0  0  0  0  0  0  0  0  0  0  # atno 27311 bound_to 16996
  229.8516  396.8825 -121.4183 LP  0  0  0  0  0  0  0  0  0  0  0  0  # atno 27312 bound_to 16996
  236.3624  399.1904 -118.8275 LP  0  0  0  0  0  0  0  0  0  0  0  0  # atno 27313 bound_to 18220
  237.0019  398.9655 -117.3418 LP  0  0  0  0  0  0  0  0  0  0  0  0  # atno 27314 bound_to 18220
  229.2565  396.0598 -115.2142 LP  0  0  0  0  0  0  0  0  0  0  0  0  # atno 27315 bound_to 17119
  229.8596  397.6523 -114.8973 LP  0  0  0  0  0  0  0  0  0  0  0  0  # atno 27316 bound_to 17119
  233.0506  396.3755 -112.1520 LP  0  0  0  0  0  0  0  0  0  0  0  0  # atno 27317 bound_to 17165
  232.1024  397.6225 -111.4132 LP  0  0  0  0  0  0  0  0  0  0  0  0  # atno 27318 bound_to 17165
  234.4950  399.2067 -111.8638 LP  0  0  0  0  0  0  0  0  0  0  0  0  # atno 27319 bound_to 18150
  230.1450  395.4831 -111.1570 LP  0  0  0  0  0  0  0  0  0  0  0  0  # atno 27320 bound_to 17223
  239.2291  399.2766 -117.3164 LP  0  0  0  0  0  0  0  0  0  0  0  0  # atno 27321 bound_to 10072
  238.0684  398.9101 -113.9244 LP  0  0  0  0  0  0  0  0  0  0  0  0  # atno 27322 bound_to 10075
  237.8522  399.1833 -115.6210 LP  0  0  0  0  0  0  0  0  0  0  0  0  # atno 27323 bound_to 10075
  228.3511  395.1738 -112.6901 LP  0  0  0  0  0  0  0  0  0  0  0  0  # atno 27324 bound_to 11354
  227.7727  394.6113 -111.1574 LP  0  0  0  0  0  0  0  0  0  0  0  0  # atno 27325 bound_to 11354
  227.0035  393.3212 -119.3885 LP  0  0  0  0  0  0  0  0  0  0  0  0  # atno 27328 bound_to 16904
  226.6078  392.0957 -120.3926 LP  0  0  0  0  0  0  0  0  0  0  0  0  # atno 27329 bound_to 16904
  223.1702  393.9406 -113.0071 LP  0  0  0  0  0  0  0  0  0  0  0  0  # atno 27333 bound_to 11356
  223.7976  392.4379 -113.1285 LP  0  0  0  0  0  0  0  0  0  0  0  0  # atno 27334 bound_to 11356
  225.9089  394.6203 -113.6670 LP  0  0  0  0  0  0  0  0  0  0  0  0  # atno 27335 bound_to 11404
  230.4459  385.5210 -108.1945 LP  0  0  0  0  0  0  0  0  0  0  0  0  # atno 27336 bound_to 26007
  232.0266  385.6129 -107.7952 LP  0  0  0  0  0  0  0  0  0  0  0  0  # atno 27337 bound_to 26007
  237.7245  383.3627 -113.5903 LP  0  0  0  0  0  0  0  0  0  0  0  0  # atno 27338 bound_to 7265
  236.5965  384.4755 -112.8908 LP  0  0  0  0  0  0  0  0  0  0  0  0  # atno 27339 bound_to 7265
  228.6359  395.5022 -109.8620 LP  0  0  0  0  0  0  0  0  0  0  0  0  # atno 27343 bound_to 17273
  229.6591  394.5485 -107.3204 LP  0  0  0  0  0  0  0  0  0  0  0  0  # atno 27344 bound_to 17329
  230.3128  382.8442 -105.7885 LP  0  0  0  0  0  0  0  0  0  0  0  0  # atno 27345 bound_to 2414
  231.1014  382.0851 -104.4461 LP  0  0  0  0  0  0  0  0  0  0  0  0  # atno 27346 bound_to 2414
  232.6382  390.8887 -103.0997 LP  0  0  0  0  0  0  0  0  0  0  0  0  # atno 27347 bound_to 25996
  228.0975  395.1107 -105.1695 LP  0  0  0  0  0  0  0  0  0  0  0  0  # atno 27348 bound_to 17276
  229.0814  393.6996 -105.3716 LP  0  0  0  0  0  0  0  0  0  0  0  0  # atno 27349 bound_to 17276

> <Gold.Score>
     Fitness  S(hb_ext) S(vdw_ext)  S(hb_int)    S(int)      intcor
     22.80       5.94      14.76       0.00      -3.43      -0.76

> <Gold.Goldscore.Fitness>
22.8035

> <Gold.Goldscore.Internal.Vdw>
-3.4302

> <Gold.Goldscore.Internal.Torsion>
-0.7572

> <Gold.Goldscore.External.Vdw>
14.7568

> <Gold.Goldscore.Internal.HBond>
0.0000

> <Gold.Goldscore.External.HBond>
5.9419

> <Gold.Goldscore.Internal.Correction>
-0.7585

> <Gold.Goldscore.Hbonds>
donor molecule, donor type, donor heavy atom, donor atom, acceptor molecule, acceptor atom, score
      L1  H    10    23       P1 17280  0.99

> <Gold.Goldscore.Internal.Vdw.Weighted>
-3.4302

> <Gold.Goldscore.Internal.Torsion.Weighted>
-0.7572

> <Gold.Goldscore.External.Vdw.Weighted>
20.2906

> <Gold.Goldscore.Internal.HBond.Weighted>
0.0000

> <Gold.Goldscore.External.HBond.Weighted>
5.9419

> <Gold.Goldscore.Internal.Correction.Weighted>
-0.7585

> <Gold.Rescore>
     Score     S(PLP)   S(hbond)     S(cho)   S(metal)  DE(clash)   DE(tors)     intcor
     26.48     -27.99       0.35       0.00       0.00       1.26       0.65       ----

> <Gold.PLP.Fitness>
26.4781

> <Gold.PLP.PLP>
-27.9938

> <Gold.PLP.part.hbond>
-2.0000

> <Gold.PLP.part.metal>
0.0000

> <Gold.PLP.part.buried>
-4.5811

> <Gold.PLP.part.nonpolar>
-22.9702

> <Gold.PLP.part.repulsive>
1.7265

> <Gold.PLP.ligand.clash>
1.2565

> <Gold.PLP.ligand.torsion>
0.6480

> <Gold.PLP.Chemscore.Hbond>
0.3456

> <Gold.PLP.Chemscore.CHOScore>
0.0000

> <Gold.PLP.Chemscore.Metal>
0.0000

> <Gold.Chemscore.Hbonds>
donor molecule, donor type, donor heavy atom, donor atom, acceptor molecule, acceptor atom, score
      L1  H    10    23       P1 17280  0.49

> <Gold.PLP.Chemscore.Internal.Correction>
   9.000000E+99

