#       Name:                CT1002167954
#       Creating user name   hitesit
#       Creation time:       Sun Apr 16 02:35:14 2023


#       File generated by GOLD software.
#

@<TRIPOS>MOLECULE
CT1002167954|ligand_prepared|mol2|1|dock3
    29    30     1
SMALL
NO_CHARGES


@<TRIPOS>ATOM
      1 C1         233.9649 390.6293 -116.2623 C.3            1 RES1               0.0000
      2 C2         232.4922 390.2000 -116.4218 C.ar           1 RES1               0.0000
      3 C3         234.7879 389.6575 -117.1029 C.2            1 RES1               0.0000
      4 C4         234.0406 392.0775 -116.7331 C.2            1 RES1               0.0000
      5 C5         234.4776 390.5735 -114.8043 C.3            1 RES1               0.0000
      6 C6         231.8171 390.4155 -117.6195 C.ar           1 RES1               0.0000
      7 C7         231.7974 389.5862 -115.3830 C.ar           1 RES1               0.0000
      8 N8         235.3058 390.1195 -118.2768 N.am           1 RES1               0.0000
      9 O9         234.9468 388.4923 -116.7602 O.2            1 RES1               0.0000
     10 N10        234.7725 392.3491 -117.8592 N.am           1 RES1               0.0000
     11 O11        233.4594 392.9834 -116.1484 O.2            1 RES1               0.0000
     12 C12        235.8561 391.1866 -114.6152 C.3            1 RES1               0.0000
     13 C13        230.4962 390.0287 -117.7743 C.ar           1 RES1               0.0000
     14 C14        230.4764 389.2004 -115.5398 C.ar           1 RES1               0.0000
     15 C15        235.3832 391.4314 -118.6699 C.2            1 RES1               0.0000
     16 C16        229.8251 389.4205 -116.7348 C.ar           1 RES1               0.0000
     17 O17        235.9774 391.7481 -119.6965 O.2            1 RES1               0.0000
     18 H18        233.7647 391.1014 -114.1589 H              1 RES1               0.0000
     19 H19        234.5099 389.5256 -114.4812 H              1 RES1               0.0000
     20 H20        232.3281 390.8949 -118.4479 H              1 RES1               0.0000
     21 H21        232.2893 389.4040 -114.4335 H              1 RES1               0.0000
     22 H22        235.6690 389.4253 -118.9222 H              1 RES1               0.0000
     23 H23        234.8714 393.3258 -118.1171 H              1 RES1               0.0000
     24 H24        236.1679 391.1212 -113.5749 H              1 RES1               0.0000
     25 H25        236.5951 390.6694 -115.2236 H              1 RES1               0.0000
     26 H26        235.8544 392.2358 -114.9032 H              1 RES1               0.0000
     27 H27        229.9877 390.2054 -118.7163 H              1 RES1               0.0000
     28 H28        229.9520 388.7227 -114.7188 H              1 RES1               0.0000
     29 H29        228.7905 389.1172 -116.8564 H              1 RES1               0.0000
@<TRIPOS>BOND
    1    1    2 1     
    2    1    3 1     
    3    1    4 1     
    4    1    5 1     
    5    2    6 ar    
    6    2    7 ar    
    7    3    8 1     
    8    3    9 2     
    9    4   10 1     
   10    4   11 2     
   11    5   12 1     
   12    5   18 1     
   13    5   19 1     
   14    6   13 ar    
   15    6   20 1     
   16    7   14 ar    
   17    7   21 1     
   18    8   15 1     
   19    8   22 1     
   20   10   15 1     
   21   10   23 1     
   22   12   24 1     
   23   12   25 1     
   24   12   26 1     
   25   13   16 ar    
   26   13   27 1     
   27   14   16 ar    
   28   14   28 1     
   29   15   17 2     
   30   16   29 1     
@<TRIPOS>SUBSTRUCTURE
      1 RES1           1
@<TRIPOS>SET
DONOR_HYDROGENS      STATIC     ATOMS    <user>   **** ""
2 22 23
ATOM$RED        STATIC     ATOMS    COLORGROUP SYSTEM
2 22 23
@<TRIPOS>COMMENT
> <Gold.Version>
2022.3.0

> <Gold.Id.Protein>
unknown|7ts3_clean|pdb

> <Gold.Protein.RotatedTorsions>
[ 17136 17116 17117 17118 ] final -162.83 input   42.97 | X-H torsion
[ 17196 17162 17163 17164 ] final   71.98 input  102.93 | X-H torsion
[ 18266 18253 18254 18255 ] final  168.27 input   38.47 | X-H torsion
[ 18355 18311 18312 18313 ] final -174.89 input   32.37 | X-H torsion
[ 18440 18401 18402 18403 ] final  113.48 input  104.02 | X-H torsion
[ 18448 18412 18411 18409 ] final  157.75 input   60.03 | X-H torsion
[ 18508 18473 18474 18475 ] final -178.16 input   98.64 | X-H torsion
[ 18655 18628 18629 18630 ] final   76.12 input  122.95 | X-H torsion
[ 7402 7386 7387 7388 ] final -116.71 input  101.82 | X-H torsion
[ 7448 7441 7442 7443 ] final   18.43 input   81.00 | X-H torsion
[ 18236 18215 18216 18217 ] final  -36.73 input   34.45 | X-H torsion
[ 18542 18529 18530 18531 ] final   27.63 input  116.11 | X-H torsion
[ 10056 10030 10029 10026 ] final   76.87 input   60.02 | X-H torsion
[ 18240 18220 18219 18216 ] final  149.02 input   59.98 | X-H torsion
[ 18188 18150 18151 18152 ] final    4.13 input   43.88 | X-H torsion
[ 17244 17223 17224 17225 ] final -151.46 input   49.67 | X-H torsion
[ 10092 10072 10073 10074 ] final  101.15 input   21.26 | X-H torsion
[ 16940 16904 16903 16901 ] final  -36.75 input   59.97 | X-H torsion
[ 11376 11356 11355 11352 ] final   20.45 input   60.02 | X-H torsion
[ 11437 11404 11405 11406 ] final -140.65 input   53.40 | X-H torsion
[ 26042 26007 26006 26004 ] final   -2.14 input   59.98 | X-H torsion
[ 17299 17273 17274 17275 ] final   85.95 input   71.10 | X-H torsion
[ 17364 17329 17330 17331 ] final  119.86 input   83.79 | X-H torsion
[ 26034 25996 25997 25998 ] final   72.14 input  104.01 | X-H torsion
[ 18726 18685 18686 18687 ] final  117.80 input   93.05 | X-H torsion
[ 22392 22358 22359 22360 ] final -178.38 input   47.29 | X-H torsion
[ 27272 17069 17068 17067 ] final  -91.20 input   -0.00 | X-H torsion
[ 27276 18153 18152 18151 ] final -133.85 input   -0.00 | X-H torsion
[ 27279 18256 18255 18254 ] final   24.42 input   -0.00 | X-H torsion
[ 27282 18314 18313 18312 ] final -178.98 input    0.00 | X-H torsion
[ 27285 18404 18403 18402 ] final -124.96 input   -0.00 | X-H torsion
[ 27290 18476 18475 18474 ] final -178.69 input   -0.00 | X-H torsion
[ 27304 18218 18217 18216 ] final -171.34 input   -0.00 | X-H torsion
[ 27306 16956 16955 16954 ] final   26.31 input   -0.00 | X-H torsion
[ 27311 16996 16995 16994 ] final -163.45 input    0.00 | X-H torsion
[ 27315 17119 17118 17117 ] final -155.72 input    0.00 | X-H torsion
[ 27317 17165 17164 17163 ] final   39.60 input    0.00 | X-H torsion
[ 27322 10075 10074 10073 ] final   50.66 input   -0.00 | X-H torsion
[ 27324 11354 11353 11352 ] final  158.58 input    0.00 | X-H torsion
[ 27338 7265 7264 7263 ] final   95.45 input   -0.00 | X-H torsion
[ 27345 2414 2413 2412 ] final -119.09 input    0.00 | X-H torsion
[ 27348 17276 17275 17274 ] final    9.43 input   -0.00 | X-H torsion

> <Gold.Protein.ActiveResidues>
 MET341  HIS342  TRP414  ARG419  CYS420  VAL421  GLY422  LEU429  LEU460  SER462 
 ALA463  ILE464  SER482  GLN483  ARG486  TYR567  GLY568  LEU569  PRO570  ALA571 
 VAL572  SER573  ASN574  MET575  PRO588  PHE589  SER590  GLY591  TRP592  TYR593 
 MET594  GLY595  GLU597  ILE598  ARG601  ASP602  ARG608  ILE653  VAL654  TRP683 
 PHE709  TYR711  HEM801  H4B802 

> <Gold.Protein.RotatedAtoms>
  240.1160  384.6731 -114.4390 H   0  0  0  0  0  0  0  0  0  0  0  0  # atno 7402 bound_to 7386
  241.5544  386.6805 -115.9441 H   0  0  0  0  0  0  0  0  0  0  0  0  # atno 7448 bound_to 7441
  242.4569  396.0915 -119.4956 H   0  0  0  0  0  0  0  0  0  0  0  0  # atno 10056 bound_to 10030
  239.4645  399.5016 -117.6158 H   0  0  0  0  0  0  0  0  0  0  0  0  # atno 10092 bound_to 10072
  224.3967  394.0669 -113.6003 H   0  0  0  0  0  0  0  0  0  0  0  0  # atno 11376 bound_to 11356
  226.4209  395.0792 -112.8349 H   0  0  0  0  0  0  0  0  0  0  0  0  # atno 11437 bound_to 11404
  227.2374  392.5450 -119.9600 H   0  0  0  0  0  0  0  0  0  0  0  0  # atno 16940 bound_to 16904
  232.2092  395.7177 -118.4042 H   0  0  0  0  0  0  0  0  0  0  0  0  # atno 17136 bound_to 17116
  232.8039  395.6384 -114.3880 H   0  0  0  0  0  0  0  0  0  0  0  0  # atno 17196 bound_to 17162
  230.7005  396.3486 -112.2609 H   0  0  0  0  0  0  0  0  0  0  0  0  # atno 17244 bound_to 17223
  228.9627  395.2788 -109.7524 H   0  0  0  0  0  0  0  0  0  0  0  0  # atno 17299 bound_to 17273
  230.6572  394.9456 -108.0417 H   0  0  0  0  0  0  0  0  0  0  0  0  # atno 17364 bound_to 17329
  233.6358  398.0702 -112.7741 H   0  0  0  0  0  0  0  0  0  0  0  0  # atno 18188 bound_to 18150
  236.9087  396.9904 -114.8910 H   0  0  0  0  0  0  0  0  0  0  0  0  # atno 18236 bound_to 18215
  235.9613  399.5747 -118.7244 H   0  0  0  0  0  0  0  0  0  0  0  0  # atno 18240 bound_to 18220
  237.1213  395.5874 -117.3442 H   0  0  0  0  0  0  0  0  0  0  0  0  # atno 18266 bound_to 18253
  237.8889  394.5578 -120.8847 H   0  0  0  0  0  0  0  0  0  0  0  0  # atno 18355 bound_to 18311
  235.1841  392.2407 -123.8073 H   0  0  0  0  0  0  0  0  0  0  0  0  # atno 18440 bound_to 18401
  228.5711  390.9695 -120.6614 H   0  0  0  0  0  0  0  0  0  0  0  0  # atno 18448 bound_to 18412
  236.4723  388.4132 -122.5099 H   0  0  0  0  0  0  0  0  0  0  0  0  # atno 18508 bound_to 18473
  234.9114  384.9032 -124.7299 H   0  0  0  0  0  0  0  0  0  0  0  0  # atno 18542 bound_to 18529
  231.9182  384.9430 -123.3621 H   0  0  0  0  0  0  0  0  0  0  0  0  # atno 18655 bound_to 18628
  230.2591  386.4385 -123.8759 H   0  0  0  0  0  0  0  0  0  0  0  0  # atno 18726 bound_to 18685
  238.6064  389.3202 -126.8645 H   0  0  0  0  0  0  0  0  0  0  0  0  # atno 22392 bound_to 22358
  232.3326  389.4159 -102.4821 H   0  0  0  0  0  0  0  0  0  0  0  0  # atno 26034 bound_to 25996
  231.7723  385.3739 -107.7150 H   0  0  0  0  0  0  0  0  0  0  0  0  # atno 26042 bound_to 26007
  234.2205  394.6969 -117.7309 LP  0  0  0  0  0  0  0  0  0  0  0  0  # atno 27272 bound_to 17069
  234.1947  396.1410 -118.6869 LP  0  0  0  0  0  0  0  0  0  0  0  0  # atno 27273 bound_to 17069
  230.7698  395.2270 -117.5357 LP  0  0  0  0  0  0  0  0  0  0  0  0  # atno 27274 bound_to 17116
  231.2665  395.6683 -115.2234 LP  0  0  0  0  0  0  0  0  0  0  0  0  # atno 27275 bound_to 17162
  234.3071  395.7953 -114.9625 LP  0  0  0  0  0  0  0  0  0  0  0  0  # atno 27276 bound_to 18153
  233.4460  397.0911 -114.2014 LP  0  0  0  0  0  0  0  0  0  0  0  0  # atno 27277 bound_to 18153
  236.1214  395.8750 -118.7547 LP  0  0  0  0  0  0  0  0  0  0  0  0  # atno 27278 bound_to 18253
  237.2326  396.7169 -120.9527 LP  0  0  0  0  0  0  0  0  0  0  0  0  # atno 27279 bound_to 18256
  236.3218  395.5939 -121.9063 LP  0  0  0  0  0  0  0  0  0  0  0  0  # atno 27280 bound_to 18256
  237.7121  392.8894 -120.4022 LP  0  0  0  0  0  0  0  0  0  0  0  0  # atno 27281 bound_to 18311
  236.6484  390.1069 -121.4788 LP  0  0  0  0  0  0  0  0  0  0  0  0  # atno 27282 bound_to 18314
  237.6371  391.3678 -120.8212 LP  0  0  0  0  0  0  0  0  0  0  0  0  # atno 27283 bound_to 18314
  236.3441  391.7082 -122.6138 LP  0  0  0  0  0  0  0  0  0  0  0  0  # atno 27284 bound_to 18401
  236.4057  388.6487 -125.4458 LP  0  0  0  0  0  0  0  0  0  0  0  0  # atno 27285 bound_to 18404
  237.1489  390.0154 -124.6845 LP  0  0  0  0  0  0  0  0  0  0  0  0  # atno 27286 bound_to 18404
  228.2680  392.1454 -121.7446 LP  0  0  0  0  0  0  0  0  0  0  0  0  # atno 27287 bound_to 18412
  229.1786  392.4607 -120.4262 LP  0  0  0  0  0  0  0  0  0  0  0  0  # atno 27288 bound_to 18412
  234.7996  388.4315 -123.0220 LP  0  0  0  0  0  0  0  0  0  0  0  0  # atno 27289 bound_to 18473
  232.6397  386.2800 -124.2288 LP  0  0  0  0  0  0  0  0  0  0  0  0  # atno 27290 bound_to 18476
  233.4507  387.1067 -122.9407 LP  0  0  0  0  0  0  0  0  0  0  0  0  # atno 27291 bound_to 18476
  231.4862  383.4445 -122.5799 LP  0  0  0  0  0  0  0  0  0  0  0  0  # atno 27292 bound_to 18628
  239.3060  385.4891 -115.7532 LP  0  0  0  0  0  0  0  0  0  0  0  0  # atno 27301 bound_to 7386
  240.9617  385.9427 -117.4097 LP  0  0  0  0  0  0  0  0  0  0  0  0  # atno 27302 bound_to 7441
  235.7526  398.2861 -115.0699 LP  0  0  0  0  0  0  0  0  0  0  0  0  # atno 27303 bound_to 18215
  239.0805  396.6611 -117.5788 LP  0  0  0  0  0  0  0  0  0  0  0  0  # atno 27304 bound_to 18218
  238.3423  397.4872 -116.2474 LP  0  0  0  0  0  0  0  0  0  0  0  0  # atno 27305 bound_to 18218
  233.6436  395.1282 -125.3823 LP  0  0  0  0  0  0  0  0  0  0  0  0  # atno 27306 bound_to 16956
  233.2936  394.9704 -123.6933 LP  0  0  0  0  0  0  0  0  0  0  0  0  # atno 27307 bound_to 16956
  235.2768  386.4114 -125.5275 LP  0  0  0  0  0  0  0  0  0  0  0  0  # atno 27308 bound_to 18529
  240.9397  395.7623 -119.0084 LP  0  0  0  0  0  0  0  0  0  0  0  0  # atno 27309 bound_to 10030
  242.2138  395.1511 -118.1901 LP  0  0  0  0  0  0  0  0  0  0  0  0  # atno 27310 bound_to 10030
  230.3359  396.2095 -119.9260 LP  0  0  0  0  0  0  0  0  0  0  0  0  # atno 27311 bound_to 16996
  229.9717  397.1378 -121.3421 LP  0  0  0  0  0  0  0  0  0  0  0  0  # atno 27312 bound_to 16996
  237.0835  398.7668 -117.8665 LP  0  0  0  0  0  0  0  0  0  0  0  0  # atno 27313 bound_to 18220
  236.0974  399.8358 -117.1239 LP  0  0  0  0  0  0  0  0  0  0  0  0  # atno 27314 bound_to 18220
  229.6342  396.7543 -114.1991 LP  0  0  0  0  0  0  0  0  0  0  0  0  # atno 27315 bound_to 17119
  229.4818  396.9578 -115.9124 LP  0  0  0  0  0  0  0  0  0  0  0  0  # atno 27316 bound_to 17119
  232.8042  396.9878 -112.6180 LP  0  0  0  0  0  0  0  0  0  0  0  0  # atno 27317 bound_to 17165
  232.3487  397.0102 -110.9471 LP  0  0  0  0  0  0  0  0  0  0  0  0  # atno 27318 bound_to 17165
  234.5931  398.8954 -111.5646 LP  0  0  0  0  0  0  0  0  0  0  0  0  # atno 27319 bound_to 18150
  229.3406  395.5870 -111.4736 LP  0  0  0  0  0  0  0  0  0  0  0  0  # atno 27320 bound_to 17223
  240.6263  398.7554 -116.5498 LP  0  0  0  0  0  0  0  0  0  0  0  0  # atno 27321 bound_to 10072
  238.5830  398.5169 -115.0582 LP  0  0  0  0  0  0  0  0  0  0  0  0  # atno 27322 bound_to 10075
  237.3376  399.5766 -114.4872 LP  0  0  0  0  0  0  0  0  0  0  0  0  # atno 27323 bound_to 10075
  228.3095  394.8073 -112.7492 LP  0  0  0  0  0  0  0  0  0  0  0  0  # atno 27324 bound_to 11354
  227.8143  394.9778 -111.0983 LP  0  0  0  0  0  0  0  0  0  0  0  0  # atno 27325 bound_to 11354
  225.6567  392.3768 -120.3082 LP  0  0  0  0  0  0  0  0  0  0  0  0  # atno 27328 bound_to 16904
  226.1539  393.5723 -119.3131 LP  0  0  0  0  0  0  0  0  0  0  0  0  # atno 27329 bound_to 16904
  223.0261  393.5495 -112.8931 LP  0  0  0  0  0  0  0  0  0  0  0  0  # atno 27333 bound_to 11356
  224.1844  392.4792 -113.3165 LP  0  0  0  0  0  0  0  0  0  0  0  0  # atno 27334 bound_to 11356
  225.1779  395.7452 -113.8693 LP  0  0  0  0  0  0  0  0  0  0  0  0  # atno 27335 bound_to 11404
  231.6861  386.7350 -108.6021 LP  0  0  0  0  0  0  0  0  0  0  0  0  # atno 27336 bound_to 26007
  230.3599  385.8043 -108.3982 LP  0  0  0  0  0  0  0  0  0  0  0  0  # atno 27337 bound_to 26007
  236.6886  384.6068 -113.0071 LP  0  0  0  0  0  0  0  0  0  0  0  0  # atno 27338 bound_to 7265
  237.6323  383.2315 -113.4740 LP  0  0  0  0  0  0  0  0  0  0  0  0  # atno 27339 bound_to 7265
  229.2941  396.9003 -109.1980 LP  0  0  0  0  0  0  0  0  0  0  0  0  # atno 27343 bound_to 17273
  229.7104  395.5349 -106.7042 LP  0  0  0  0  0  0  0  0  0  0  0  0  # atno 27344 bound_to 17329
  231.0499  382.1828 -104.3737 LP  0  0  0  0  0  0  0  0  0  0  0  0  # atno 27345 bound_to 2414
  230.3642  382.7464 -105.8610 LP  0  0  0  0  0  0  0  0  0  0  0  0  # atno 27346 bound_to 2414
  232.6449  390.6456 -103.6832 LP  0  0  0  0  0  0  0  0  0  0  0  0  # atno 27347 bound_to 25996
  227.7807  394.5121 -105.5612 LP  0  0  0  0  0  0  0  0  0  0  0  0  # atno 27348 bound_to 17276
  229.3982  394.2981 -104.9799 LP  0  0  0  0  0  0  0  0  0  0  0  0  # atno 27349 bound_to 17276

> <Gold.Score>
     Fitness  S(hb_ext) S(vdw_ext)  S(hb_int)    S(int)      intcor
     39.38       0.41      28.39       0.00      -0.07      -0.76

> <Gold.Goldscore.Fitness>
39.3755

> <Gold.Goldscore.Internal.Vdw>
-0.3519

> <Gold.Goldscore.Internal.Torsion>
-0.4790

> <Gold.Goldscore.External.Vdw>
28.3864

> <Gold.Goldscore.Internal.HBond>
0.0000

> <Gold.Goldscore.External.HBond>
0.4134

> <Gold.Goldscore.Internal.Correction>
-0.7617

> <Gold.Goldscore.Hbonds>
donor molecule, donor type, donor heavy atom, donor atom, acceptor molecule, acceptor atom, score
      L1  H    10    23       P1 17069  0.21

> <Gold.Goldscore.Internal.Vdw.Weighted>
-0.3519

> <Gold.Goldscore.Internal.Torsion.Weighted>
-0.4790

> <Gold.Goldscore.External.Vdw.Weighted>
39.0313

> <Gold.Goldscore.Internal.HBond.Weighted>
0.0000

> <Gold.Goldscore.External.HBond.Weighted>
0.4134

> <Gold.Goldscore.Internal.Correction.Weighted>
-0.7617

> <Gold.Rescore>
     Score     S(PLP)   S(hbond)     S(cho)   S(metal)  DE(clash)   DE(tors)     intcor
     24.61     -25.06       0.17       0.00       0.00       0.00       0.48       ----

> <Gold.PLP.Fitness>
24.6141

> <Gold.PLP.PLP>
-25.0586

> <Gold.PLP.part.hbond>
-3.8480

> <Gold.PLP.part.metal>
0.0000

> <Gold.PLP.part.buried>
14.2731

> <Gold.PLP.part.nonpolar>
-38.7640

> <Gold.PLP.part.repulsive>
1.2161

> <Gold.PLP.ligand.clash>
0.0000

> <Gold.PLP.ligand.torsion>
0.4789

> <Gold.PLP.Chemscore.Hbond>
0.1711

> <Gold.PLP.Chemscore.CHOScore>
0.0000

> <Gold.PLP.Chemscore.Metal>
0.0000

> <Gold.Chemscore.Hbonds>
donor molecule, donor type, donor heavy atom, donor atom, acceptor molecule, acceptor atom, score
      L1  H    10    23       P1 17069  0.32

> <Gold.PLP.Chemscore.Internal.Correction>
   9.000000E+99

