#       Name:                CT1002167954
#       Creating user name   hitesit
#       Creation time:       Sun Apr 16 02:35:17 2023


#       File generated by GOLD software.
#

@<TRIPOS>MOLECULE
CT1002167954|ligand_prepared|mol2|1|dock7
    29    30     1
SMALL
NO_CHARGES


@<TRIPOS>ATOM
      1 C1         227.4498 386.6016 -113.4891 C.3            1 RES1               0.0000
      2 C2         228.7111 387.3207 -112.9687 C.ar           1 RES1               0.0000
      3 C3         227.8944 385.2016 -113.9020 C.2            1 RES1               0.0000
      4 C4         226.4437 386.6224 -112.3437 C.2            1 RES1               0.0000
      5 C5         226.7974 387.2900 -114.7107 C.3            1 RES1               0.0000
      6 C6         229.1224 387.1636 -111.6485 C.ar           1 RES1               0.0000
      7 C7         229.4737 388.1408 -113.7961 C.ar           1 RES1               0.0000
      8 N8         227.5400 384.1620 -113.0935 N.am           1 RES1               0.0000
      9 O9         228.5792 385.0171 -114.9006 O.2            1 RES1               0.0000
     10 N10        226.0886 385.4253 -111.7792 N.am           1 RES1               0.0000
     11 O11        225.9678 387.6660 -111.9140 O.2            1 RES1               0.0000
     12 C12        225.4182 386.7499 -115.0546 C.3            1 RES1               0.0000
     13 C13        230.2567 387.8008 -111.1734 C.ar           1 RES1               0.0000
     14 C14        230.6076 388.7772 -113.3188 C.ar           1 RES1               0.0000
     15 C15        226.6144 384.1988 -112.0818 C.2            1 RES1               0.0000
     16 C16        231.0002 388.6076 -112.0081 C.ar           1 RES1               0.0000
     17 O17        226.2836 383.1741 -111.4922 O.2            1 RES1               0.0000
     18 H18        226.7153 388.3650 -114.5080 H              1 RES1               0.0000
     19 H19        227.4536 387.1619 -115.5804 H              1 RES1               0.0000
     20 H20        228.5486 386.5345 -110.9762 H              1 RES1               0.0000
     21 H21        229.1832 388.2897 -114.8305 H              1 RES1               0.0000
     22 H22        228.0064 383.2753 -113.2562 H              1 RES1               0.0000
     23 H23        225.3652 385.4509 -111.0676 H              1 RES1               0.0000
     24 H24        225.0060 387.2670 -115.9185 H              1 RES1               0.0000
     25 H25        225.4665 385.6880 -115.2864 H              1 RES1               0.0000
     26 H26        224.7325 386.8839 -114.2205 H              1 RES1               0.0000
     27 H27        230.5607 387.6651 -110.1407 H              1 RES1               0.0000
     28 H28        231.1894 389.4118 -113.9792 H              1 RES1               0.0000
     29 H29        231.8889 389.1063 -111.6358 H              1 RES1               0.0000
@<TRIPOS>BOND
    1    1    2 1     
    2    1    3 1     
    3    1    4 1     
    4    1    5 1     
    5    2    6 ar    
    6    2    7 ar    
    7    3    8 1     
    8    3    9 2     
    9    4   10 1     
   10    4   11 2     
   11    5   12 1     
   12    5   18 1     
   13    5   19 1     
   14    6   13 ar    
   15    6   20 1     
   16    7   14 ar    
   17    7   21 1     
   18    8   15 1     
   19    8   22 1     
   20   10   15 1     
   21   10   23 1     
   22   12   24 1     
   23   12   25 1     
   24   12   26 1     
   25   13   16 ar    
   26   13   27 1     
   27   14   16 ar    
   28   14   28 1     
   29   15   17 2     
   30   16   29 1     
@<TRIPOS>SUBSTRUCTURE
      1 RES1           1
@<TRIPOS>SET
DONOR_HYDROGENS      STATIC     ATOMS    <user>   **** ""
2 22 23
ATOM$RED        STATIC     ATOMS    COLORGROUP SYSTEM
2 22 23
@<TRIPOS>COMMENT
> <Gold.Version>
2022.3.0

> <Gold.Id.Protein>
unknown|7ts3_clean|pdb

> <Gold.Protein.RotatedTorsions>
[ 17136 17116 17117 17118 ] final   92.24 input   42.97 | X-H torsion
[ 17196 17162 17163 17164 ] final  168.07 input  102.93 | X-H torsion
[ 18266 18253 18254 18255 ] final  117.99 input   38.47 | X-H torsion
[ 18355 18311 18312 18313 ] final  -89.17 input   32.37 | X-H torsion
[ 18440 18401 18402 18403 ] final  119.08 input  104.02 | X-H torsion
[ 18448 18412 18411 18409 ] final  -59.51 input   60.03 | X-H torsion
[ 18508 18473 18474 18475 ] final   15.37 input   98.64 | X-H torsion
[ 18655 18628 18629 18630 ] final  -39.08 input  122.95 | X-H torsion
[ 7402 7386 7387 7388 ] final   30.35 input  101.82 | X-H torsion
[ 7448 7441 7442 7443 ] final  148.12 input   81.00 | X-H torsion
[ 18236 18215 18216 18217 ] final   28.29 input   34.45 | X-H torsion
[ 18542 18529 18530 18531 ] final   89.54 input  116.11 | X-H torsion
[ 10056 10030 10029 10026 ] final  -12.34 input   60.02 | X-H torsion
[ 18240 18220 18219 18216 ] final -135.14 input   59.98 | X-H torsion
[ 18188 18150 18151 18152 ] final   98.09 input   43.88 | X-H torsion
[ 17244 17223 17224 17225 ] final -109.10 input   49.67 | X-H torsion
[ 10092 10072 10073 10074 ] final  159.05 input   21.26 | X-H torsion
[ 16940 16904 16903 16901 ] final   27.64 input   59.97 | X-H torsion
[ 11376 11356 11355 11352 ] final  -93.26 input   60.02 | X-H torsion
[ 11437 11404 11405 11406 ] final -151.59 input   53.40 | X-H torsion
[ 26042 26007 26006 26004 ] final   75.42 input   59.98 | X-H torsion
[ 17299 17273 17274 17275 ] final   85.96 input   71.10 | X-H torsion
[ 17364 17329 17330 17331 ] final  -51.44 input   83.79 | X-H torsion
[ 26034 25996 25997 25998 ] final -135.70 input  104.01 | X-H torsion
[ 18726 18685 18686 18687 ] final   87.68 input   93.05 | X-H torsion
[ 22392 22358 22359 22360 ] final   34.15 input   47.29 | X-H torsion
[ 27272 17069 17068 17067 ] final   -5.47 input   -0.00 | X-H torsion
[ 27276 18153 18152 18151 ] final  158.02 input   -0.00 | X-H torsion
[ 27279 18256 18255 18254 ] final  166.37 input   -0.00 | X-H torsion
[ 27282 18314 18313 18312 ] final  121.60 input    0.00 | X-H torsion
[ 27285 18404 18403 18402 ] final   92.10 input   -0.00 | X-H torsion
[ 27290 18476 18475 18474 ] final   77.29 input   -0.00 | X-H torsion
[ 27304 18218 18217 18216 ] final  177.94 input   -0.00 | X-H torsion
[ 27306 16956 16955 16954 ] final -178.73 input   -0.00 | X-H torsion
[ 27311 16996 16995 16994 ] final  -27.92 input    0.00 | X-H torsion
[ 27315 17119 17118 17117 ] final  -63.56 input    0.00 | X-H torsion
[ 27317 17165 17164 17163 ] final  132.40 input    0.00 | X-H torsion
[ 27322 10075 10074 10073 ] final -159.33 input   -0.00 | X-H torsion
[ 27324 11354 11353 11352 ] final  162.41 input    0.00 | X-H torsion
[ 27338 7265 7264 7263 ] final  -54.42 input   -0.00 | X-H torsion
[ 27345 2414 2413 2412 ] final  -68.38 input    0.00 | X-H torsion
[ 27348 17276 17275 17274 ] final   88.49 input   -0.00 | X-H torsion

> <Gold.Protein.ActiveResidues>
 MET341  HIS342  TRP414  ARG419  CYS420  VAL421  GLY422  LEU429  LEU460  SER462 
 ALA463  ILE464  SER482  GLN483  ARG486  TYR567  GLY568  LEU569  PRO570  ALA571 
 VAL572  SER573  ASN574  MET575  PRO588  PHE589  SER590  GLY591  TRP592  TYR593 
 MET594  GLY595  GLU597  ILE598  ARG601  ASP602  ARG608  ILE653  VAL654  TRP683 
 PHE709  TYR711  HEM801  H4B802 

> <Gold.Protein.RotatedAtoms>
  239.6486  385.8111 -115.5974 H   0  0  0  0  0  0  0  0  0  0  0  0  # atno 7402 bound_to 7386
  240.5129  386.4597 -117.1247 H   0  0  0  0  0  0  0  0  0  0  0  0  # atno 7448 bound_to 7441
  241.1492  396.0268 -119.3758 H   0  0  0  0  0  0  0  0  0  0  0  0  # atno 10056 bound_to 10030
  240.2923  399.6398 -117.7482 H   0  0  0  0  0  0  0  0  0  0  0  0  # atno 10092 bound_to 10072
  223.0521  393.6473 -112.9143 H   0  0  0  0  0  0  0  0  0  0  0  0  # atno 11376 bound_to 11356
  226.4051  394.9416 -112.9317 H   0  0  0  0  0  0  0  0  0  0  0  0  # atno 11437 bound_to 11404
  226.9915  393.3259 -119.3899 H   0  0  0  0  0  0  0  0  0  0  0  0  # atno 16940 bound_to 16904
  230.8478  396.0470 -118.2145 H   0  0  0  0  0  0  0  0  0  0  0  0  # atno 17136 bound_to 17116
  232.0633  394.8185 -115.1132 H   0  0  0  0  0  0  0  0  0  0  0  0  # atno 17196 bound_to 17162
  230.8868  396.0152 -111.7512 H   0  0  0  0  0  0  0  0  0  0  0  0  # atno 17244 bound_to 17223
  228.9627  395.2788 -109.7524 H   0  0  0  0  0  0  0  0  0  0  0  0  # atno 17299 bound_to 17273
  229.7719  395.6531 -106.7237 H   0  0  0  0  0  0  0  0  0  0  0  0  # atno 17364 bound_to 17329
  234.2337  397.7616 -111.6647 H   0  0  0  0  0  0  0  0  0  0  0  0  # atno 18188 bound_to 18150
  237.1419  397.8342 -115.2514 H   0  0  0  0  0  0  0  0  0  0  0  0  # atno 18236 bound_to 18215
  235.7284  400.0308 -117.6937 H   0  0  0  0  0  0  0  0  0  0  0  0  # atno 18240 bound_to 18220
  236.6818  395.0039 -117.5526 H   0  0  0  0  0  0  0  0  0  0  0  0  # atno 18266 bound_to 18253
  237.0215  393.9629 -120.3118 H   0  0  0  0  0  0  0  0  0  0  0  0  # atno 18355 bound_to 18311
  235.1353  392.2680 -123.7415 H   0  0  0  0  0  0  0  0  0  0  0  0  # atno 18440 bound_to 18401
  229.0711  392.6710 -120.7116 H   0  0  0  0  0  0  0  0  0  0  0  0  # atno 18448 bound_to 18412
  234.7445  388.3228 -122.8527 H   0  0  0  0  0  0  0  0  0  0  0  0  # atno 18508 bound_to 18473
  235.4437  384.9260 -125.4592 H   0  0  0  0  0  0  0  0  0  0  0  0  # atno 18542 bound_to 18529
  230.9984  383.7810 -123.3032 H   0  0  0  0  0  0  0  0  0  0  0  0  # atno 18655 bound_to 18628
  230.2691  386.0325 -124.0951 H   0  0  0  0  0  0  0  0  0  0  0  0  # atno 18726 bound_to 18685
  237.3562  388.2682 -126.3862 H   0  0  0  0  0  0  0  0  0  0  0  0  # atno 22392 bound_to 22358
  232.6047  390.3025 -103.9232 H   0  0  0  0  0  0  0  0  0  0  0  0  # atno 26034 bound_to 25996
  230.6389  385.3210 -108.0095 H   0  0  0  0  0  0  0  0  0  0  0  0  # atno 26042 bound_to 26007
  234.3456  394.8962 -118.8854 LP  0  0  0  0  0  0  0  0  0  0  0  0  # atno 27272 bound_to 17069
  234.0696  395.9417 -117.5324 LP  0  0  0  0  0  0  0  0  0  0  0  0  # atno 27273 bound_to 17069
  232.0834  394.9091 -117.7188 LP  0  0  0  0  0  0  0  0  0  0  0  0  # atno 27274 bound_to 17116
  231.9844  396.4631 -114.5205 LP  0  0  0  0  0  0  0  0  0  0  0  0  # atno 27275 bound_to 17162
  233.9002  396.5336 -115.4429 LP  0  0  0  0  0  0  0  0  0  0  0  0  # atno 27276 bound_to 18153
  233.8529  396.3528 -113.7210 LP  0  0  0  0  0  0  0  0  0  0  0  0  # atno 27277 bound_to 18153
  236.5433  396.4353 -118.5546 LP  0  0  0  0  0  0  0  0  0  0  0  0  # atno 27278 bound_to 18253
  236.8134  395.6976 -122.1638 LP  0  0  0  0  0  0  0  0  0  0  0  0  # atno 27279 bound_to 18256
  236.7409  396.6132 -120.6953 LP  0  0  0  0  0  0  0  0  0  0  0  0  # atno 27280 bound_to 18256
  238.5647  393.4741 -120.9653 LP  0  0  0  0  0  0  0  0  0  0  0  0  # atno 27281 bound_to 18311
  236.3476  390.5932 -120.8386 LP  0  0  0  0  0  0  0  0  0  0  0  0  # atno 27282 bound_to 18314
  237.9379  390.8815 -121.4614 LP  0  0  0  0  0  0  0  0  0  0  0  0  # atno 27283 bound_to 18314
  236.3919  391.6816 -122.6781 LP  0  0  0  0  0  0  0  0  0  0  0  0  # atno 27284 bound_to 18401
  237.4341  389.5641 -124.5506 LP  0  0  0  0  0  0  0  0  0  0  0  0  # atno 27285 bound_to 18404
  236.1205  389.1000 -125.5797 LP  0  0  0  0  0  0  0  0  0  0  0  0  # atno 27286 bound_to 18404
  228.7799  391.1035 -120.3862 LP  0  0  0  0  0  0  0  0  0  0  0  0  # atno 27287 bound_to 18412
  228.1632  391.7888 -121.7340 LP  0  0  0  0  0  0  0  0  0  0  0  0  # atno 27288 bound_to 18412
  236.4752  388.5192 -122.6895 LP  0  0  0  0  0  0  0  0  0  0  0  0  # atno 27289 bound_to 18473
  233.1345  387.5031 -123.8785 LP  0  0  0  0  0  0  0  0  0  0  0  0  # atno 27290 bound_to 18476
  232.9559  385.8836 -123.2910 LP  0  0  0  0  0  0  0  0  0  0  0  0  # atno 27291 bound_to 18476
  232.3934  384.5907 -122.6380 LP  0  0  0  0  0  0  0  0  0  0  0  0  # atno 27292 bound_to 18628
  239.7649  384.3717 -114.6157 LP  0  0  0  0  0  0  0  0  0  0  0  0  # atno 27301 bound_to 7386
  241.9893  386.1605 -116.2449 LP  0  0  0  0  0  0  0  0  0  0  0  0  # atno 27302 bound_to 7441
  235.5236  397.4576 -114.7160 LP  0  0  0  0  0  0  0  0  0  0  0  0  # atno 27303 bound_to 18215
  239.0932  396.5373 -117.4753 LP  0  0  0  0  0  0  0  0  0  0  0  0  # atno 27304 bound_to 18218
  238.3297  397.6110 -116.3509 LP  0  0  0  0  0  0  0  0  0  0  0  0  # atno 27305 bound_to 18218
  233.4952  395.2870 -123.7054 LP  0  0  0  0  0  0  0  0  0  0  0  0  # atno 27306 bound_to 16956
  233.4421  394.8116 -125.3701 LP  0  0  0  0  0  0  0  0  0  0  0  0  # atno 27307 bound_to 16956
  234.7512  386.3889 -124.8075 LP  0  0  0  0  0  0  0  0  0  0  0  0  # atno 27308 bound_to 18529
  241.7159  395.1265 -118.1445 LP  0  0  0  0  0  0  0  0  0  0  0  0  # atno 27309 bound_to 10030
  242.7545  395.8521 -119.1748 LP  0  0  0  0  0  0  0  0  0  0  0  0  # atno 27310 bound_to 10030
  230.2986  397.4869 -120.8940 LP  0  0  0  0  0  0  0  0  0  0  0  0  # atno 27311 bound_to 16996
  230.0090  395.8604 -120.3741 LP  0  0  0  0  0  0  0  0  0  0  0  0  # atno 27312 bound_to 16996
  236.4752  399.0957 -118.7965 LP  0  0  0  0  0  0  0  0  0  0  0  0  # atno 27313 bound_to 18220
  236.9401  399.0476 -117.2318 LP  0  0  0  0  0  0  0  0  0  0  0  0  # atno 27314 bound_to 18220
  229.8502  397.6704 -115.0181 LP  0  0  0  0  0  0  0  0  0  0  0  0  # atno 27315 bound_to 17119
  229.2659  396.0417 -115.0934 LP  0  0  0  0  0  0  0  0  0  0  0  0  # atno 27316 bound_to 17119
  232.1472  397.7466 -111.8658 LP  0  0  0  0  0  0  0  0  0  0  0  0  # atno 27317 bound_to 17165
  233.0057  396.2515 -111.6993 LP  0  0  0  0  0  0  0  0  0  0  0  0  # atno 27318 bound_to 17165
  234.0123  399.1953 -112.6423 LP  0  0  0  0  0  0  0  0  0  0  0  0  # atno 27319 bound_to 18150
  229.1578  395.9140 -111.9735 LP  0  0  0  0  0  0  0  0  0  0  0  0  # atno 27320 bound_to 17223
  239.8088  398.6189 -116.4190 LP  0  0  0  0  0  0  0  0  0  0  0  0  # atno 27321 bound_to 10072
  237.5185  399.4001 -114.1170 LP  0  0  0  0  0  0  0  0  0  0  0  0  # atno 27322 bound_to 10075
  238.4021  398.6933 -115.4284 LP  0  0  0  0  0  0  0  0  0  0  0  0  # atno 27323 bound_to 10075
  228.3192  394.8644 -112.7502 LP  0  0  0  0  0  0  0  0  0  0  0  0  # atno 27324 bound_to 11354
  227.8046  394.9207 -111.0973 LP  0  0  0  0  0  0  0  0  0  0  0  0  # atno 27325 bound_to 11354
  226.6183  392.0975 -120.3898 LP  0  0  0  0  0  0  0  0  0  0  0  0  # atno 27328 bound_to 16904
  225.4399  393.0653 -119.8056 LP  0  0  0  0  0  0  0  0  0  0  0  0  # atno 27329 bound_to 16904
  224.0957  392.4515 -113.2713 LP  0  0  0  0  0  0  0  0  0  0  0  0  # atno 27333 bound_to 11356
  224.4699  394.0001 -113.6298 LP  0  0  0  0  0  0  0  0  0  0  0  0  # atno 27334 bound_to 11356
  225.1933  395.8790 -113.7751 LP  0  0  0  0  0  0  0  0  0  0  0  0  # atno 27335 bound_to 11404
  232.1617  385.8884 -107.9300 LP  0  0  0  0  0  0  0  0  0  0  0  0  # atno 27336 bound_to 26007
  231.0262  386.7042 -108.7736 LP  0  0  0  0  0  0  0  0  0  0  0  0  # atno 27337 bound_to 26007
  237.3379  383.0742 -113.1722 LP  0  0  0  0  0  0  0  0  0  0  0  0  # atno 27338 bound_to 7265
  236.9831  384.7640 -113.3090 LP  0  0  0  0  0  0  0  0  0  0  0  0  # atno 27339 bound_to 7265
  229.2942  396.9003 -109.1980 LP  0  0  0  0  0  0  0  0  0  0  0  0  # atno 27343 bound_to 17273
  230.5937  394.8290 -108.0192 LP  0  0  0  0  0  0  0  0  0  0  0  0  # atno 27344 bound_to 17329
  231.2063  381.7722 -104.9713 LP  0  0  0  0  0  0  0  0  0  0  0  0  # atno 27345 bound_to 2414
  230.2079  383.1571 -105.2634 LP  0  0  0  0  0  0  0  0  0  0  0  0  # atno 27346 bound_to 2414
  232.3785  389.7775 -102.2723 LP  0  0  0  0  0  0  0  0  0  0  0  0  # atno 27347 bound_to 25996
  228.4520  393.6431 -105.6584 LP  0  0  0  0  0  0  0  0  0  0  0  0  # atno 27348 bound_to 17276
  228.7269  395.1671 -104.8827 LP  0  0  0  0  0  0  0  0  0  0  0  0  # atno 27349 bound_to 17276

> <Gold.Score>
     Fitness  S(hb_ext) S(vdw_ext)  S(hb_int)    S(int)      intcor
     26.77       6.00      15.26       0.00      -0.21      -0.76

> <Gold.Goldscore.Fitness>
26.7687

> <Gold.Goldscore.Internal.Vdw>
-0.4062

> <Gold.Goldscore.Internal.Torsion>
-0.5654

> <Gold.Goldscore.External.Vdw>
15.2595

> <Gold.Goldscore.Internal.HBond>
0.0000

> <Gold.Goldscore.External.HBond>
6.0000

> <Gold.Goldscore.Internal.Correction>
-0.7585

> <Gold.Goldscore.Hbonds>
donor molecule, donor type, donor heavy atom, donor atom, acceptor molecule, acceptor atom, score
      L1  H     8    22       P1 27163  1.00

> <Gold.Goldscore.Internal.Vdw.Weighted>
-0.4062

> <Gold.Goldscore.Internal.Torsion.Weighted>
-0.5654

> <Gold.Goldscore.External.Vdw.Weighted>
20.9819

> <Gold.Goldscore.Internal.HBond.Weighted>
0.0000

> <Gold.Goldscore.External.HBond.Weighted>
6.0000

> <Gold.Goldscore.Internal.Correction.Weighted>
-0.7585

> <Gold.Rescore>
     Score     S(PLP)   S(hbond)     S(cho)   S(metal)  DE(clash)   DE(tors)     intcor
     16.83     -15.02       0.95       0.00       0.00       0.00       0.52       ----

> <Gold.PLP.Fitness>
16.8327

> <Gold.PLP.PLP>
-15.0174

> <Gold.PLP.part.hbond>
-1.0000

> <Gold.PLP.part.metal>
0.0000

> <Gold.PLP.part.buried>
-3.3146

> <Gold.PLP.part.nonpolar>
-14.3720

> <Gold.PLP.part.repulsive>
3.2122

> <Gold.PLP.ligand.clash>
0.0000

> <Gold.PLP.ligand.torsion>
0.5197

> <Gold.PLP.Chemscore.Hbond>
0.9516

> <Gold.PLP.Chemscore.CHOScore>
0.0000

> <Gold.PLP.Chemscore.Metal>
0.0000

> <Gold.Chemscore.Hbonds>
donor molecule, donor type, donor heavy atom, donor atom, acceptor molecule, acceptor atom, score
      L1  H     8    22       P1 27163  0.83

> <Gold.PLP.Chemscore.Internal.Correction>
   9.000000E+99

