#       Name:                CT1002167954
#       Creating user name   hitesit
#       Creation time:       Sun Apr 16 20:33:15 2023


#       File generated by GOLD software.
#

@<TRIPOS>MOLECULE
CT1002167954|ligand_prepared|mol2|1|dock6
    29    30     1
SMALL
NO_CHARGES


@<TRIPOS>ATOM
      1 C1         250.2719  18.9140  34.9797 C.3            1 RES1               0.0000
      2 C2         250.2972  17.3726  35.0258 C.ar           1 RES1               0.0000
      3 C3         251.1320  19.3211  33.7869 C.2            1 RES1               0.0000
      4 C4         248.8057  19.3131  34.8544 C.2            1 RES1               0.0000
      5 C5         250.8433  19.5866  36.2496 C.3            1 RES1               0.0000
      6 C6         249.9538  16.6928  36.1906 C.ar           1 RES1               0.0000
      7 C7         250.6585  16.6180  33.9129 C.ar           1 RES1               0.0000
      8 N8         250.4917  19.7793  32.6733 N.am           1 RES1               0.0000
      9 O9         252.3511  19.2046  33.8087 O.2            1 RES1               0.0000
     10 N10        248.4047  19.9303  33.6986 N.am           1 RES1               0.0000
     11 O11        247.9906  19.0837  35.7395 O.2            1 RES1               0.0000
     12 C12        251.0060  21.0933  36.1251 C.3            1 RES1               0.0000
     13 C13        249.9682  15.3088  36.2402 C.ar           1 RES1               0.0000
     14 C14        250.6724  15.2339  33.9647 C.ar           1 RES1               0.0000
     15 C15        249.1748  20.1538  32.5898 C.2            1 RES1               0.0000
     16 C16        250.3270  14.5784  35.1273 C.ar           1 RES1               0.0000
     17 O17        248.7282  20.6655  31.5671 O.2            1 RES1               0.0000
     18 H18        250.1761  19.3720  37.0934 H              1 RES1               0.0000
     19 H19        251.8213  19.1433  36.4743 H              1 RES1               0.0000
     20 H20        249.6711  17.2507  37.0771 H              1 RES1               0.0000
     21 H21        250.9350  17.1123  32.9878 H              1 RES1               0.0000
     22 H22        251.0431  19.8498  31.8240 H              1 RES1               0.0000
     23 H23        247.4431  20.2532  33.6613 H              1 RES1               0.0000
     24 H24        251.4102  21.5148  37.0431 H              1 RES1               0.0000
     25 H25        251.6836  21.3421  35.3109 H              1 RES1               0.0000
     26 H26        250.0481  21.5695  35.9264 H              1 RES1               0.0000
     27 H27        249.6968  14.7977  37.1580 H              1 RES1               0.0000
     28 H28        250.9561  14.6632  33.0866 H              1 RES1               0.0000
     29 H29        250.3378  13.4942  35.1663 H              1 RES1               0.0000
@<TRIPOS>BOND
    1    1    2 1     
    2    1    3 1     
    3    1    4 1     
    4    1    5 1     
    5    2    6 ar    
    6    2    7 ar    
    7    3    8 1     
    8    3    9 2     
    9    4   10 1     
   10    4   11 2     
   11    5   12 1     
   12    5   18 1     
   13    5   19 1     
   14    6   13 ar    
   15    6   20 1     
   16    7   14 ar    
   17    7   21 1     
   18    8   15 1     
   19    8   22 1     
   20   10   15 1     
   21   10   23 1     
   22   12   24 1     
   23   12   25 1     
   24   12   26 1     
   25   13   16 ar    
   26   13   27 1     
   27   14   16 ar    
   28   14   28 1     
   29   15   17 2     
   30   16   29 1     
@<TRIPOS>SUBSTRUCTURE
      1 RES1           1
@<TRIPOS>SET
DONOR_HYDROGENS      STATIC     ATOMS    <user>   **** ""
2 22 23
ATOM$RED        STATIC     ATOMS    COLORGROUP SYSTEM
2 22 23
@<TRIPOS>COMMENT
> <Gold.Version>
2022.3.0

> <Gold.Id.Protein>
unknown|4d1n_clean|pdb

> <Gold.Protein.RotatedTorsions>
[ 17004 16968 16967 16965 ] final   46.44 input   59.98 | X-H torsion
[ 18512 18476 18475 18473 ] final   71.93 input   59.98 | X-H torsion
[ 18572 18537 18538 18539 ] final   12.36 input   87.04 | X-H torsion
[ 18719 18692 18693 18694 ] final  -48.56 input  124.02 | X-H torsion
[ 18790 18749 18750 18751 ] final   79.58 input   91.60 | X-H torsion
[ 19033 19013 19014 19015 ] final  -78.88 input  122.46 | X-H torsion
[ 17200 17180 17181 17182 ] final  -82.50 input   47.21 | X-H torsion
[ 17260 17226 17227 17228 ] final -139.52 input  117.85 | X-H torsion
[ 18826 18813 18814 18815 ] final  -45.65 input  116.01 | X-H torsion
[ 18976 18926 18927 18928 ] final  -79.87 input  102.20 | X-H torsion
[ 19112 19073 19074 19075 ] final  -73.09 input   89.03 | X-H torsion
[ 18504 18465 18466 18467 ] final   91.68 input  102.26 | X-H torsion
[ 18300 18279 18280 18281 ] final   97.81 input   28.27 | X-H torsion
[ 18330 18317 18318 18319 ] final  174.77 input   50.43 | X-H torsion
[ 18419 18375 18376 18377 ] final  -50.71 input   32.92 | X-H torsion
[ 7530 7517 7518 7519 ] final  -55.93 input   89.56 | X-H torsion
[ 7496 7462 7463 7464 ] final  174.96 input  103.52 | X-H torsion
[ 18606 18593 18594 18595 ] final  143.01 input  124.70 | X-H torsion
[ 10120 10100 10099 10096 ] final   -2.20 input   60.00 | X-H torsion
[ 18304 18284 18283 18280 ] final -151.38 input   60.01 | X-H torsion
[ 11501 11468 11469 11470 ] final   53.17 input   45.03 | X-H torsion
[ 18664 18636 18634 18631 ] final -158.72 input   60.01 | X-H torsion
[ 18884 18850 18851 18852 ] final  -50.34 input   84.91 | X-H torsion
[ 17308 17287 17288 17289 ] final -164.26 input   50.16 | X-H torsion
[ 22456 22422 22423 22424 ] final -158.99 input   54.84 | X-H torsion
[ 11440 11420 11419 11416 ] final   15.23 input   60.01 | X-H torsion
[ 11650 11609 11610 11611 ] final   36.73 input   61.57 | X-H torsion
[ 11832 11793 11794 11795 ] final  -54.86 input   91.14 | X-H torsion
[ 16996 16957 16958 16959 ] final  -36.11 input   91.87 | X-H torsion
[ 27198 18540 18539 18538 ] final  -66.21 input   -0.00 | X-H torsion
[ 27200 18633 18632 18631 ] final  132.15 input    0.00 | X-H torsion
[ 27203 18695 18694 18693 ] final  160.01 input   -0.00 | X-H torsion
[ 27222 17133 17132 17131 ] final  155.77 input    0.00 | X-H torsion
[ 27226 11612 11611 11610 ] final  165.99 input    0.00 | X-H torsion
[ 27230 17060 17059 17058 ] final  146.17 input   -0.00 | X-H torsion
[ 27232 18752 18751 18750 ] final   41.91 input    0.00 | X-H torsion
[ 27234 18596 18595 18594 ] final  -80.19 input   -0.00 | X-H torsion
[ 27238 18929 18928 18927 ] final   97.24 input   -0.00 | X-H torsion
[ 27240 19016 19015 19014 ] final -151.38 input   -0.00 | X-H torsion
[ 27243 11418 11417 11416 ] final    2.07 input    0.00 | X-H torsion
[ 27245 17183 17182 17181 ] final  168.37 input   -0.00 | X-H torsion
[ 27247 18378 18377 18376 ] final -103.22 input   -0.00 | X-H torsion
[ 27250 18217 18216 18215 ] final    4.72 input    0.00 | X-H torsion
[ 27254 17229 17228 17227 ] final  -76.28 input   -0.00 | X-H torsion
[ 27259 18320 18319 18318 ] final   85.24 input    0.00 | X-H torsion
[ 27261 18468 18467 18466 ] final -129.67 input    0.00 | X-H torsion
[ 27264 18282 18281 18280 ] final   -8.46 input   -0.00 | X-H torsion
[ 27267 17020 17019 17018 ] final   26.37 input   -0.00 | X-H torsion
[ 27275 16960 16959 16958 ] final  130.56 input    0.00 | X-H torsion

> <Gold.Protein.ActiveResidues>
 TRP414  CYS420  VAL421  GLY422  LEU460  SER462  SER482  GLN483  ILE485  ARG486 
 TYR487  ASP500  ASN503  TRP566  TYR567  GLY568  LEU569  PRO570  ALA571  VAL572 
 SER573  ASN574  PHE589  SER590  GLY591  TRP592  TYR593  MET594  GLY595  THR596 
 GLU597  ILE598  GLY599  VAL600  ARG601  ASP602  TYR603  ARG608  ILE653  VAL654 
 TRP683  PRO687  HEM750  H4B760 

> <Gold.Protein.RotatedAtoms>
  240.7987   11.5740   32.1205 H   0  0  0  0  0  0  0  0  0  0  0  0  # atno 7496 bound_to 7462
  241.0407    8.1522   31.4706 H   0  0  0  0  0  0  0  0  0  0  0  0  # atno 7530 bound_to 7517
  248.9413    2.1258   35.9415 H   0  0  0  0  0  0  0  0  0  0  0  0  # atno 10120 bound_to 10100
  254.7508   18.4720   41.7413 H   0  0  0  0  0  0  0  0  0  0  0  0  # atno 11440 bound_to 11420
  255.2951   16.5809   42.1356 H   0  0  0  0  0  0  0  0  0  0  0  0  # atno 11501 bound_to 11468
  257.4224   12.6088   40.4398 H   0  0  0  0  0  0  0  0  0  0  0  0  # atno 11650 bound_to 11609
  260.8182   17.7884   38.4688 H   0  0  0  0  0  0  0  0  0  0  0  0  # atno 11832 bound_to 11793
  260.3879   12.4061   31.0114 H   0  0  0  0  0  0  0  0  0  0  0  0  # atno 16996 bound_to 16957
  256.0604   14.8786   36.6052 H   0  0  0  0  0  0  0  0  0  0  0  0  # atno 17004 bound_to 16968
  252.8989   10.7718   37.8915 H   0  0  0  0  0  0  0  0  0  0  0  0  # atno 17200 bound_to 17180
  252.0739   11.8917   39.8458 H   0  0  0  0  0  0  0  0  0  0  0  0  # atno 17260 bound_to 17226
  251.5247   12.5788   42.9560 H   0  0  0  0  0  0  0  0  0  0  0  0  # atno 17308 bound_to 17287
  250.6491    5.9750   41.2410 H   0  0  0  0  0  0  0  0  0  0  0  0  # atno 18300 bound_to 18279
  253.4555    4.8526   40.3053 H   0  0  0  0  0  0  0  0  0  0  0  0  # atno 18304 bound_to 18284
  249.6469    6.2994   37.8023 H   0  0  0  0  0  0  0  0  0  0  0  0  # atno 18330 bound_to 18317
  250.1845    6.5965   34.3001 H   0  0  0  0  0  0  0  0  0  0  0  0  # atno 18419 bound_to 18375
  252.6301    7.4621   30.7738 H   0  0  0  0  0  0  0  0  0  0  0  0  # atno 18504 bound_to 18465
  254.4749   13.6471   34.2864 H   0  0  0  0  0  0  0  0  0  0  0  0  # atno 18512 bound_to 18476
  250.4374   10.6335   29.2356 H   0  0  0  0  0  0  0  0  0  0  0  0  # atno 18572 bound_to 18537
  250.2114   10.3625   25.2688 H   0  0  0  0  0  0  0  0  0  0  0  0  # atno 18606 bound_to 18593
  246.6591   14.8211   25.2739 H   0  0  0  0  0  0  0  0  0  0  0  0  # atno 18664 bound_to 18636
  250.2279   15.8004   26.5384 H   0  0  0  0  0  0  0  0  0  0  0  0  # atno 18719 bound_to 18692
  252.4603   15.0092   27.3936 H   0  0  0  0  0  0  0  0  0  0  0  0  # atno 18790 bound_to 18749
  254.0076   17.1511   26.2729 H   0  0  0  0  0  0  0  0  0  0  0  0  # atno 18826 bound_to 18813
  253.1417   18.7930   24.7739 H   0  0  0  0  0  0  0  0  0  0  0  0  # atno 18884 bound_to 18850
  251.5020   20.6762   25.9119 H   0  0  0  0  0  0  0  0  0  0  0  0  # atno 18976 bound_to 18926
  252.7586   21.0921   29.0064 H   0  0  0  0  0  0  0  0  0  0  0  0  # atno 19033 bound_to 19013
  255.5395   21.3797   28.3777 H   0  0  0  0  0  0  0  0  0  0  0  0  # atno 19112 bound_to 19073
  251.0345    5.5682   26.0278 H   0  0  0  0  0  0  0  0  0  0  0  0  # atno 22456 bound_to 22422
  255.8394   15.3106   35.0518 LP  0  0  0  0  0  0  0  0  0  0  0  0  # atno 27193 bound_to 16968
  256.8748   16.1491   35.9961 LP  0  0  0  0  0  0  0  0  0  0  0  0  # atno 27194 bound_to 16968
  254.8654   14.6069   33.0321 LP  0  0  0  0  0  0  0  0  0  0  0  0  # atno 27195 bound_to 18476
  255.9293   13.4928   33.5737 LP  0  0  0  0  0  0  0  0  0  0  0  0  # atno 27196 bound_to 18476
  249.3971    9.2305   29.3369 LP  0  0  0  0  0  0  0  0  0  0  0  0  # atno 27197 bound_to 18537
  249.8650   13.0517   27.9574 LP  0  0  0  0  0  0  0  0  0  0  0  0  # atno 27198 bound_to 18540
  251.4870   12.4465   27.9055 LP  0  0  0  0  0  0  0  0  0  0  0  0  # atno 27199 bound_to 18540
  250.0028   17.8206   27.0311 LP  0  0  0  0  0  0  0  0  0  0  0  0  # atno 27200 bound_to 18633
  251.1336   17.5977   25.7382 LP  0  0  0  0  0  0  0  0  0  0  0  0  # atno 27201 bound_to 18633
  249.6480   14.4095   27.4103 LP  0  0  0  0  0  0  0  0  0  0  0  0  # atno 27202 bound_to 18692
  253.0952   17.7447   29.5088 LP  0  0  0  0  0  0  0  0  0  0  0  0  # atno 27203 bound_to 18695
  251.4155   18.1674   29.5164 LP  0  0  0  0  0  0  0  0  0  0  0  0  # atno 27204 bound_to 18695
  252.1907   16.2245   28.6256 LP  0  0  0  0  0  0  0  0  0  0  0  0  # atno 27209 bound_to 18749
  253.1555   19.4485   28.5613 LP  0  0  0  0  0  0  0  0  0  0  0  0  # atno 27210 bound_to 19013
  252.2591    8.5676   38.2897 LP  0  0  0  0  0  0  0  0  0  0  0  0  # atno 27222 bound_to 17133
  251.8804    8.9133   36.6353 LP  0  0  0  0  0  0  0  0  0  0  0  0  # atno 27223 bound_to 17133
  254.5798   10.8053   38.3743 LP  0  0  0  0  0  0  0  0  0  0  0  0  # atno 27224 bound_to 17180
  251.3202   10.6834   40.8647 LP  0  0  0  0  0  0  0  0  0  0  0  0  # atno 27225 bound_to 17226
  257.6525   14.9524   38.0258 LP  0  0  0  0  0  0  0  0  0  0  0  0  # atno 27226 bound_to 11612
  257.6492   13.2210   38.0721 LP  0  0  0  0  0  0  0  0  0  0  0  0  # atno 27227 bound_to 11612
  256.3534   10.9280   36.7470 LP  0  0  0  0  0  0  0  0  0  0  0  0  # atno 27230 bound_to 17060
  257.2034    9.5717   37.4087 LP  0  0  0  0  0  0  0  0  0  0  0  0  # atno 27231 bound_to 17060
  255.6593   18.3782   27.2392 LP  0  0  0  0  0  0  0  0  0  0  0  0  # atno 27232 bound_to 18752
  254.4495   19.0087   26.1720 LP  0  0  0  0  0  0  0  0  0  0  0  0  # atno 27233 bound_to 18752
  252.7299   14.3633   26.1854 LP  0  0  0  0  0  0  0  0  0  0  0  0  # atno 27234 bound_to 18596
  252.7679   14.6886   24.4846 LP  0  0  0  0  0  0  0  0  0  0  0  0  # atno 27235 bound_to 18596
  253.7193   15.6414   25.4349 LP  0  0  0  0  0  0  0  0  0  0  0  0  # atno 27236 bound_to 18813
  251.0940   19.2769   26.8702 LP  0  0  0  0  0  0  0  0  0  0  0  0  # atno 27237 bound_to 18926
  253.0352   23.0050   29.5730 LP  0  0  0  0  0  0  0  0  0  0  0  0  # atno 27238 bound_to 18929
  253.5159   22.9758   27.9093 LP  0  0  0  0  0  0  0  0  0  0  0  0  # atno 27239 bound_to 18929
  256.7350   22.8614   28.7132 LP  0  0  0  0  0  0  0  0  0  0  0  0  # atno 27240 bound_to 19016
  256.7068   22.0134   30.2232 LP  0  0  0  0  0  0  0  0  0  0  0  0  # atno 27241 bound_to 19016
  255.1870   20.1313   27.2044 LP  0  0  0  0  0  0  0  0  0  0  0  0  # atno 27242 bound_to 19073
  251.4738   16.3042   42.9307 LP  0  0  0  0  0  0  0  0  0  0  0  0  # atno 27243 bound_to 11418
  252.2501   15.0473   42.0265 LP  0  0  0  0  0  0  0  0  0  0  0  0  # atno 27244 bound_to 11418
  253.2860   12.7512   41.9389 LP  0  0  0  0  0  0  0  0  0  0  0  0  # atno 27245 bound_to 17183
  254.4533   11.4933   41.7048 LP  0  0  0  0  0  0  0  0  0  0  0  0  # atno 27246 bound_to 17183
  249.0542    7.5010   31.2268 LP  0  0  0  0  0  0  0  0  0  0  0  0  # atno 27247 bound_to 18378
  249.4031    8.2349   32.7564 LP  0  0  0  0  0  0  0  0  0  0  0  0  # atno 27248 bound_to 18378
  251.1808    7.6436   31.7373 LP  0  0  0  0  0  0  0  0  0  0  0  0  # atno 27249 bound_to 18465
  250.4470    9.4424   41.7220 LP  0  0  0  0  0  0  0  0  0  0  0  0  # atno 27250 bound_to 18217
  250.8032    8.9114   40.1123 LP  0  0  0  0  0  0  0  0  0  0  0  0  # atno 27251 bound_to 18217
  249.4858   11.1386   43.3500 LP  0  0  0  0  0  0  0  0  0  0  0  0  # atno 27254 bound_to 17229
  251.1113   10.5674   43.5278 LP  0  0  0  0  0  0  0  0  0  0  0  0  # atno 27255 bound_to 17229
  249.3971    7.0481   40.6656 LP  0  0  0  0  0  0  0  0  0  0  0  0  # atno 27256 bound_to 18279
  251.1585    6.6298   36.9873 LP  0  0  0  0  0  0  0  0  0  0  0  0  # atno 27257 bound_to 18317
  250.2060    4.9215   33.7908 LP  0  0  0  0  0  0  0  0  0  0  0  0  # atno 27258 bound_to 18375
  252.2964    4.0246   34.9465 LP  0  0  0  0  0  0  0  0  0  0  0  0  # atno 27259 bound_to 18320
  252.7623    5.6415   35.3571 LP  0  0  0  0  0  0  0  0  0  0  0  0  # atno 27260 bound_to 18320
  250.7766    8.2515   27.2891 LP  0  0  0  0  0  0  0  0  0  0  0  0  # atno 27261 bound_to 18468
  250.7069    7.1597   28.6320 LP  0  0  0  0  0  0  0  0  0  0  0  0  # atno 27262 bound_to 18468
  242.4466    8.8514   32.2388 LP  0  0  0  0  0  0  0  0  0  0  0  0  # atno 27263 bound_to 7517
  250.0825    4.3315   39.5836 LP  0  0  0  0  0  0  0  0  0  0  0  0  # atno 27264 bound_to 18282
  249.3607    4.0736   38.0304 LP  0  0  0  0  0  0  0  0  0  0  0  0  # atno 27265 bound_to 18282
  241.3998   10.1054   32.8631 LP  0  0  0  0  0  0  0  0  0  0  0  0  # atno 27266 bound_to 7462
  256.3821    7.0371   31.8571 LP  0  0  0  0  0  0  0  0  0  0  0  0  # atno 27267 bound_to 17020
  255.5541    7.8606   33.1363 LP  0  0  0  0  0  0  0  0  0  0  0  0  # atno 27268 bound_to 17020
  250.0708   11.5577   26.5423 LP  0  0  0  0  0  0  0  0  0  0  0  0  # atno 27269 bound_to 18593
  247.4940    2.7953   36.2672 LP  0  0  0  0  0  0  0  0  0  0  0  0  # atno 27270 bound_to 10100
  247.5865    1.2370   35.7881 LP  0  0  0  0  0  0  0  0  0  0  0  0  # atno 27271 bound_to 10100
  252.7073    4.4257   38.9249 LP  0  0  0  0  0  0  0  0  0  0  0  0  # atno 27272 bound_to 18284
  251.8424    4.6400   40.2934 LP  0  0  0  0  0  0  0  0  0  0  0  0  # atno 27273 bound_to 18284
  253.6914   16.2210   42.7418 LP  0  0  0  0  0  0  0  0  0  0  0  0  # atno 27274 bound_to 11468
  258.0853   10.4219   31.0334 LP  0  0  0  0  0  0  0  0  0  0  0  0  # atno 27275 bound_to 16960
  257.9883   11.6520   32.2488 LP  0  0  0  0  0  0  0  0  0  0  0  0  # atno 27276 bound_to 16960

> <Gold.Score>
     Fitness  S(hb_ext) S(vdw_ext)  S(hb_int)    S(int)      intcor
     33.41       5.99      20.73       0.00      -1.09      -0.76

> <Gold.Goldscore.Fitness>
33.4085

> <Gold.Goldscore.Internal.Vdw>
-1.3693

> <Gold.Goldscore.Internal.Torsion>
-0.4841

> <Gold.Goldscore.External.Vdw>
20.7349

> <Gold.Goldscore.Internal.HBond>
0.0000

> <Gold.Goldscore.External.HBond>
5.9865

> <Gold.Goldscore.Internal.Correction>
-0.7650

> <Gold.Goldscore.Hbonds>
donor molecule, donor type, donor heavy atom, donor atom, acceptor molecule, acceptor atom, score
      P1  H 19355 19405       L1     9  0.07
      L1  H    10    23       P1 27122  0.93

> <Gold.Goldscore.Internal.Vdw.Weighted>
-1.3693

> <Gold.Goldscore.Internal.Torsion.Weighted>
-0.4841

> <Gold.Goldscore.External.Vdw.Weighted>
28.5105

> <Gold.Goldscore.Internal.HBond.Weighted>
0.0000

> <Gold.Goldscore.External.HBond.Weighted>
5.9865

> <Gold.Goldscore.Internal.Correction.Weighted>
-0.7650

> <Gold.Rescore>
     Score     S(PLP)   S(hbond)     S(cho)   S(metal)  DE(clash)   DE(tors)     intcor
     17.92     -16.22       1.13       0.00       0.00       0.86       0.41       ----

> <Gold.PLP.Fitness>
17.9172

> <Gold.PLP.PLP>
-16.2179

> <Gold.PLP.part.hbond>
-4.1682

> <Gold.PLP.part.metal>
0.0000

> <Gold.PLP.part.buried>
-0.6084

> <Gold.PLP.part.nonpolar>
-13.7372

> <Gold.PLP.part.repulsive>
0.7360

> <Gold.PLP.ligand.clash>
0.8641

> <Gold.PLP.ligand.torsion>
0.4137

> <Gold.PLP.Chemscore.Hbond>
1.1303

> <Gold.PLP.Chemscore.CHOScore>
0.0000

> <Gold.PLP.Chemscore.Metal>
0.0000

> <Gold.Chemscore.Hbonds>
donor molecule, donor type, donor heavy atom, donor atom, acceptor molecule, acceptor atom, score
      L1  H    10    23       P1 27122  0.39
      P1  H 19355 19405       L1     9  1.00

> <Gold.PLP.Chemscore.Internal.Correction>
   9.000000E+99

