#       Name:                CT1002167954
#       Creating user name   hitesit
#       Creation time:       Sun Apr 16 20:33:15 2023


#       File generated by GOLD software.
#

@<TRIPOS>MOLECULE
CT1002167954|ligand_prepared|mol2|1|dock7
    29    30     1
SMALL
NO_CHARGES


@<TRIPOS>ATOM
      1 C1         249.7192  14.3425  35.6380 C.3            1 RES1               0.0000
      2 C2         249.0523  12.9931  35.3015 C.ar           1 RES1               0.0000
      3 C3         251.0671  14.0083  36.2702 C.2            1 RES1               0.0000
      4 C4         249.8213  15.1075  34.3231 C.2            1 RES1               0.0000
      5 C5         248.9111  15.2079  36.6327 C.3            1 RES1               0.0000
      6 C6         249.5510  12.1917  34.2789 C.ar           1 RES1               0.0000
      7 C7         247.9413  12.5360  36.0053 C.ar           1 RES1               0.0000
      8 N8         252.1862  14.2160  35.5189 N.am           1 RES1               0.0000
      9 O9         251.1444  13.5327  37.3962 O.2            1 RES1               0.0000
     10 N10        251.0718  15.3656  33.8258 N.am           1 RES1               0.0000
     11 O11        248.8298  15.4747  33.7047 O.2            1 RES1               0.0000
     12 C12        249.4450  16.6232  36.7884 C.3            1 RES1               0.0000
     13 C13        248.9624  10.9759  33.9729 C.ar           1 RES1               0.0000
     14 C14        247.3540  11.3199  35.6975 C.ar           1 RES1               0.0000
     15 C15        252.2582  14.9277  34.3484 C.2            1 RES1               0.0000
     16 C16        247.8639  10.5390  34.6821 C.ar           1 RES1               0.0000
     17 O17        253.3398  15.1544  33.8137 O.2            1 RES1               0.0000
     18 H18        247.8698  15.2589  36.2914 H              1 RES1               0.0000
     19 H19        248.9186  14.7179  37.6142 H              1 RES1               0.0000
     20 H20        250.4133  12.5201  33.7082 H              1 RES1               0.0000
     21 H21        247.5225  13.1341  36.8074 H              1 RES1               0.0000
     22 H22        253.0494  13.8040  35.8587 H              1 RES1               0.0000
     23 H23        251.1231  15.9371  32.9885 H              1 RES1               0.0000
     24 H24        248.8422  17.1871  37.4971 H              1 RES1               0.0000
     25 H25        250.4709  16.6107  37.1507 H              1 RES1               0.0000
     26 H26        249.4283  17.1486  35.8358 H              1 RES1               0.0000
     27 H27        249.3667  10.3657  33.1720 H              1 RES1               0.0000
     28 H28        246.4892  10.9803  36.2579 H              1 RES1               0.0000
     29 H29        247.4032   9.5864  34.4424 H              1 RES1               0.0000
@<TRIPOS>BOND
    1    1    2 1     
    2    1    3 1     
    3    1    4 1     
    4    1    5 1     
    5    2    6 ar    
    6    2    7 ar    
    7    3    8 1     
    8    3    9 2     
    9    4   10 1     
   10    4   11 2     
   11    5   12 1     
   12    5   18 1     
   13    5   19 1     
   14    6   13 ar    
   15    6   20 1     
   16    7   14 ar    
   17    7   21 1     
   18    8   15 1     
   19    8   22 1     
   20   10   15 1     
   21   10   23 1     
   22   12   24 1     
   23   12   25 1     
   24   12   26 1     
   25   13   16 ar    
   26   13   27 1     
   27   14   16 ar    
   28   14   28 1     
   29   15   17 2     
   30   16   29 1     
@<TRIPOS>SUBSTRUCTURE
      1 RES1           1
@<TRIPOS>SET
DONOR_HYDROGENS      STATIC     ATOMS    <user>   **** ""
2 22 23
ATOM$RED        STATIC     ATOMS    COLORGROUP SYSTEM
2 22 23
@<TRIPOS>COMMENT
> <Gold.Version>
2022.3.0

> <Gold.Id.Protein>
unknown|4d1n_clean|pdb

> <Gold.Protein.RotatedTorsions>
[ 17004 16968 16967 16965 ] final  -49.80 input   59.98 | X-H torsion
[ 18512 18476 18475 18473 ] final -172.92 input   59.98 | X-H torsion
[ 18572 18537 18538 18539 ] final  -47.18 input   87.04 | X-H torsion
[ 18719 18692 18693 18694 ] final  159.70 input  124.02 | X-H torsion
[ 18790 18749 18750 18751 ] final -172.09 input   91.60 | X-H torsion
[ 19033 19013 19014 19015 ] final   88.60 input  122.46 | X-H torsion
[ 17200 17180 17181 17182 ] final -130.55 input   47.21 | X-H torsion
[ 17260 17226 17227 17228 ] final   27.62 input  117.85 | X-H torsion
[ 18826 18813 18814 18815 ] final  109.11 input  116.01 | X-H torsion
[ 18976 18926 18927 18928 ] final   15.23 input  102.20 | X-H torsion
[ 19112 19073 19074 19075 ] final  128.06 input   89.03 | X-H torsion
[ 18504 18465 18466 18467 ] final  177.73 input  102.26 | X-H torsion
[ 18300 18279 18280 18281 ] final  179.78 input   28.27 | X-H torsion
[ 18330 18317 18318 18319 ] final -171.60 input   50.43 | X-H torsion
[ 18419 18375 18376 18377 ] final    9.21 input   32.92 | X-H torsion
[ 7530 7517 7518 7519 ] final  100.57 input   89.56 | X-H torsion
[ 7496 7462 7463 7464 ] final  -81.92 input  103.52 | X-H torsion
[ 18606 18593 18594 18595 ] final   52.52 input  124.70 | X-H torsion
[ 10120 10100 10099 10096 ] final  -54.03 input   60.00 | X-H torsion
[ 18304 18284 18283 18280 ] final   43.33 input   60.01 | X-H torsion
[ 11501 11468 11469 11470 ] final  -69.62 input   45.03 | X-H torsion
[ 18664 18636 18634 18631 ] final   -9.64 input   60.01 | X-H torsion
[ 18884 18850 18851 18852 ] final  151.58 input   84.91 | X-H torsion
[ 17308 17287 17288 17289 ] final  165.67 input   50.16 | X-H torsion
[ 22456 22422 22423 22424 ] final   -9.26 input   54.84 | X-H torsion
[ 11440 11420 11419 11416 ] final   81.55 input   60.01 | X-H torsion
[ 11650 11609 11610 11611 ] final   19.87 input   61.57 | X-H torsion
[ 11832 11793 11794 11795 ] final  -76.07 input   91.14 | X-H torsion
[ 16996 16957 16958 16959 ] final  151.29 input   91.87 | X-H torsion
[ 27198 18540 18539 18538 ] final -150.73 input   -0.00 | X-H torsion
[ 27200 18633 18632 18631 ] final -167.47 input    0.00 | X-H torsion
[ 27203 18695 18694 18693 ] final  135.50 input   -0.00 | X-H torsion
[ 27222 17133 17132 17131 ] final  -48.00 input    0.00 | X-H torsion
[ 27226 11612 11611 11610 ] final -164.02 input    0.00 | X-H torsion
[ 27230 17060 17059 17058 ] final  -89.52 input   -0.00 | X-H torsion
[ 27232 18752 18751 18750 ] final -145.71 input    0.00 | X-H torsion
[ 27234 18596 18595 18594 ] final   19.53 input   -0.00 | X-H torsion
[ 27238 18929 18928 18927 ] final -169.77 input   -0.00 | X-H torsion
[ 27240 19016 19015 19014 ] final   31.28 input   -0.00 | X-H torsion
[ 27243 11418 11417 11416 ] final  -26.63 input    0.00 | X-H torsion
[ 27245 17183 17182 17181 ] final   30.13 input   -0.00 | X-H torsion
[ 27247 18378 18377 18376 ] final  -40.60 input   -0.00 | X-H torsion
[ 27250 18217 18216 18215 ] final   88.01 input    0.00 | X-H torsion
[ 27254 17229 17228 17227 ] final   20.48 input   -0.00 | X-H torsion
[ 27259 18320 18319 18318 ] final -120.75 input    0.00 | X-H torsion
[ 27261 18468 18467 18466 ] final  -80.69 input    0.00 | X-H torsion
[ 27264 18282 18281 18280 ] final   95.00 input   -0.00 | X-H torsion
[ 27267 17020 17019 17018 ] final   50.21 input   -0.00 | X-H torsion
[ 27275 16960 16959 16958 ] final  -66.64 input    0.00 | X-H torsion

> <Gold.Protein.ActiveResidues>
 TRP414  CYS420  VAL421  GLY422  LEU460  SER462  SER482  GLN483  ILE485  ARG486 
 TYR487  ASP500  ASN503  TRP566  TYR567  GLY568  LEU569  PRO570  ALA571  VAL572 
 SER573  ASN574  PHE589  SER590  GLY591  TRP592  TYR593  MET594  GLY595  THR596 
 GLU597  ILE598  GLY599  VAL600  ARG601  ASP602  TYR603  ARG608  ILE653  VAL654 
 TRP683  PRO687  HEM750  H4B760 

> <Gold.Protein.RotatedAtoms>
  240.3723   10.4682   32.8627 H   0  0  0  0  0  0  0  0  0  0  0  0  # atno 7496 bound_to 7462
  242.2633    8.7675   32.5329 H   0  0  0  0  0  0  0  0  0  0  0  0  # atno 7530 bound_to 7517
  248.5436    2.8004   36.1801 H   0  0  0  0  0  0  0  0  0  0  0  0  # atno 10120 bound_to 10100
  254.0226   18.7177   41.0641 H   0  0  0  0  0  0  0  0  0  0  0  0  # atno 11440 bound_to 11420
  254.3344   16.0457   43.2525 H   0  0  0  0  0  0  0  0  0  0  0  0  # atno 11501 bound_to 11468
  257.4484   12.8360   40.5656 H   0  0  0  0  0  0  0  0  0  0  0  0  # atno 11650 bound_to 11609
  260.9963   17.5227   38.3895 H   0  0  0  0  0  0  0  0  0  0  0  0  # atno 11832 bound_to 11793
  261.0567   13.3291   32.3482 H   0  0  0  0  0  0  0  0  0  0  0  0  # atno 16996 bound_to 16957
  255.6905   15.0271   35.2691 H   0  0  0  0  0  0  0  0  0  0  0  0  # atno 17004 bound_to 16968
  253.2547   10.1565   37.7616 H   0  0  0  0  0  0  0  0  0  0  0  0  # atno 17200 bound_to 17180
  251.4613   10.7012   41.0060 H   0  0  0  0  0  0  0  0  0  0  0  0  # atno 17260 bound_to 17226
  251.9132   12.8175   42.9278 H   0  0  0  0  0  0  0  0  0  0  0  0  # atno 17308 bound_to 17287
  250.5468    7.1254   41.3059 H   0  0  0  0  0  0  0  0  0  0  0  0  # atno 18300 bound_to 18279
  252.0364    4.4058   39.1948 H   0  0  0  0  0  0  0  0  0  0  0  0  # atno 18304 bound_to 18284
  249.7565    6.1417   37.8881 H   0  0  0  0  0  0  0  0  0  0  0  0  # atno 18330 bound_to 18317
  249.6009    6.3092   33.6936 H   0  0  0  0  0  0  0  0  0  0  0  0  # atno 18419 bound_to 18375
  252.3967    8.0334   31.8171 H   0  0  0  0  0  0  0  0  0  0  0  0  # atno 18504 bound_to 18465
  255.9002   13.4495   33.6343 H   0  0  0  0  0  0  0  0  0  0  0  0  # atno 18512 bound_to 18476
  250.7214    9.8548   28.9335 H   0  0  0  0  0  0  0  0  0  0  0  0  # atno 18572 bound_to 18537
  249.5311   11.4185   25.4413 H   0  0  0  0  0  0  0  0  0  0  0  0  # atno 18606 bound_to 18593
  248.1674   14.3405   26.1390 H   0  0  0  0  0  0  0  0  0  0  0  0  # atno 18664 bound_to 18636
  249.3021   14.6537   27.3644 H   0  0  0  0  0  0  0  0  0  0  0  0  # atno 18719 bound_to 18692
  252.5349   15.2763   28.8122 H   0  0  0  0  0  0  0  0  0  0  0  0  # atno 18790 bound_to 18749
  253.3590   15.7749   25.4343 H   0  0  0  0  0  0  0  0  0  0  0  0  # atno 18826 bound_to 18813
  251.8343   17.9055   24.0568 H   0  0  0  0  0  0  0  0  0  0  0  0  # atno 18884 bound_to 18850
  252.1282   19.7393   26.5494 H   0  0  0  0  0  0  0  0  0  0  0  0  # atno 18976 bound_to 18926
  253.2416   19.5100   28.4004 H   0  0  0  0  0  0  0  0  0  0  0  0  # atno 19033 bound_to 19013
  255.4360   19.9801   27.3422 H   0  0  0  0  0  0  0  0  0  0  0  0  # atno 19112 bound_to 19073
  251.1371    7.2385   25.6777 H   0  0  0  0  0  0  0  0  0  0  0  0  # atno 22456 bound_to 22422
  256.7718   16.1905   35.6239 LP  0  0  0  0  0  0  0  0  0  0  0  0  # atno 27193 bound_to 16968
  256.3148   15.1198   36.7691 LP  0  0  0  0  0  0  0  0  0  0  0  0  # atno 27194 bound_to 16968
  254.4213   13.7018   34.2638 LP  0  0  0  0  0  0  0  0  0  0  0  0  # atno 27195 bound_to 18476
  254.9372   14.5969   32.9992 LP  0  0  0  0  0  0  0  0  0  0  0  0  # atno 27196 bound_to 18476
  249.1217    9.9853   29.6297 LP  0  0  0  0  0  0  0  0  0  0  0  0  # atno 27197 bound_to 18537
  250.7463   13.2355   27.2184 LP  0  0  0  0  0  0  0  0  0  0  0  0  # atno 27198 bound_to 18540
  250.6057   12.2627   28.6445 LP  0  0  0  0  0  0  0  0  0  0  0  0  # atno 27199 bound_to 18540
  250.8300   17.6100   27.2041 LP  0  0  0  0  0  0  0  0  0  0  0  0  # atno 27200 bound_to 18633
  250.3064   17.8083   25.5651 LP  0  0  0  0  0  0  0  0  0  0  0  0  # atno 27201 bound_to 18633
  250.5723   15.5543   26.5857 LP  0  0  0  0  0  0  0  0  0  0  0  0  # atno 27202 bound_to 18692
  252.9778   17.5923   29.8221 LP  0  0  0  0  0  0  0  0  0  0  0  0  # atno 27203 bound_to 18695
  251.5329   18.3199   29.2032 LP  0  0  0  0  0  0  0  0  0  0  0  0  # atno 27204 bound_to 18695
  252.1188   15.9670   27.2574 LP  0  0  0  0  0  0  0  0  0  0  0  0  # atno 27209 bound_to 18749
  252.6855   20.9880   29.1509 LP  0  0  0  0  0  0  0  0  0  0  0  0  # atno 27210 bound_to 19013
  251.6464    9.1192   36.8089 LP  0  0  0  0  0  0  0  0  0  0  0  0  # atno 27222 bound_to 17133
  252.4932    8.3617   38.1162 LP  0  0  0  0  0  0  0  0  0  0  0  0  # atno 27223 bound_to 17133
  254.2342   11.4031   38.5005 LP  0  0  0  0  0  0  0  0  0  0  0  0  # atno 27224 bound_to 17180
  251.9108   11.8311   39.7461 LP  0  0  0  0  0  0  0  0  0  0  0  0  # atno 27225 bound_to 17226
  257.9130   14.8268   37.6835 LP  0  0  0  0  0  0  0  0  0  0  0  0  # atno 27226 bound_to 11612
  257.3887   13.3466   38.4144 LP  0  0  0  0  0  0  0  0  0  0  0  0  # atno 27227 bound_to 11612
  256.5058    9.7872   37.7573 LP  0  0  0  0  0  0  0  0  0  0  0  0  # atno 27230 bound_to 17060
  257.0509   10.7125   36.3984 LP  0  0  0  0  0  0  0  0  0  0  0  0  # atno 27231 bound_to 17060
  254.5227   18.9836   26.0867 LP  0  0  0  0  0  0  0  0  0  0  0  0  # atno 27232 bound_to 18752
  255.5862   18.4033   27.3245 LP  0  0  0  0  0  0  0  0  0  0  0  0  # atno 27233 bound_to 18752
  253.2641   13.8806   25.0742 LP  0  0  0  0  0  0  0  0  0  0  0  0  # atno 27234 bound_to 18596
  252.2337   15.1714   25.5957 LP  0  0  0  0  0  0  0  0  0  0  0  0  # atno 27235 bound_to 18596
  254.3461   16.9716   26.2454 LP  0  0  0  0  0  0  0  0  0  0  0  0  # atno 27236 bound_to 18813
  250.4752   20.2027   26.2403 LP  0  0  0  0  0  0  0  0  0  0  0  0  # atno 27237 bound_to 18926
  254.0668   22.6920   28.9280 LP  0  0  0  0  0  0  0  0  0  0  0  0  # atno 27238 bound_to 18929
  252.4843   23.2888   28.5543 LP  0  0  0  0  0  0  0  0  0  0  0  0  # atno 27239 bound_to 18929
  256.7392   21.9928   30.2112 LP  0  0  0  0  0  0  0  0  0  0  0  0  # atno 27240 bound_to 19016
  256.7026   22.8820   28.7252 LP  0  0  0  0  0  0  0  0  0  0  0  0  # atno 27241 bound_to 19016
  255.2876   21.4912   28.2106 LP  0  0  0  0  0  0  0  0  0  0  0  0  # atno 27242 bound_to 19073
  251.5642   16.0031   43.2230 LP  0  0  0  0  0  0  0  0  0  0  0  0  # atno 27243 bound_to 11418
  252.1598   15.3485   41.7341 LP  0  0  0  0  0  0  0  0  0  0  0  0  # atno 27244 bound_to 11418
  254.5225   11.9388   41.2832 LP  0  0  0  0  0  0  0  0  0  0  0  0  # atno 27245 bound_to 17183
  253.2168   12.3057   42.3605 LP  0  0  0  0  0  0  0  0  0  0  0  0  # atno 27246 bound_to 17183
  248.9941    7.0343   31.9942 LP  0  0  0  0  0  0  0  0  0  0  0  0  # atno 27247 bound_to 18378
  249.4631    8.7016   31.9890 LP  0  0  0  0  0  0  0  0  0  0  0  0  # atno 27248 bound_to 18378
  251.4072    7.0895   30.7255 LP  0  0  0  0  0  0  0  0  0  0  0  0  # atno 27249 bound_to 18465
  251.4171    9.0492   41.2433 LP  0  0  0  0  0  0  0  0  0  0  0  0  # atno 27250 bound_to 18217
  249.8331    9.3046   40.5909 LP  0  0  0  0  0  0  0  0  0  0  0  0  # atno 27251 bound_to 18217
  250.3776   10.5211   42.6429 LP  0  0  0  0  0  0  0  0  0  0  0  0  # atno 27254 bound_to 17229
  250.2195   11.1848   44.2349 LP  0  0  0  0  0  0  0  0  0  0  0  0  # atno 27255 bound_to 17229
  249.4973    5.9201   40.6018 LP  0  0  0  0  0  0  0  0  0  0  0  0  # atno 27256 bound_to 18279
  251.0519    6.7832   36.9039 LP  0  0  0  0  0  0  0  0  0  0  0  0  # atno 27257 bound_to 18317
  250.7698    5.1990   34.3768 LP  0  0  0  0  0  0  0  0  0  0  0  0  # atno 27258 bound_to 18375
  252.8299    5.6255   34.9737 LP  0  0  0  0  0  0  0  0  0  0  0  0  # atno 27259 bound_to 18320
  252.2288    4.0406   35.3299 LP  0  0  0  0  0  0  0  0  0  0  0  0  # atno 27260 bound_to 18320
  251.4145    8.0958   27.5796 LP  0  0  0  0  0  0  0  0  0  0  0  0  # atno 27261 bound_to 18468
  250.0690    7.3154   28.3415 LP  0  0  0  0  0  0  0  0  0  0  0  0  # atno 27262 bound_to 18468
  241.2539    8.2512   31.2024 LP  0  0  0  0  0  0  0  0  0  0  0  0  # atno 27263 bound_to 7517
  248.9278    4.5374   38.8955 LP  0  0  0  0  0  0  0  0  0  0  0  0  # atno 27264 bound_to 18282
  250.5153    3.8677   38.7185 LP  0  0  0  0  0  0  0  0  0  0  0  0  # atno 27265 bound_to 18282
  241.8102   11.1696   32.1488 LP  0  0  0  0  0  0  0  0  0  0  0  0  # atno 27266 bound_to 7462
  256.3576    6.7814   32.1059 LP  0  0  0  0  0  0  0  0  0  0  0  0  # atno 27267 bound_to 17020
  255.5786    8.1164   32.8874 LP  0  0  0  0  0  0  0  0  0  0  0  0  # atno 27268 bound_to 17020
  250.7254   10.5416   26.3763 LP  0  0  0  0  0  0  0  0  0  0  0  0  # atno 27269 bound_to 18593
  247.0732    2.1078   36.0962 LP  0  0  0  0  0  0  0  0  0  0  0  0  # atno 27270 bound_to 10100
  248.4077    1.2455   35.7190 LP  0  0  0  0  0  0  0  0  0  0  0  0  # atno 27271 bound_to 10100
  252.3974    4.8147   40.7278 LP  0  0  0  0  0  0  0  0  0  0  0  0  # atno 27272 bound_to 18284
  253.5818    4.7011   39.6093 LP  0  0  0  0  0  0  0  0  0  0  0  0  # atno 27273 bound_to 18284
  254.6158   16.7359   41.6671 LP  0  0  0  0  0  0  0  0  0  0  0  0  # atno 27274 bound_to 11468
  257.8440   11.4712   32.3652 LP  0  0  0  0  0  0  0  0  0  0  0  0  # atno 27275 bound_to 16960
  258.2295   10.6027   30.9171 LP  0  0  0  0  0  0  0  0  0  0  0  0  # atno 27276 bound_to 16960

> <Gold.Score>
     Fitness  S(hb_ext) S(vdw_ext)  S(hb_int)    S(int)      intcor
     41.15       2.01      28.66       0.00      -0.27      -0.76

> <Gold.Goldscore.Fitness>
41.1453

> <Gold.Goldscore.Internal.Vdw>
-0.5252

> <Gold.Goldscore.Internal.Torsion>
-0.5077

> <Gold.Goldscore.External.Vdw>
28.6572

> <Gold.Goldscore.Internal.HBond>
0.0000

> <Gold.Goldscore.External.HBond>
2.0095

> <Gold.Goldscore.Internal.Correction>
-0.7650

> <Gold.Goldscore.Hbonds>
donor molecule, donor type, donor heavy atom, donor atom, acceptor molecule, acceptor atom, score
      P1  H 11475 11507       L1    17  0.29
      P1  H 16968 17004       L1    17  0.33
      L1  H     8    22       P1 11476  0.13

> <Gold.Goldscore.Internal.Vdw.Weighted>
-0.5252

> <Gold.Goldscore.Internal.Torsion.Weighted>
-0.5077

> <Gold.Goldscore.External.Vdw.Weighted>
39.4036

> <Gold.Goldscore.Internal.HBond.Weighted>
0.0000

> <Gold.Goldscore.External.HBond.Weighted>
2.0095

> <Gold.Goldscore.Internal.Correction.Weighted>
-0.7650

> <Gold.Rescore>
     Score     S(PLP)   S(hbond)     S(cho)   S(metal)  DE(clash)   DE(tors)     intcor
     21.58     -21.73       0.27       0.00       0.00       0.00       0.48       ----

> <Gold.PLP.Fitness>
21.5808

> <Gold.PLP.PLP>
-21.7330

> <Gold.PLP.part.hbond>
-2.9465

> <Gold.PLP.part.metal>
0.0000

> <Gold.PLP.part.buried>
14.1238

> <Gold.PLP.part.nonpolar>
-39.6769

> <Gold.PLP.part.repulsive>
5.7581

> <Gold.PLP.ligand.clash>
0.0000

> <Gold.PLP.ligand.torsion>
0.4804

> <Gold.PLP.Chemscore.Hbond>
0.2695

> <Gold.PLP.Chemscore.CHOScore>
0.0000

> <Gold.PLP.Chemscore.Metal>
0.0000

> <Gold.Chemscore.Hbonds>
donor molecule, donor type, donor heavy atom, donor atom, acceptor molecule, acceptor atom, score
      L1  H     8    22       P1 11476  0.39

> <Gold.PLP.Chemscore.Internal.Correction>
   9.000000E+99

