#       Name:                CT1002167954
#       Creating user name   hitesit
#       Creation time:       Sun Apr 16 20:33:16 2023


#       File generated by GOLD software.
#

@<TRIPOS>MOLECULE
CT1002167954|ligand_prepared|mol2|1|dock8
    29    30     1
SMALL
NO_CHARGES


@<TRIPOS>ATOM
      1 C1         248.9300  19.8776  35.5288 C.3            1 RES1               0.0000
      2 C2         249.0428  19.2584  34.1207 C.ar           1 RES1               0.0000
      3 C3         250.0650  19.2772  36.3530 C.2            1 RES1               0.0000
      4 C4         249.0292  21.3873  35.3401 C.2            1 RES1               0.0000
      5 C5         247.5913  19.5719  36.2402 C.3            1 RES1               0.0000
      6 C6         248.0509  19.4764  33.1692 C.ar           1 RES1               0.0000
      7 C7         250.1322  18.4706  33.7583 C.ar           1 RES1               0.0000
      8 N8         251.1323  20.0777  36.6361 N.am           1 RES1               0.0000
      9 O9         250.0421  18.1074  36.7155 O.2            1 RES1               0.0000
     10 N10        250.1195  22.0298  35.8657 N.am           1 RES1               0.0000
     11 O11        248.1814  22.0239  34.7267 O.2            1 RES1               0.0000
     12 C12        247.3950  20.3443  37.5352 C.3            1 RES1               0.0000
     13 C13        248.1460  18.9292  31.9004 C.ar           1 RES1               0.0000
     14 C14        250.2252  17.9241  32.4890 C.ar           1 RES1               0.0000
     15 C15        251.1908  21.4391  36.4785 C.2            1 RES1               0.0000
     16 C16        249.2332  18.1531  31.5593 C.ar           1 RES1               0.0000
     17 O17        252.1601  22.0789  36.8765 O.2            1 RES1               0.0000
     18 H18        246.7662  19.8109  35.5580 H              1 RES1               0.0000
     19 H19        247.5450  18.4980  36.4592 H              1 RES1               0.0000
     20 H20        247.1868  20.0824  33.4202 H              1 RES1               0.0000
     21 H21        250.9239  18.2762  34.4738 H              1 RES1               0.0000
     22 H22        251.9637  19.6219  36.9983 H              1 RES1               0.0000
     23 H23        250.1337  23.0421  35.7936 H              1 RES1               0.0000
     24 H24        246.4408  20.0928  37.9934 H              1 RES1               0.0000
     25 H25        248.1844  20.1114  38.2468 H              1 RES1               0.0000
     26 H26        247.4103  21.4165  37.3509 H              1 RES1               0.0000
     27 H27        247.3620  19.1113  31.1728 H              1 RES1               0.0000
     28 H28        251.0823  17.3135  32.2251 H              1 RES1               0.0000
     29 H29        249.3076  17.7249  30.5652 H              1 RES1               0.0000
@<TRIPOS>BOND
    1    1    2 1     
    2    1    3 1     
    3    1    4 1     
    4    1    5 1     
    5    2    6 ar    
    6    2    7 ar    
    7    3    8 1     
    8    3    9 2     
    9    4   10 1     
   10    4   11 2     
   11    5   12 1     
   12    5   18 1     
   13    5   19 1     
   14    6   13 ar    
   15    6   20 1     
   16    7   14 ar    
   17    7   21 1     
   18    8   15 1     
   19    8   22 1     
   20   10   15 1     
   21   10   23 1     
   22   12   24 1     
   23   12   25 1     
   24   12   26 1     
   25   13   16 ar    
   26   13   27 1     
   27   14   16 ar    
   28   14   28 1     
   29   15   17 2     
   30   16   29 1     
@<TRIPOS>SUBSTRUCTURE
      1 RES1           1
@<TRIPOS>SET
DONOR_HYDROGENS      STATIC     ATOMS    <user>   **** ""
2 22 23
ATOM$RED        STATIC     ATOMS    COLORGROUP SYSTEM
2 22 23
@<TRIPOS>COMMENT
> <Gold.Version>
2022.3.0

> <Gold.Id.Protein>
unknown|4d1n_clean|pdb

> <Gold.Protein.RotatedTorsions>
[ 17004 16968 16967 16965 ] final -155.69 input   59.98 | X-H torsion
[ 18512 18476 18475 18473 ] final   99.11 input   59.98 | X-H torsion
[ 18572 18537 18538 18539 ] final  175.56 input   87.04 | X-H torsion
[ 18719 18692 18693 18694 ] final  132.17 input  124.02 | X-H torsion
[ 18790 18749 18750 18751 ] final  -74.65 input   91.60 | X-H torsion
[ 19033 19013 19014 19015 ] final   22.18 input  122.46 | X-H torsion
[ 17200 17180 17181 17182 ] final   84.03 input   47.21 | X-H torsion
[ 17260 17226 17227 17228 ] final  104.72 input  117.85 | X-H torsion
[ 18826 18813 18814 18815 ] final  -44.94 input  116.01 | X-H torsion
[ 18976 18926 18927 18928 ] final -103.97 input  102.20 | X-H torsion
[ 19112 19073 19074 19075 ] final  -53.72 input   89.03 | X-H torsion
[ 18504 18465 18466 18467 ] final  -30.55 input  102.26 | X-H torsion
[ 18300 18279 18280 18281 ] final -122.86 input   28.27 | X-H torsion
[ 18330 18317 18318 18319 ] final  129.97 input   50.43 | X-H torsion
[ 18419 18375 18376 18377 ] final  -39.36 input   32.92 | X-H torsion
[ 7530 7517 7518 7519 ] final  -49.98 input   89.56 | X-H torsion
[ 7496 7462 7463 7464 ] final   82.73 input  103.52 | X-H torsion
[ 18606 18593 18594 18595 ] final  -27.62 input  124.70 | X-H torsion
[ 10120 10100 10099 10096 ] final  163.59 input   60.00 | X-H torsion
[ 18304 18284 18283 18280 ] final -126.08 input   60.01 | X-H torsion
[ 11501 11468 11469 11470 ] final  -72.05 input   45.03 | X-H torsion
[ 18664 18636 18634 18631 ] final  114.22 input   60.01 | X-H torsion
[ 18884 18850 18851 18852 ] final    7.35 input   84.91 | X-H torsion
[ 17308 17287 17288 17289 ] final   70.67 input   50.16 | X-H torsion
[ 22456 22422 22423 22424 ] final  -59.42 input   54.84 | X-H torsion
[ 11440 11420 11419 11416 ] final  145.57 input   60.01 | X-H torsion
[ 11650 11609 11610 11611 ] final  -79.19 input   61.57 | X-H torsion
[ 11832 11793 11794 11795 ] final   95.83 input   91.14 | X-H torsion
[ 16996 16957 16958 16959 ] final  -71.33 input   91.87 | X-H torsion
[ 27198 18540 18539 18538 ] final   73.22 input   -0.00 | X-H torsion
[ 27200 18633 18632 18631 ] final   33.84 input    0.00 | X-H torsion
[ 27203 18695 18694 18693 ] final  -15.50 input   -0.00 | X-H torsion
[ 27222 17133 17132 17131 ] final   77.22 input    0.00 | X-H torsion
[ 27226 11612 11611 11610 ] final   44.81 input    0.00 | X-H torsion
[ 27230 17060 17059 17058 ] final  -88.28 input   -0.00 | X-H torsion
[ 27232 18752 18751 18750 ] final   40.74 input    0.00 | X-H torsion
[ 27234 18596 18595 18594 ] final  -18.07 input   -0.00 | X-H torsion
[ 27238 18929 18928 18927 ] final  145.48 input   -0.00 | X-H torsion
[ 27240 19016 19015 19014 ] final -146.94 input   -0.00 | X-H torsion
[ 27243 11418 11417 11416 ] final  -58.76 input    0.00 | X-H torsion
[ 27245 17183 17182 17181 ] final  128.81 input   -0.00 | X-H torsion
[ 27247 18378 18377 18376 ] final   69.36 input   -0.00 | X-H torsion
[ 27250 18217 18216 18215 ] final -150.37 input    0.00 | X-H torsion
[ 27254 17229 17228 17227 ] final -147.16 input   -0.00 | X-H torsion
[ 27259 18320 18319 18318 ] final  124.43 input    0.00 | X-H torsion
[ 27261 18468 18467 18466 ] final  -66.54 input    0.00 | X-H torsion
[ 27264 18282 18281 18280 ] final   27.96 input   -0.00 | X-H torsion
[ 27267 17020 17019 17018 ] final -165.53 input   -0.00 | X-H torsion
[ 27275 16960 16959 16958 ] final  -18.86 input    0.00 | X-H torsion

> <Gold.Protein.ActiveResidues>
 TRP414  CYS420  VAL421  GLY422  LEU460  SER462  SER482  GLN483  ILE485  ARG486 
 TYR487  ASP500  ASN503  TRP566  TYR567  GLY568  LEU569  PRO570  ALA571  VAL572 
 SER573  ASN574  PHE589  SER590  GLY591  TRP592  TYR593  MET594  GLY595  THR596 
 GLU597  ILE598  GLY599  VAL600  ARG601  ASP602  TYR603  ARG608  ILE653  VAL654 
 TRP683  PRO687  HEM750  H4B760 

> <Gold.Protein.RotatedAtoms>
  241.9334   10.9726   32.2004 H   0  0  0  0  0  0  0  0  0  0  0  0  # atno 7496 bound_to 7462
  241.0069    8.1394   31.5550 H   0  0  0  0  0  0  0  0  0  0  0  0  # atno 7530 bound_to 7517
  247.1192    1.7617   35.9905 H   0  0  0  0  0  0  0  0  0  0  0  0  # atno 10120 bound_to 10100
  253.7436   19.6704   41.0792 H   0  0  0  0  0  0  0  0  0  0  0  0  # atno 11440 bound_to 11420
  254.2975   16.0453   43.2448 H   0  0  0  0  0  0  0  0  0  0  0  0  # atno 11501 bound_to 11468
  258.2799   12.9798   41.6253 H   0  0  0  0  0  0  0  0  0  0  0  0  # atno 11650 bound_to 11609
  260.2990   18.0778   36.8413 H   0  0  0  0  0  0  0  0  0  0  0  0  # atno 11832 bound_to 11793
  260.9205   12.3971   31.0056 H   0  0  0  0  0  0  0  0  0  0  0  0  # atno 16996 bound_to 16957
  256.6668   16.1483   35.4227 H   0  0  0  0  0  0  0  0  0  0  0  0  # atno 17004 bound_to 16968
  254.5539   10.9947   38.4541 H   0  0  0  0  0  0  0  0  0  0  0  0  # atno 17200 bound_to 17180
  250.8799   11.0059   40.1095 H   0  0  0  0  0  0  0  0  0  0  0  0  # atno 17260 bound_to 17226
  251.8629   14.0805   43.2256 H   0  0  0  0  0  0  0  0  0  0  0  0  # atno 17308 bound_to 17287
  249.8280    7.3781   40.9373 H   0  0  0  0  0  0  0  0  0  0  0  0  # atno 18300 bound_to 18279
  253.1683    4.8848   40.5961 H   0  0  0  0  0  0  0  0  0  0  0  0  # atno 18304 bound_to 18284
  249.6055    6.8325   37.3889 H   0  0  0  0  0  0  0  0  0  0  0  0  # atno 18330 bound_to 18317
  250.0500    6.6108   34.1873 H   0  0  0  0  0  0  0  0  0  0  0  0  # atno 18419 bound_to 18375
  251.1148    7.2076   31.0157 H   0  0  0  0  0  0  0  0  0  0  0  0  # atno 18504 bound_to 18465
  254.8212   13.3849   34.3559 H   0  0  0  0  0  0  0  0  0  0  0  0  # atno 18512 bound_to 18476
  249.2137    9.3866   29.4282 H   0  0  0  0  0  0  0  0  0  0  0  0  # atno 18572 bound_to 18537
  249.9893   11.6588   26.4678 H   0  0  0  0  0  0  0  0  0  0  0  0  # atno 18606 bound_to 18593
  247.0938   15.5936   26.2099 H   0  0  0  0  0  0  0  0  0  0  0  0  # atno 18664 bound_to 18636
  249.6306   14.4019   27.3886 H   0  0  0  0  0  0  0  0  0  0  0  0  # atno 18719 bound_to 18692
  252.1129   16.4446   28.3100 H   0  0  0  0  0  0  0  0  0  0  0  0  # atno 18790 bound_to 18749
  253.9967   17.1532   26.2726 H   0  0  0  0  0  0  0  0  0  0  0  0  # atno 18826 bound_to 18813
  252.6264   18.5329   25.4015 H   0  0  0  0  0  0  0  0  0  0  0  0  # atno 18884 bound_to 18850
  251.1357   20.6829   25.9050 H   0  0  0  0  0  0  0  0  0  0  0  0  # atno 18976 bound_to 18926
  253.3419   20.3844   27.9911 H   0  0  0  0  0  0  0  0  0  0  0  0  # atno 19033 bound_to 19013
  255.3152   21.5109   28.2307 H   0  0  0  0  0  0  0  0  0  0  0  0  # atno 19112 bound_to 19073
  251.4419    6.6497   25.3254 H   0  0  0  0  0  0  0  0  0  0  0  0  # atno 22456 bound_to 22422
  256.4661   15.2936   36.7929 LP  0  0  0  0  0  0  0  0  0  0  0  0  # atno 27193 bound_to 16968
  255.6375   14.8880   35.4455 LP  0  0  0  0  0  0  0  0  0  0  0  0  # atno 27194 bound_to 16968
  254.5054   14.5710   33.2881 LP  0  0  0  0  0  0  0  0  0  0  0  0  # atno 27195 bound_to 18476
  255.9404   13.7928   33.2478 LP  0  0  0  0  0  0  0  0  0  0  0  0  # atno 27196 bound_to 18476
  250.5833   10.4391   29.1502 LP  0  0  0  0  0  0  0  0  0  0  0  0  # atno 27197 bound_to 18537
  251.1955   12.2203   28.3793 LP  0  0  0  0  0  0  0  0  0  0  0  0  # atno 27198 bound_to 18540
  250.1565   13.2779   27.4836 LP  0  0  0  0  0  0  0  0  0  0  0  0  # atno 27199 bound_to 18540
  250.0338   17.8686   25.7221 LP  0  0  0  0  0  0  0  0  0  0  0  0  # atno 27200 bound_to 18633
  251.1026   17.5496   27.0472 LP  0  0  0  0  0  0  0  0  0  0  0  0  # atno 27201 bound_to 18633
  250.2443   15.8056   26.5615 LP  0  0  0  0  0  0  0  0  0  0  0  0  # atno 27202 bound_to 18692
  251.4102   18.1344   29.5754 LP  0  0  0  0  0  0  0  0  0  0  0  0  # atno 27203 bound_to 18695
  253.1005   17.7777   29.4498 LP  0  0  0  0  0  0  0  0  0  0  0  0  # atno 27204 bound_to 18695
  252.5257   14.8402   27.7418 LP  0  0  0  0  0  0  0  0  0  0  0  0  # atno 27209 bound_to 18749
  252.5879   20.1371   29.5491 LP  0  0  0  0  0  0  0  0  0  0  0  0  # atno 27210 bound_to 19013
  252.7155    8.1700   37.3755 LP  0  0  0  0  0  0  0  0  0  0  0  0  # atno 27222 bound_to 17133
  251.4240    9.3109   37.5496 LP  0  0  0  0  0  0  0  0  0  0  0  0  # atno 27223 bound_to 17133
  252.9720   10.5887   37.8278 LP  0  0  0  0  0  0  0  0  0  0  0  0  # atno 27224 bound_to 17180
  252.4714   11.5374   40.6103 LP  0  0  0  0  0  0  0  0  0  0  0  0  # atno 27225 bound_to 17226
  257.2038   13.6551   38.6521 LP  0  0  0  0  0  0  0  0  0  0  0  0  # atno 27226 bound_to 11612
  258.0980   14.5183   37.4457 LP  0  0  0  0  0  0  0  0  0  0  0  0  # atno 27227 bound_to 11612
  256.5210    9.7764   37.7558 LP  0  0  0  0  0  0  0  0  0  0  0  0  # atno 27230 bound_to 17060
  257.0357   10.7233   36.3999 LP  0  0  0  0  0  0  0  0  0  0  0  0  # atno 27231 bound_to 17060
  255.6487   18.3818   27.2530 LP  0  0  0  0  0  0  0  0  0  0  0  0  # atno 27232 bound_to 18752
  254.4601   19.0052   26.1582 LP  0  0  0  0  0  0  0  0  0  0  0  0  # atno 27233 bound_to 18752
  253.1992   13.8465   25.6276 LP  0  0  0  0  0  0  0  0  0  0  0  0  # atno 27234 bound_to 18596
  252.2987   15.2054   25.0424 LP  0  0  0  0  0  0  0  0  0  0  0  0  # atno 27235 bound_to 18596
  253.7298   15.6393   25.4351 LP  0  0  0  0  0  0  0  0  0  0  0  0  # atno 27236 bound_to 18813
  251.4559   19.2703   26.8771 LP  0  0  0  0  0  0  0  0  0  0  0  0  # atno 27237 bound_to 18926
  253.6971   22.7778   29.4671 LP  0  0  0  0  0  0  0  0  0  0  0  0  # atno 27238 bound_to 18929
  252.8540   23.2030   28.0152 LP  0  0  0  0  0  0  0  0  0  0  0  0  # atno 27239 bound_to 18929
  256.6811   22.8952   28.7341 LP  0  0  0  0  0  0  0  0  0  0  0  0  # atno 27240 bound_to 19016
  256.7607   21.9796   30.2022 LP  0  0  0  0  0  0  0  0  0  0  0  0  # atno 27241 bound_to 19016
  255.4049   20.0038   27.3473 LP  0  0  0  0  0  0  0  0  0  0  0  0  # atno 27242 bound_to 19073
  251.7505   15.5749   43.3315 LP  0  0  0  0  0  0  0  0  0  0  0  0  # atno 27243 bound_to 11418
  251.9735   15.7767   41.6257 LP  0  0  0  0  0  0  0  0  0  0  0  0  # atno 27244 bound_to 11418
  253.6276   12.8804   41.4805 LP  0  0  0  0  0  0  0  0  0  0  0  0  # atno 27245 bound_to 17183
  254.1117   11.3640   42.1633 LP  0  0  0  0  0  0  0  0  0  0  0  0  # atno 27246 bound_to 17183
  249.3792    8.1353   32.8015 LP  0  0  0  0  0  0  0  0  0  0  0  0  # atno 27247 bound_to 18378
  249.0780    7.6007   31.1817 LP  0  0  0  0  0  0  0  0  0  0  0  0  # atno 27248 bound_to 18378
  252.6504    7.8904   31.5027 LP  0  0  0  0  0  0  0  0  0  0  0  0  # atno 27249 bound_to 18465
  250.4419    9.0034   40.0887 LP  0  0  0  0  0  0  0  0  0  0  0  0  # atno 27250 bound_to 18217
  250.8084    9.3504   41.7456 LP  0  0  0  0  0  0  0  0  0  0  0  0  # atno 27251 bound_to 18217
  250.0482   11.2303   44.1771 LP  0  0  0  0  0  0  0  0  0  0  0  0  # atno 27254 bound_to 17229
  250.5489   10.4757   42.7007 LP  0  0  0  0  0  0  0  0  0  0  0  0  # atno 27255 bound_to 17229
  250.2021    5.6724   40.9633 LP  0  0  0  0  0  0  0  0  0  0  0  0  # atno 27256 bound_to 18279
  251.1987    6.1116   37.3892 LP  0  0  0  0  0  0  0  0  0  0  0  0  # atno 27257 bound_to 18317
  250.3359    4.9076   33.8999 LP  0  0  0  0  0  0  0  0  0  0  0  0  # atno 27258 bound_to 18375
  252.4802    4.3012   34.4701 LP  0  0  0  0  0  0  0  0  0  0  0  0  # atno 27259 bound_to 18320
  252.5785    5.3649   35.8335 LP  0  0  0  0  0  0  0  0  0  0  0  0  # atno 27260 bound_to 18320
  251.5258    7.9901   27.7276 LP  0  0  0  0  0  0  0  0  0  0  0  0  # atno 27261 bound_to 18468
  249.9577    7.4211   28.1934 LP  0  0  0  0  0  0  0  0  0  0  0  0  # atno 27262 bound_to 18468
  242.4796    8.8639   32.1564 LP  0  0  0  0  0  0  0  0  0  0  0  0  # atno 27263 bound_to 7517
  249.5787    4.5291   39.5963 LP  0  0  0  0  0  0  0  0  0  0  0  0  # atno 27264 bound_to 18282
  249.8645    3.8760   38.0177 LP  0  0  0  0  0  0  0  0  0  0  0  0  # atno 27265 bound_to 18282
  240.3077   10.6842   32.7863 LP  0  0  0  0  0  0  0  0  0  0  0  0  # atno 27266 bound_to 7462
  255.5685    7.7033   33.2217 LP  0  0  0  0  0  0  0  0  0  0  0  0  # atno 27267 bound_to 17020
  256.3677    7.1945   31.7717 LP  0  0  0  0  0  0  0  0  0  0  0  0  # atno 27268 bound_to 17020
  250.2846   10.3104   25.3887 LP  0  0  0  0  0  0  0  0  0  0  0  0  # atno 27269 bound_to 18593
  248.7015    1.4598   35.7581 LP  0  0  0  0  0  0  0  0  0  0  0  0  # atno 27270 bound_to 10100
  248.2130    2.9390   36.2479 LP  0  0  0  0  0  0  0  0  0  0  0  0  # atno 27271 bound_to 10100
  253.1032    4.4986   39.0168 LP  0  0  0  0  0  0  0  0  0  0  0  0  # atno 27272 bound_to 18284
  251.7357    4.5347   39.9086 LP  0  0  0  0  0  0  0  0  0  0  0  0  # atno 27273 bound_to 18284
  254.6514   16.7363   41.6745 LP  0  0  0  0  0  0  0  0  0  0  0  0  # atno 27274 bound_to 11468
  258.2470   11.8304   31.9173 LP  0  0  0  0  0  0  0  0  0  0  0  0  # atno 27275 bound_to 16960
  257.8266   10.2435   31.3650 LP  0  0  0  0  0  0  0  0  0  0  0  0  # atno 27276 bound_to 16960

> <Gold.Score>
     Fitness  S(hb_ext) S(vdw_ext)  S(hb_int)    S(int)      intcor
     30.06       5.89      19.53       0.00      -2.69      -0.76

> <Gold.Goldscore.Fitness>
30.0576

> <Gold.Goldscore.Internal.Vdw>
-2.9738

> <Gold.Goldscore.Internal.Torsion>
-0.4779

> <Gold.Goldscore.External.Vdw>
19.5296

> <Gold.Goldscore.Internal.HBond>
0.0000

> <Gold.Goldscore.External.HBond>
5.8912

> <Gold.Goldscore.Internal.Correction>
-0.7650

> <Gold.Goldscore.Hbonds>
donor molecule, donor type, donor heavy atom, donor atom, acceptor molecule, acceptor atom, score
      P1  H 11704 11755       L1    17  0.98

> <Gold.Goldscore.Internal.Vdw.Weighted>
-2.9738

> <Gold.Goldscore.Internal.Torsion.Weighted>
-0.4779

> <Gold.Goldscore.External.Vdw.Weighted>
26.8532

> <Gold.Goldscore.Internal.HBond.Weighted>
0.0000

> <Gold.Goldscore.External.HBond.Weighted>
5.8912

> <Gold.Goldscore.Internal.Correction.Weighted>
-0.7650

> <Gold.Rescore>
     Score     S(PLP)   S(hbond)     S(cho)   S(metal)  DE(clash)   DE(tors)     intcor
     26.51     -22.91       1.67       0.00       0.00       1.28       0.07       ----

> <Gold.PLP.Fitness>
26.5094

> <Gold.PLP.PLP>
-22.9114

> <Gold.PLP.part.hbond>
-2.0000

> <Gold.PLP.part.metal>
0.0000

> <Gold.PLP.part.buried>
-5.7382

> <Gold.PLP.part.nonpolar>
-16.8847

> <Gold.PLP.part.repulsive>
0.3768

> <Gold.PLP.ligand.clash>
1.2801

> <Gold.PLP.ligand.torsion>
0.0668

> <Gold.PLP.Chemscore.Hbond>
1.6706

> <Gold.PLP.Chemscore.CHOScore>
0.0000

> <Gold.PLP.Chemscore.Metal>
0.0000

> <Gold.Chemscore.Hbonds>
donor molecule, donor type, donor heavy atom, donor atom, acceptor molecule, acceptor atom, score
      P1  H 11704 11755       L1    17  1.00

> <Gold.PLP.Chemscore.Internal.Correction>
   9.000000E+99

