#       Name:                CT1002167954
#       Creating user name   hitesit
#       Creation time:       Sun Apr 16 20:33:12 2023


#       File generated by GOLD software.
#

@<TRIPOS>MOLECULE
CT1002167954|ligand_prepared|mol2|1|dock2
    29    30     1
SMALL
NO_CHARGES


@<TRIPOS>ATOM
      1 C1         250.6069  17.0917  34.0638 C.3            1 RES1               0.0000
      2 C2         249.9310  16.7122  35.3972 C.ar           1 RES1               0.0000
      3 C3         251.2125  18.4770  34.2694 C.2            1 RES1               0.0000
      4 C4         251.6328  16.0001  33.7797 C.2            1 RES1               0.0000
      5 C5         249.6321  17.1548  32.8649 C.3            1 RES1               0.0000
      6 C6         250.2814  17.3591  36.5785 C.ar           1 RES1               0.0000
      7 C7         248.9553  15.7210  35.4612 C.ar           1 RES1               0.0000
      8 N8         252.5675  18.5612  34.3999 N.am           1 RES1               0.0000
      9 O9         250.5087  19.4757  34.3553 O.2            1 RES1               0.0000
     10 N10        252.9585  16.3467  33.7893 N.am           1 RES1               0.0000
     11 O11        251.3059  14.8395  33.5642 O.2            1 RES1               0.0000
     12 C12        250.1997  17.8722  31.6502 C.3            1 RES1               0.0000
     13 C13        249.6762  17.0292  37.7798 C.ar           1 RES1               0.0000
     14 C14        248.3514  15.3925  36.6637 C.ar           1 RES1               0.0000
     15 C15        253.4738  17.5712  34.1168 C.2            1 RES1               0.0000
     16 C16        248.7106  16.0461  37.8232 C.ar           1 RES1               0.0000
     17 O17        254.6809  17.7913  34.1560 O.2            1 RES1               0.0000
     18 H18        249.3610  16.1318  32.5760 H              1 RES1               0.0000
     19 H19        248.7156  17.6678  33.1816 H              1 RES1               0.0000
     20 H20        251.0409  18.1337  36.5643 H              1 RES1               0.0000
     21 H21        248.6576  15.1928  34.5617 H              1 RES1               0.0000
     22 H22        252.9414  19.4417  34.7394 H              1 RES1               0.0000
     23 H23        253.6228  15.6250  33.5280 H              1 RES1               0.0000
     24 H24        249.4756  17.8880  30.8384 H              1 RES1               0.0000
     25 H25        250.4570  18.9006  31.8950 H              1 RES1               0.0000
     26 H26        251.0985  17.3737  31.2930 H              1 RES1               0.0000
     27 H27        249.9634  17.5456  38.6898 H              1 RES1               0.0000
     28 H28        247.5924  14.6177  36.6932 H              1 RES1               0.0000
     29 H29        248.2364  15.7881  38.7643 H              1 RES1               0.0000
@<TRIPOS>BOND
    1    1    2 1     
    2    1    3 1     
    3    1    4 1     
    4    1    5 1     
    5    2    6 ar    
    6    2    7 ar    
    7    3    8 1     
    8    3    9 2     
    9    4   10 1     
   10    4   11 2     
   11    5   12 1     
   12    5   18 1     
   13    5   19 1     
   14    6   13 ar    
   15    6   20 1     
   16    7   14 ar    
   17    7   21 1     
   18    8   15 1     
   19    8   22 1     
   20   10   15 1     
   21   10   23 1     
   22   12   24 1     
   23   12   25 1     
   24   12   26 1     
   25   13   16 ar    
   26   13   27 1     
   27   14   16 ar    
   28   14   28 1     
   29   15   17 2     
   30   16   29 1     
@<TRIPOS>SUBSTRUCTURE
      1 RES1           1
@<TRIPOS>SET
DONOR_HYDROGENS      STATIC     ATOMS    <user>   **** ""
2 22 23
ATOM$RED        STATIC     ATOMS    COLORGROUP SYSTEM
2 22 23
@<TRIPOS>COMMENT
> <Gold.Version>
2022.3.0

> <Gold.Id.Protein>
unknown|4d1n_clean|pdb

> <Gold.Protein.RotatedTorsions>
[ 17004 16968 16967 16965 ] final  102.42 input   59.98 | X-H torsion
[ 18512 18476 18475 18473 ] final  121.86 input   59.98 | X-H torsion
[ 18572 18537 18538 18539 ] final   45.08 input   87.04 | X-H torsion
[ 18719 18692 18693 18694 ] final   77.80 input  124.02 | X-H torsion
[ 18790 18749 18750 18751 ] final  -33.48 input   91.60 | X-H torsion
[ 19033 19013 19014 19015 ] final   91.67 input  122.46 | X-H torsion
[ 17200 17180 17181 17182 ] final -165.02 input   47.21 | X-H torsion
[ 17260 17226 17227 17228 ] final  153.00 input  117.85 | X-H torsion
[ 18826 18813 18814 18815 ] final  -68.07 input  116.01 | X-H torsion
[ 18976 18926 18927 18928 ] final    0.95 input  102.20 | X-H torsion
[ 19112 19073 19074 19075 ] final -164.15 input   89.03 | X-H torsion
[ 18504 18465 18466 18467 ] final  179.22 input  102.26 | X-H torsion
[ 18300 18279 18280 18281 ] final  106.70 input   28.27 | X-H torsion
[ 18330 18317 18318 18319 ] final   76.79 input   50.43 | X-H torsion
[ 18419 18375 18376 18377 ] final  111.33 input   32.92 | X-H torsion
[ 7530 7517 7518 7519 ] final  -90.21 input   89.56 | X-H torsion
[ 7496 7462 7463 7464 ] final  164.99 input  103.52 | X-H torsion
[ 18606 18593 18594 18595 ] final  -85.28 input  124.70 | X-H torsion
[ 10120 10100 10099 10096 ] final  124.38 input   60.00 | X-H torsion
[ 18304 18284 18283 18280 ] final   50.06 input   60.01 | X-H torsion
[ 11501 11468 11469 11470 ] final   88.39 input   45.03 | X-H torsion
[ 18664 18636 18634 18631 ] final  -52.63 input   60.01 | X-H torsion
[ 18884 18850 18851 18852 ] final   -5.39 input   84.91 | X-H torsion
[ 17308 17287 17288 17289 ] final  -35.64 input   50.16 | X-H torsion
[ 22456 22422 22423 22424 ] final  -53.59 input   54.84 | X-H torsion
[ 11440 11420 11419 11416 ] final -177.89 input   60.01 | X-H torsion
[ 11650 11609 11610 11611 ] final   71.35 input   61.57 | X-H torsion
[ 11832 11793 11794 11795 ] final -146.52 input   91.14 | X-H torsion
[ 16996 16957 16958 16959 ] final   71.88 input   91.87 | X-H torsion
[ 27198 18540 18539 18538 ] final   34.97 input   -0.00 | X-H torsion
[ 27200 18633 18632 18631 ] final   -4.14 input    0.00 | X-H torsion
[ 27203 18695 18694 18693 ] final  -51.98 input   -0.00 | X-H torsion
[ 27222 17133 17132 17131 ] final    0.28 input    0.00 | X-H torsion
[ 27226 11612 11611 11610 ] final  -92.93 input    0.00 | X-H torsion
[ 27230 17060 17059 17058 ] final   15.40 input   -0.00 | X-H torsion
[ 27232 18752 18751 18750 ] final   12.62 input    0.00 | X-H torsion
[ 27234 18596 18595 18594 ] final   12.71 input   -0.00 | X-H torsion
[ 27238 18929 18928 18927 ] final   39.45 input   -0.00 | X-H torsion
[ 27240 19016 19015 19014 ] final -154.68 input   -0.00 | X-H torsion
[ 27243 11418 11417 11416 ] final  -60.49 input    0.00 | X-H torsion
[ 27245 17183 17182 17181 ] final -164.55 input   -0.00 | X-H torsion
[ 27247 18378 18377 18376 ] final  -36.52 input   -0.00 | X-H torsion
[ 27250 18217 18216 18215 ] final   67.56 input    0.00 | X-H torsion
[ 27254 17229 17228 17227 ] final -112.43 input   -0.00 | X-H torsion
[ 27259 18320 18319 18318 ] final -116.63 input    0.00 | X-H torsion
[ 27261 18468 18467 18466 ] final -102.63 input    0.00 | X-H torsion
[ 27264 18282 18281 18280 ] final  -66.00 input   -0.00 | X-H torsion
[ 27267 17020 17019 17018 ] final   47.82 input   -0.00 | X-H torsion
[ 27275 16960 16959 16958 ] final   77.57 input    0.00 | X-H torsion

> <Gold.Protein.ActiveResidues>
 TRP414  CYS420  VAL421  GLY422  LEU460  SER462  SER482  GLN483  ILE485  ARG486 
 TYR487  ASP500  ASN503  TRP566  TYR567  GLY568  LEU569  PRO570  ALA571  VAL572 
 SER573  ASN574  PHE589  SER590  GLY591  TRP592  TYR593  MET594  GLY595  THR596 
 GLU597  ILE598  GLY599  VAL600  ARG601  ASP602  TYR603  ARG608  ILE653  VAL654 
 TRP683  PRO687  HEM750  H4B760 

> <Gold.Protein.RotatedAtoms>
  240.9453   11.5943   32.0740 H   0  0  0  0  0  0  0  0  0  0  0  0  # atno 7496 bound_to 7462
  241.3692    8.2932   31.0908 H   0  0  0  0  0  0  0  0  0  0  0  0  # atno 7530 bound_to 7517
  247.4968    1.2908   35.8152 H   0  0  0  0  0  0  0  0  0  0  0  0  # atno 10120 bound_to 10100
  253.9332   20.1116   41.4171 H   0  0  0  0  0  0  0  0  0  0  0  0  # atno 11440 bound_to 11420
  254.9419   16.7031   41.7457 H   0  0  0  0  0  0  0  0  0  0  0  0  # atno 11501 bound_to 11468
  257.5272   12.0968   40.3527 H   0  0  0  0  0  0  0  0  0  0  0  0  # atno 11650 bound_to 11609
  261.1912   17.0242   37.5061 H   0  0  0  0  0  0  0  0  0  0  0  0  # atno 11832 bound_to 11793
  259.9638   13.1847   32.1259 H   0  0  0  0  0  0  0  0  0  0  0  0  # atno 16996 bound_to 16957
  256.6401   15.5262   36.7369 H   0  0  0  0  0  0  0  0  0  0  0  0  # atno 17004 bound_to 16968
  253.7371    9.9579   37.8259 H   0  0  0  0  0  0  0  0  0  0  0  0  # atno 17200 bound_to 17180
  251.1822   11.5001   39.6668 H   0  0  0  0  0  0  0  0  0  0  0  0  # atno 17260 bound_to 17226
  250.5177   13.7115   43.4272 H   0  0  0  0  0  0  0  0  0  0  0  0  # atno 17308 bound_to 17287
  250.7104    6.0883   41.2866 H   0  0  0  0  0  0  0  0  0  0  0  0  # atno 18300 bound_to 18279
  252.1203    4.3998   39.1241 H   0  0  0  0  0  0  0  0  0  0  0  0  # atno 18304 bound_to 18284
  250.1474    7.1680   36.9157 H   0  0  0  0  0  0  0  0  0  0  0  0  # atno 18330 bound_to 18317
  250.0090    4.9880   33.6099 H   0  0  0  0  0  0  0  0  0  0  0  0  # atno 18419 bound_to 18375
  252.3782    8.0367   31.8305 H   0  0  0  0  0  0  0  0  0  0  0  0  # atno 18504 bound_to 18465
  255.1600   13.2536   34.2906 H   0  0  0  0  0  0  0  0  0  0  0  0  # atno 18512 bound_to 18476
  250.0105   10.7894   29.4452 H   0  0  0  0  0  0  0  0  0  0  0  0  # atno 18572 bound_to 18537
  250.5715   11.0660   26.6937 H   0  0  0  0  0  0  0  0  0  0  0  0  # atno 18606 bound_to 18593
  247.8576   14.0003   25.6305 H   0  0  0  0  0  0  0  0  0  0  0  0  # atno 18664 bound_to 18636
  250.3955   14.3890   27.1690 H   0  0  0  0  0  0  0  0  0  0  0  0  # atno 18719 bound_to 18692
  252.0544   16.4096   27.6868 H   0  0  0  0  0  0  0  0  0  0  0  0  # atno 18790 bound_to 18749
  254.3291   17.0259   26.2474 H   0  0  0  0  0  0  0  0  0  0  0  0  # atno 18826 bound_to 18813
  252.7807   18.6211   25.3185 H   0  0  0  0  0  0  0  0  0  0  0  0  # atno 18884 bound_to 18850
  252.1717   19.9165   26.4299 H   0  0  0  0  0  0  0  0  0  0  0  0  # atno 18976 bound_to 18926
  253.2256   19.4862   28.4384 H   0  0  0  0  0  0  0  0  0  0  0  0  # atno 19033 bound_to 19013
  256.0083   20.2348   28.1081 H   0  0  0  0  0  0  0  0  0  0  0  0  # atno 19112 bound_to 19073
  251.4223    6.7361   25.3419 H   0  0  0  0  0  0  0  0  0  0  0  0  # atno 22456 bound_to 22422
  255.6321   14.7610   35.7138 LP  0  0  0  0  0  0  0  0  0  0  0  0  # atno 27193 bound_to 16968
  256.4985   16.0468   35.2016 LP  0  0  0  0  0  0  0  0  0  0  0  0  # atno 27194 bound_to 16968
  254.3005   14.4284   33.5638 LP  0  0  0  0  0  0  0  0  0  0  0  0  # atno 27195 bound_to 18476
  255.8039   14.0678   33.0378 LP  0  0  0  0  0  0  0  0  0  0  0  0  # atno 27196 bound_to 18476
  249.8109    9.0794   29.1338 LP  0  0  0  0  0  0  0  0  0  0  0  0  # atno 27197 bound_to 18537
  250.6876   12.2396   28.6316 LP  0  0  0  0  0  0  0  0  0  0  0  0  # atno 27198 bound_to 18540
  250.6644   13.2586   27.2313 LP  0  0  0  0  0  0  0  0  0  0  0  0  # atno 27199 bound_to 18540
  250.5467   17.7512   25.5199 LP  0  0  0  0  0  0  0  0  0  0  0  0  # atno 27200 bound_to 18633
  250.5898   17.6671   27.2494 LP  0  0  0  0  0  0  0  0  0  0  0  0  # atno 27201 bound_to 18633
  249.4806   15.8185   26.7808 LP  0  0  0  0  0  0  0  0  0  0  0  0  # atno 27202 bound_to 18692
  251.5963   18.3543   29.1163 LP  0  0  0  0  0  0  0  0  0  0  0  0  # atno 27203 bound_to 18695
  252.9144   17.5579   29.9089 LP  0  0  0  0  0  0  0  0  0  0  0  0  # atno 27204 bound_to 18695
  252.5822   14.8739   28.3428 LP  0  0  0  0  0  0  0  0  0  0  0  0  # atno 27209 bound_to 18749
  252.7010   21.0112   29.1139 LP  0  0  0  0  0  0  0  0  0  0  0  0  # atno 27210 bound_to 19013
  252.1549    8.6708   36.6035 LP  0  0  0  0  0  0  0  0  0  0  0  0  # atno 27222 bound_to 17133
  251.9847    8.8100   38.3216 LP  0  0  0  0  0  0  0  0  0  0  0  0  # atno 27223 bound_to 17133
  253.7655   11.5961   38.4381 LP  0  0  0  0  0  0  0  0  0  0  0  0  # atno 27224 bound_to 17180
  252.1799   11.0609   41.0372 LP  0  0  0  0  0  0  0  0  0  0  0  0  # atno 27225 bound_to 17226
  258.1625   13.9013   37.3752 LP  0  0  0  0  0  0  0  0  0  0  0  0  # atno 27226 bound_to 11612
  257.1393   14.2721   38.7226 LP  0  0  0  0  0  0  0  0  0  0  0  0  # atno 27227 bound_to 11612
  257.5254    9.8806   36.8420 LP  0  0  0  0  0  0  0  0  0  0  0  0  # atno 27230 bound_to 17060
  256.0314   10.6191   37.3137 LP  0  0  0  0  0  0  0  0  0  0  0  0  # atno 27231 bound_to 17060
  255.3320   18.5008   27.5030 LP  0  0  0  0  0  0  0  0  0  0  0  0  # atno 27232 bound_to 18752
  254.7769   18.8861   25.9082 LP  0  0  0  0  0  0  0  0  0  0  0  0  # atno 27233 bound_to 18752
  253.2687   13.8524   25.1731 LP  0  0  0  0  0  0  0  0  0  0  0  0  # atno 27234 bound_to 18596
  252.2292   15.1995   25.4968 LP  0  0  0  0  0  0  0  0  0  0  0  0  # atno 27235 bound_to 18596
  253.4085   15.7625   25.4595 LP  0  0  0  0  0  0  0  0  0  0  0  0  # atno 27236 bound_to 18813
  250.4323   20.0276   26.3584 LP  0  0  0  0  0  0  0  0  0  0  0  0  # atno 27237 bound_to 18926
  252.4877   23.2504   28.9895 LP  0  0  0  0  0  0  0  0  0  0  0  0  # atno 27238 bound_to 18929
  254.0634   22.7304   28.4928 LP  0  0  0  0  0  0  0  0  0  0  0  0  # atno 27239 bound_to 18929
  256.7750   22.8345   28.7005 LP  0  0  0  0  0  0  0  0  0  0  0  0  # atno 27240 bound_to 19016
  256.6667   22.0403   30.2359 LP  0  0  0  0  0  0  0  0  0  0  0  0  # atno 27241 bound_to 19016
  254.7316   21.2437   27.4664 LP  0  0  0  0  0  0  0  0  0  0  0  0  # atno 27242 bound_to 19073
  251.7621   15.5515   43.3298 LP  0  0  0  0  0  0  0  0  0  0  0  0  # atno 27243 bound_to 11418
  251.9619   15.8001   41.6274 LP  0  0  0  0  0  0  0  0  0  0  0  0  # atno 27244 bound_to 11418
  253.2013   12.4869   42.2346 LP  0  0  0  0  0  0  0  0  0  0  0  0  # atno 27245 bound_to 17183
  254.5380   11.7576   41.4091 LP  0  0  0  0  0  0  0  0  0  0  0  0  # atno 27246 bound_to 17183
  249.0001    7.0351   32.0556 LP  0  0  0  0  0  0  0  0  0  0  0  0  # atno 27247 bound_to 18378
  249.4572    8.7008   31.9276 LP  0  0  0  0  0  0  0  0  0  0  0  0  # atno 27248 bound_to 18378
  251.4251    7.0863   30.7125 LP  0  0  0  0  0  0  0  0  0  0  0  0  # atno 27249 bound_to 18465
  251.2720    9.1559   41.4926 LP  0  0  0  0  0  0  0  0  0  0  0  0  # atno 27250 bound_to 18217
  249.9783    9.1979   40.3417 LP  0  0  0  0  0  0  0  0  0  0  0  0  # atno 27251 bound_to 18217
  249.6522   11.2608   43.8462 LP  0  0  0  0  0  0  0  0  0  0  0  0  # atno 27254 bound_to 17229
  250.9450   10.4452   43.0316 LP  0  0  0  0  0  0  0  0  0  0  0  0  # atno 27255 bound_to 17229
  249.3370    6.9370   40.6208 LP  0  0  0  0  0  0  0  0  0  0  0  0  # atno 27256 bound_to 18279
  250.6720    5.7854   37.8493 LP  0  0  0  0  0  0  0  0  0  0  0  0  # atno 27257 bound_to 18317
  250.3756    6.4754   34.4577 LP  0  0  0  0  0  0  0  0  0  0  0  0  # atno 27258 bound_to 18375
  252.8230    5.6392   35.0341 LP  0  0  0  0  0  0  0  0  0  0  0  0  # atno 27259 bound_to 18320
  252.2357    4.0269   35.2695 LP  0  0  0  0  0  0  0  0  0  0  0  0  # atno 27260 bound_to 18320
  251.1644    8.2110   27.3985 LP  0  0  0  0  0  0  0  0  0  0  0  0  # atno 27261 bound_to 18468
  250.3191    7.2002   28.5226 LP  0  0  0  0  0  0  0  0  0  0  0  0  # atno 27262 bound_to 18468
  242.1261    8.7138   32.6092 LP  0  0  0  0  0  0  0  0  0  0  0  0  # atno 27263 bound_to 7517
  250.5311    3.9552   38.9902 LP  0  0  0  0  0  0  0  0  0  0  0  0  # atno 27264 bound_to 18282
  248.9121    4.4498   38.6238 LP  0  0  0  0  0  0  0  0  0  0  0  0  # atno 27265 bound_to 18282
  241.2587   10.0858   32.9079 LP  0  0  0  0  0  0  0  0  0  0  0  0  # atno 27266 bound_to 7462
  256.3632    6.8025   32.0771 LP  0  0  0  0  0  0  0  0  0  0  0  0  # atno 27267 bound_to 17020
  255.5730    8.0953   32.9162 LP  0  0  0  0  0  0  0  0  0  0  0  0  # atno 27268 bound_to 17020
  249.7243   10.8808   25.1713 LP  0  0  0  0  0  0  0  0  0  0  0  0  # atno 27269 bound_to 18593
  248.9471    2.0235   35.9071 LP  0  0  0  0  0  0  0  0  0  0  0  0  # atno 27270 bound_to 10100
  247.5874    2.8493   36.2754 LP  0  0  0  0  0  0  0  0  0  0  0  0  # atno 27271 bound_to 10100
  252.2944    4.7933   40.6933 LP  0  0  0  0  0  0  0  0  0  0  0  0  # atno 27272 bound_to 18284
  253.6003    4.7286   39.7150 LP  0  0  0  0  0  0  0  0  0  0  0  0  # atno 27273 bound_to 18284
  254.0314   16.1034   43.1169 LP  0  0  0  0  0  0  0  0  0  0  0  0  # atno 27274 bound_to 11468
  258.4615   11.0809   30.8877 LP  0  0  0  0  0  0  0  0  0  0  0  0  # atno 27275 bound_to 16960
  257.6121   10.9930   32.3946 LP  0  0  0  0  0  0  0  0  0  0  0  0  # atno 27276 bound_to 16960

> <Gold.Score>
     Fitness  S(hb_ext) S(vdw_ext)  S(hb_int)    S(int)      intcor
     37.88       6.45      24.01       0.00      -1.58      -0.76

> <Gold.Goldscore.Fitness>
37.8792

> <Gold.Goldscore.Internal.Vdw>
-1.6177

> <Gold.Goldscore.Internal.Torsion>
-0.7317

> <Gold.Goldscore.External.Vdw>
24.0109

> <Gold.Goldscore.Internal.HBond>
0.0000

> <Gold.Goldscore.External.HBond>
6.4487

> <Gold.Goldscore.Internal.Correction>
-0.7650

> <Gold.Goldscore.Hbonds>
donor molecule, donor type, donor heavy atom, donor atom, acceptor molecule, acceptor atom, score
      P1  H 11704 11756       L1    17  0.06
      P1  H 19356 19407       L1    17  0.78
      L1  H    10    23       P1 18476  0.73

> <Gold.Goldscore.Internal.Vdw.Weighted>
-1.6177

> <Gold.Goldscore.Internal.Torsion.Weighted>
-0.7317

> <Gold.Goldscore.External.Vdw.Weighted>
33.0150

> <Gold.Goldscore.Internal.HBond.Weighted>
0.0000

> <Gold.Goldscore.External.HBond.Weighted>
6.4487

> <Gold.Goldscore.Internal.Correction.Weighted>
-0.7650

> <Gold.Rescore>
     Score     S(PLP)   S(hbond)     S(cho)   S(metal)  DE(clash)   DE(tors)     intcor
     21.60     -21.56       2.10       0.00       0.00       3.58       1.34       ----

> <Gold.PLP.Fitness>
21.6030

> <Gold.PLP.PLP>
-21.5580

> <Gold.PLP.part.hbond>
-4.6107

> <Gold.PLP.part.metal>
0.0000

> <Gold.PLP.part.buried>
1.2692

> <Gold.PLP.part.nonpolar>
-21.2753

> <Gold.PLP.part.repulsive>
0.9972

> <Gold.PLP.ligand.clash>
3.5845

> <Gold.PLP.ligand.torsion>
1.3365

> <Gold.PLP.Chemscore.Hbond>
2.1008

> <Gold.PLP.Chemscore.CHOScore>
0.0000

> <Gold.PLP.Chemscore.Metal>
0.0000

> <Gold.Chemscore.Hbonds>
donor molecule, donor type, donor heavy atom, donor atom, acceptor molecule, acceptor atom, score
      L1  H    10    23       P1 18476  0.36
      P1  H 19356 19407       L1    17  1.00

> <Gold.PLP.Chemscore.Internal.Correction>
   9.000000E+99

