#       Name:                CT1002167954
#       Creating user name   hitesit
#       Creation time:       Sun Apr 16 20:33:13 2023


#       File generated by GOLD software.
#

@<TRIPOS>MOLECULE
CT1002167954|ligand_prepared|mol2|1|dock4
    29    30     1
SMALL
NO_CHARGES


@<TRIPOS>ATOM
      1 C1         248.7710  10.6782  35.3371 C.3            1 RES1               0.0000
      2 C2         249.0042  12.1920  35.5178 C.ar           1 RES1               0.0000
      3 C3         249.3888  10.0009  36.5569 C.2            1 RES1               0.0000
      4 C4         247.2626  10.4901  35.2184 C.2            1 RES1               0.0000
      5 C5         249.4270  10.0924  34.0651 C.3            1 RES1               0.0000
      6 C6         248.0907  12.9706  36.2221 C.ar           1 RES1               0.0000
      7 C7         250.1274  12.8226  34.9891 C.ar           1 RES1               0.0000
      8 N8         248.5398   9.5077  37.5034 N.am           1 RES1               0.0000
      9 O9         250.6029   9.9358  36.7051 O.2            1 RES1               0.0000
     10 N10        246.6213   9.7998  36.2134 N.am           1 RES1               0.0000
     11 O11        246.6211  10.9478  34.2807 O.2            1 RES1               0.0000
     12 C12        248.9602  10.7500  32.7760 C.3            1 RES1               0.0000
     13 C13        248.2941  14.3298  36.3943 C.ar           1 RES1               0.0000
     14 C14        250.3288  14.1819  35.1623 C.ar           1 RES1               0.0000
     15 C15        247.1870   9.3266  37.3659 C.2            1 RES1               0.0000
     16 C16        249.4133  14.9362  35.8650 C.ar           1 RES1               0.0000
     17 O17        246.5342   8.7632  38.2398 O.2            1 RES1               0.0000
     18 H18        250.5152  10.2052  34.1451 H              1 RES1               0.0000
     19 H19        249.2039   9.0194  34.0149 H              1 RES1               0.0000
     20 H20        247.2028  12.5114  36.6437 H              1 RES1               0.0000
     21 H21        250.8603  12.2492  34.4317 H              1 RES1               0.0000
     22 H22        248.9486   9.2496  38.3959 H              1 RES1               0.0000
     23 H23        245.6305   9.6221  36.0828 H              1 RES1               0.0000
     24 H24        249.4510  10.3019  31.9147 H              1 RES1               0.0000
     25 H25        247.8855  10.6351  32.6515 H              1 RES1               0.0000
     26 H26        249.1890  11.8138  32.7810 H              1 RES1               0.0000
     27 H27        247.5700  14.9192  36.9470 H              1 RES1               0.0000
     28 H28        251.2107  14.6552  34.7434 H              1 RES1               0.0000
     29 H29        249.5727  16.0009  36.0004 H              1 RES1               0.0000
@<TRIPOS>BOND
    1    1    2 1     
    2    1    3 1     
    3    1    4 1     
    4    1    5 1     
    5    2    6 ar    
    6    2    7 ar    
    7    3    8 1     
    8    3    9 2     
    9    4   10 1     
   10    4   11 2     
   11    5   12 1     
   12    5   18 1     
   13    5   19 1     
   14    6   13 ar    
   15    6   20 1     
   16    7   14 ar    
   17    7   21 1     
   18    8   15 1     
   19    8   22 1     
   20   10   15 1     
   21   10   23 1     
   22   12   24 1     
   23   12   25 1     
   24   12   26 1     
   25   13   16 ar    
   26   13   27 1     
   27   14   16 ar    
   28   14   28 1     
   29   15   17 2     
   30   16   29 1     
@<TRIPOS>SUBSTRUCTURE
      1 RES1           1
@<TRIPOS>SET
DONOR_HYDROGENS      STATIC     ATOMS    <user>   **** ""
2 22 23
ATOM$RED        STATIC     ATOMS    COLORGROUP SYSTEM
2 22 23
@<TRIPOS>COMMENT
> <Gold.Version>
2022.3.0

> <Gold.Id.Protein>
unknown|4d1n_clean|pdb

> <Gold.Protein.RotatedTorsions>
[ 17004 16968 16967 16965 ] final -131.88 input   59.98 | X-H torsion
[ 18512 18476 18475 18473 ] final  -44.60 input   59.98 | X-H torsion
[ 18572 18537 18538 18539 ] final   66.68 input   87.04 | X-H torsion
[ 18719 18692 18693 18694 ] final  155.48 input  124.02 | X-H torsion
[ 18790 18749 18750 18751 ] final  164.16 input   91.60 | X-H torsion
[ 19033 19013 19014 19015 ] final  106.15 input  122.46 | X-H torsion
[ 17200 17180 17181 17182 ] final   17.58 input   47.21 | X-H torsion
[ 17260 17226 17227 17228 ] final   94.04 input  117.85 | X-H torsion
[ 18826 18813 18814 18815 ] final -150.65 input  116.01 | X-H torsion
[ 18976 18926 18927 18928 ] final  118.01 input  102.20 | X-H torsion
[ 19112 19073 19074 19075 ] final -118.46 input   89.03 | X-H torsion
[ 18504 18465 18466 18467 ] final  100.46 input  102.26 | X-H torsion
[ 18300 18279 18280 18281 ] final   38.43 input   28.27 | X-H torsion
[ 18330 18317 18318 18319 ] final   45.05 input   50.43 | X-H torsion
[ 18419 18375 18376 18377 ] final -140.29 input   32.92 | X-H torsion
[ 7530 7517 7518 7519 ] final  -59.64 input   89.56 | X-H torsion
[ 7496 7462 7463 7464 ] final  -17.43 input  103.52 | X-H torsion
[ 18606 18593 18594 18595 ] final -126.73 input  124.70 | X-H torsion
[ 10120 10100 10099 10096 ] final   47.53 input   60.00 | X-H torsion
[ 18304 18284 18283 18280 ] final -114.63 input   60.01 | X-H torsion
[ 11501 11468 11469 11470 ] final   17.17 input   45.03 | X-H torsion
[ 18664 18636 18634 18631 ] final  139.01 input   60.01 | X-H torsion
[ 18884 18850 18851 18852 ] final   95.33 input   84.91 | X-H torsion
[ 17308 17287 17288 17289 ] final   -9.95 input   50.16 | X-H torsion
[ 22456 22422 22423 22424 ] final   11.23 input   54.84 | X-H torsion
[ 11440 11420 11419 11416 ] final  152.56 input   60.01 | X-H torsion
[ 11650 11609 11610 11611 ] final -142.39 input   61.57 | X-H torsion
[ 11832 11793 11794 11795 ] final  -56.59 input   91.14 | X-H torsion
[ 16996 16957 16958 16959 ] final -169.67 input   91.87 | X-H torsion
[ 27198 18540 18539 18538 ] final   77.37 input   -0.00 | X-H torsion
[ 27200 18633 18632 18631 ] final  -23.93 input    0.00 | X-H torsion
[ 27203 18695 18694 18693 ] final  137.89 input   -0.00 | X-H torsion
[ 27222 17133 17132 17131 ] final  -28.15 input    0.00 | X-H torsion
[ 27226 11612 11611 11610 ] final  -22.75 input    0.00 | X-H torsion
[ 27230 17060 17059 17058 ] final  153.37 input   -0.00 | X-H torsion
[ 27232 18752 18751 18750 ] final -131.99 input    0.00 | X-H torsion
[ 27234 18596 18595 18594 ] final   73.40 input   -0.00 | X-H torsion
[ 27238 18929 18928 18927 ] final  -42.32 input   -0.00 | X-H torsion
[ 27240 19016 19015 19014 ] final -126.87 input   -0.00 | X-H torsion
[ 27243 11418 11417 11416 ] final  -93.07 input    0.00 | X-H torsion
[ 27245 17183 17182 17181 ] final   33.70 input   -0.00 | X-H torsion
[ 27247 18378 18377 18376 ] final -170.21 input   -0.00 | X-H torsion
[ 27250 18217 18216 18215 ] final -139.73 input    0.00 | X-H torsion
[ 27254 17229 17228 17227 ] final  126.22 input   -0.00 | X-H torsion
[ 27259 18320 18319 18318 ] final   31.93 input    0.00 | X-H torsion
[ 27261 18468 18467 18466 ] final -139.37 input    0.00 | X-H torsion
[ 27264 18282 18281 18280 ] final  -34.47 input   -0.00 | X-H torsion
[ 27267 17020 17019 17018 ] final  -13.45 input   -0.00 | X-H torsion
[ 27275 16960 16959 16958 ] final -113.04 input    0.00 | X-H torsion

> <Gold.Protein.ActiveResidues>
 TRP414  CYS420  VAL421  GLY422  LEU460  SER462  SER482  GLN483  ILE485  ARG486 
 TYR487  ASP500  ASN503  TRP566  TYR567  GLY568  LEU569  PRO570  ALA571  VAL572 
 SER573  ASN574  PHE589  SER590  GLY591  TRP592  TYR593  MET594  GLY595  THR596 
 GLU597  ILE598  GLY599  VAL600  ARG601  ASP602  TYR603  ARG608  ILE653  VAL654 
 TRP683  PRO687  HEM750  H4B760 

> <Gold.Protein.RotatedAtoms>
  241.2224   10.0413   32.9088 H   0  0  0  0  0  0  0  0  0  0  0  0  # atno 7496 bound_to 7462
  241.0657    8.1622   31.4200 H   0  0  0  0  0  0  0  0  0  0  0  0  # atno 7530 bound_to 7517
  248.6522    1.4178   35.7527 H   0  0  0  0  0  0  0  0  0  0  0  0  # atno 10120 bound_to 10100
  253.7608   19.7715   41.1294 H   0  0  0  0  0  0  0  0  0  0  0  0  # atno 11440 bound_to 11420
  255.3471   16.3817   42.6475 H   0  0  0  0  0  0  0  0  0  0  0  0  # atno 11501 bound_to 11468
  258.6141   12.1096   41.6650 H   0  0  0  0  0  0  0  0  0  0  0  0  # atno 11650 bound_to 11609
  260.8338   17.7664   38.4668 H   0  0  0  0  0  0  0  0  0  0  0  0  # atno 11832 bound_to 11793
  261.4684   13.0867   32.0049 H   0  0  0  0  0  0  0  0  0  0  0  0  # atno 16996 bound_to 16957
  256.4403   15.9944   35.1501 H   0  0  0  0  0  0  0  0  0  0  0  0  # atno 17004 bound_to 16968
  253.8010   11.6097   38.4691 H   0  0  0  0  0  0  0  0  0  0  0  0  # atno 17200 bound_to 17180
  250.8856   10.9113   40.2458 H   0  0  0  0  0  0  0  0  0  0  0  0  # atno 17260 bound_to 17226
  250.7472   14.0278   43.4504 H   0  0  0  0  0  0  0  0  0  0  0  0  # atno 17308 bound_to 17287
  249.9550    5.6462   40.8247 H   0  0  0  0  0  0  0  0  0  0  0  0  # atno 18300 bound_to 18279
  253.0028    4.8841   40.6826 H   0  0  0  0  0  0  0  0  0  0  0  0  # atno 18304 bound_to 18284
  250.6124    7.0973   36.7981 H   0  0  0  0  0  0  0  0  0  0  0  0  # atno 18330 bound_to 18317
  250.8875    5.5961   34.5815 H   0  0  0  0  0  0  0  0  0  0  0  0  # atno 18419 bound_to 18375
  252.6908    7.5366   30.8700 H   0  0  0  0  0  0  0  0  0  0  0  0  # atno 18504 bound_to 18465
  254.8160   14.6045   33.0615 H   0  0  0  0  0  0  0  0  0  0  0  0  # atno 18512 bound_to 18476
  249.7012   10.7411   29.5582 H   0  0  0  0  0  0  0  0  0  0  0  0  # atno 18572 bound_to 18537
  250.7687   10.5485   26.3897 H   0  0  0  0  0  0  0  0  0  0  0  0  # atno 18606 bound_to 18593
  246.8184   15.5167   25.9278 H   0  0  0  0  0  0  0  0  0  0  0  0  # atno 18664 bound_to 18636
  249.3448   14.6067   27.3744 H   0  0  0  0  0  0  0  0  0  0  0  0  # atno 18719 bound_to 18692
  252.5977   14.9948   28.5853 H   0  0  0  0  0  0  0  0  0  0  0  0  # atno 18790 bound_to 18749
  254.6670   16.0202   25.7430 H   0  0  0  0  0  0  0  0  0  0  0  0  # atno 18826 bound_to 18813
  251.7077   17.9075   24.8802 H   0  0  0  0  0  0  0  0  0  0  0  0  # atno 18884 bound_to 18850
  250.8396   19.3470   26.8061 H   0  0  0  0  0  0  0  0  0  0  0  0  # atno 18976 bound_to 18926
  253.1412   19.4052   28.6286 H   0  0  0  0  0  0  0  0  0  0  0  0  # atno 19033 bound_to 19013
  255.9476   20.8343   28.4421 H   0  0  0  0  0  0  0  0  0  0  0  0  # atno 19112 bound_to 19073
  250.9559    7.3278   25.9195 H   0  0  0  0  0  0  0  0  0  0  0  0  # atno 22456 bound_to 22422
  256.6884   15.6018   36.7098 LP  0  0  0  0  0  0  0  0  0  0  0  0  # atno 27193 bound_to 16968
  255.6433   14.7347   35.8029 LP  0  0  0  0  0  0  0  0  0  0  0  0  # atno 27194 bound_to 16968
  255.9416   13.5271   33.5299 LP  0  0  0  0  0  0  0  0  0  0  0  0  # atno 27195 bound_to 18476
  254.5095   13.6078   34.3104 LP  0  0  0  0  0  0  0  0  0  0  0  0  # atno 27196 bound_to 18476
  250.1107    9.1262   29.0242 LP  0  0  0  0  0  0  0  0  0  0  0  0  # atno 27197 bound_to 18537
  251.2404   12.2327   28.3373 LP  0  0  0  0  0  0  0  0  0  0  0  0  # atno 27198 bound_to 18540
  250.1115   13.2655   27.5255 LP  0  0  0  0  0  0  0  0  0  0  0  0  # atno 27199 bound_to 18540
  250.8325   17.6792   25.5605 LP  0  0  0  0  0  0  0  0  0  0  0  0  # atno 27200 bound_to 18633
  250.3039   17.7391   27.2088 LP  0  0  0  0  0  0  0  0  0  0  0  0  # atno 27201 bound_to 18633
  250.5297   15.6012   26.5757 LP  0  0  0  0  0  0  0  0  0  0  0  0  # atno 27202 bound_to 18692
  252.9955   17.6046   29.7931 LP  0  0  0  0  0  0  0  0  0  0  0  0  # atno 27203 bound_to 18695
  251.5152   18.3075   29.2321 LP  0  0  0  0  0  0  0  0  0  0  0  0  # atno 27204 bound_to 18695
  252.0582   16.2384   27.4763 LP  0  0  0  0  0  0  0  0  0  0  0  0  # atno 27209 bound_to 18749
  252.7832   21.0900   28.9288 LP  0  0  0  0  0  0  0  0  0  0  0  0  # atno 27210 bound_to 19013
  251.8384    8.9504   36.6549 LP  0  0  0  0  0  0  0  0  0  0  0  0  # atno 27222 bound_to 17133
  252.3012    8.5305   38.2702 LP  0  0  0  0  0  0  0  0  0  0  0  0  # atno 27223 bound_to 17133
  253.7034    9.9912   37.8132 LP  0  0  0  0  0  0  0  0  0  0  0  0  # atno 27224 bound_to 17180
  252.4659   11.6285   40.4790 LP  0  0  0  0  0  0  0  0  0  0  0  0  # atno 27225 bound_to 17226
  257.7285   13.2281   37.9668 LP  0  0  0  0  0  0  0  0  0  0  0  0  # atno 27226 bound_to 11612
  257.5732   14.9453   38.1311 LP  0  0  0  0  0  0  0  0  0  0  0  0  # atno 27227 bound_to 11612
  256.2790   10.9105   36.8244 LP  0  0  0  0  0  0  0  0  0  0  0  0  # atno 27230 bound_to 17060
  257.2777    9.5892   37.3313 LP  0  0  0  0  0  0  0  0  0  0  0  0  # atno 27231 bound_to 17060
  254.3986   19.0248   26.2472 LP  0  0  0  0  0  0  0  0  0  0  0  0  # atno 27232 bound_to 18752
  255.7102   18.3622   27.1640 LP  0  0  0  0  0  0  0  0  0  0  0  0  # atno 27233 bound_to 18752
  252.9970   14.3680   24.5204 LP  0  0  0  0  0  0  0  0  0  0  0  0  # atno 27234 bound_to 18596
  252.5008   14.6840   26.1495 LP  0  0  0  0  0  0  0  0  0  0  0  0  # atno 27235 bound_to 18596
  253.0819   16.7345   25.9471 LP  0  0  0  0  0  0  0  0  0  0  0  0  # atno 27236 bound_to 18813
  251.7484   20.5903   25.9867 LP  0  0  0  0  0  0  0  0  0  0  0  0  # atno 27237 bound_to 18926
  252.9527   23.1726   27.9585 LP  0  0  0  0  0  0  0  0  0  0  0  0  # atno 27238 bound_to 18929
  253.5984   22.8082   29.5238 LP  0  0  0  0  0  0  0  0  0  0  0  0  # atno 27239 bound_to 18929
  256.4447   23.0115   28.8815 LP  0  0  0  0  0  0  0  0  0  0  0  0  # atno 27240 bound_to 19016
  256.9971   21.8633   30.0548 LP  0  0  0  0  0  0  0  0  0  0  0  0  # atno 27241 bound_to 19016
  254.7905   20.6612   27.1419 LP  0  0  0  0  0  0  0  0  0  0  0  0  # atno 27242 bound_to 19073
  251.9853   15.1551   43.1595 LP  0  0  0  0  0  0  0  0  0  0  0  0  # atno 27243 bound_to 11418
  251.7387   16.1965   41.7977 LP  0  0  0  0  0  0  0  0  0  0  0  0  # atno 27244 bound_to 11418
  254.5122   11.9852   41.2577 LP  0  0  0  0  0  0  0  0  0  0  0  0  # atno 27245 bound_to 17183
  253.2271   12.2593   42.3861 LP  0  0  0  0  0  0  0  0  0  0  0  0  # atno 27246 bound_to 17183
  249.3203    8.4137   31.3255 LP  0  0  0  0  0  0  0  0  0  0  0  0  # atno 27247 bound_to 18378
  249.1369    7.3222   32.6577 LP  0  0  0  0  0  0  0  0  0  0  0  0  # atno 27248 bound_to 18378
  251.1219    7.5714   31.6440 LP  0  0  0  0  0  0  0  0  0  0  0  0  # atno 27249 bound_to 18465
  250.2942    9.0538   40.1263 LP  0  0  0  0  0  0  0  0  0  0  0  0  # atno 27250 bound_to 18217
  250.9560    9.3000   41.7079 LP  0  0  0  0  0  0  0  0  0  0  0  0  # atno 27251 bound_to 18217
  251.0559   10.7040   43.8317 LP  0  0  0  0  0  0  0  0  0  0  0  0  # atno 27254 bound_to 17229
  249.5413   11.0020   43.0461 LP  0  0  0  0  0  0  0  0  0  0  0  0  # atno 27255 bound_to 17229
  250.0776    7.3704   41.0737 LP  0  0  0  0  0  0  0  0  0  0  0  0  # atno 27256 bound_to 18279
  250.2199    5.8541   37.9636 LP  0  0  0  0  0  0  0  0  0  0  0  0  # atno 27257 bound_to 18317
  249.5268    5.8879   33.5190 LP  0  0  0  0  0  0  0  0  0  0  0  0  # atno 27258 bound_to 18375
  252.2234    4.2298   35.6926 LP  0  0  0  0  0  0  0  0  0  0  0  0  # atno 27259 bound_to 18320
  252.8353    5.4363   34.6111 LP  0  0  0  0  0  0  0  0  0  0  0  0  # atno 27260 bound_to 18320
  250.6310    8.2365   27.2854 LP  0  0  0  0  0  0  0  0  0  0  0  0  # atno 27261 bound_to 18468
  250.8525    7.1747   28.6357 LP  0  0  0  0  0  0  0  0  0  0  0  0  # atno 27262 bound_to 18468
  242.4222    8.8417   32.2882 LP  0  0  0  0  0  0  0  0  0  0  0  0  # atno 27263 bound_to 7517
  250.3660    4.1540   39.3836 LP  0  0  0  0  0  0  0  0  0  0  0  0  # atno 27264 bound_to 18282
  249.0772    4.2511   38.2305 LP  0  0  0  0  0  0  0  0  0  0  0  0  # atno 27265 bound_to 18282
  240.9919   11.5805   32.1044 LP  0  0  0  0  0  0  0  0  0  0  0  0  # atno 27266 bound_to 7462
  256.2689    7.5937   31.6976 LP  0  0  0  0  0  0  0  0  0  0  0  0  # atno 27267 bound_to 17020
  255.6673    7.3041   33.2958 LP  0  0  0  0  0  0  0  0  0  0  0  0  # atno 27268 bound_to 17020
  249.5346   11.3788   25.4638 LP  0  0  0  0  0  0  0  0  0  0  0  0  # atno 27269 bound_to 18593
  248.2757    2.9250   36.2381 LP  0  0  0  0  0  0  0  0  0  0  0  0  # atno 27270 bound_to 10100
  247.0958    1.8199   36.0072 LP  0  0  0  0  0  0  0  0  0  0  0  0  # atno 27271 bound_to 10100
  253.2593    4.5415   39.1127 LP  0  0  0  0  0  0  0  0  0  0  0  0  # atno 27272 bound_to 18284
  251.7464    4.4925   39.7256 LP  0  0  0  0  0  0  0  0  0  0  0  0  # atno 27273 bound_to 18284
  253.6414   16.4126   42.2492 LP  0  0  0  0  0  0  0  0  0  0  0  0  # atno 27274 bound_to 11468
  257.5716   10.8459   32.3462 LP  0  0  0  0  0  0  0  0  0  0  0  0  # atno 27275 bound_to 16960
  258.5019   11.2280   30.9361 LP  0  0  0  0  0  0  0  0  0  0  0  0  # atno 27276 bound_to 16960

> <Gold.Score>
     Fitness  S(hb_ext) S(vdw_ext)  S(hb_int)    S(int)      intcor
     28.06       6.26      20.49       0.00      -6.39      -0.76

> <Gold.Goldscore.Fitness>
28.0577

> <Gold.Goldscore.Internal.Vdw>
-6.7775

> <Gold.Goldscore.Internal.Torsion>
-0.3731

> <Gold.Goldscore.External.Vdw>
20.4945

> <Gold.Goldscore.Internal.HBond>
0.0000

> <Gold.Goldscore.External.HBond>
6.2634

> <Gold.Goldscore.Internal.Correction>
-0.7650

> <Gold.Goldscore.Hbonds>
donor molecule, donor type, donor heavy atom, donor atom, acceptor molecule, acceptor atom, score
      P1  H 18317 18330       L1     9  0.10
      P1  M 26928 27277       L1    11  0.54
      L1  H     8    22       P1 18217  0.36

> <Gold.Goldscore.Internal.Vdw.Weighted>
-6.7775

> <Gold.Goldscore.Internal.Torsion.Weighted>
-0.3731

> <Gold.Goldscore.External.Vdw.Weighted>
28.1799

> <Gold.Goldscore.Internal.HBond.Weighted>
0.0000

> <Gold.Goldscore.External.HBond.Weighted>
6.2634

> <Gold.Goldscore.Internal.Correction.Weighted>
-0.7650

> <Gold.Rescore>
     Score     S(PLP)   S(hbond)     S(cho)   S(metal)  DE(clash)   DE(tors)     intcor
     19.68     -15.89       0.00       0.00       1.00       0.18       1.00       ----

> <Gold.PLP.Fitness>
19.6849

> <Gold.PLP.PLP>
-15.8853

> <Gold.PLP.part.hbond>
-3.5626

> <Gold.PLP.part.metal>
-1.0000

> <Gold.PLP.part.buried>
35.0713

> <Gold.PLP.part.nonpolar>
-51.4141

> <Gold.PLP.part.repulsive>
2.4202

> <Gold.PLP.ligand.clash>
0.1759

> <Gold.PLP.ligand.torsion>
0.9975

> <Gold.PLP.Chemscore.Hbond>
0.0000

> <Gold.PLP.Chemscore.CHOScore>
0.0000

> <Gold.PLP.Chemscore.Metal>
0.9951

> <Gold.Chemscore.Hbonds>
donor molecule, donor type, donor heavy atom, donor atom, acceptor molecule, acceptor atom, score
      P1  M 26928 26928       L1    11  0.77

> <Gold.PLP.Chemscore.Internal.Correction>
   9.000000E+99

