#       Name:                CT1002167954
#       Creating user name   hitesit
#       Creation time:       Sun Apr 16 02:22:39 2023


#       File generated by GOLD software.
#

@<TRIPOS>MOLECULE
CT1002167954|ligand_prepared|mol2|1|dock3
    29    30     1
SMALL
NO_CHARGES


@<TRIPOS>ATOM
      1 C1         101.3319 271.0084 348.6422 C.3            1 RES1               0.0000
      2 C2         102.3518 269.8808 348.9012 C.ar           1 RES1               0.0000
      3 C3         101.2117 271.1376 347.1265 C.2            1 RES1               0.0000
      4 C4         100.0416 270.5838 349.3346 C.2            1 RES1               0.0000
      5 C5         101.7555 272.3789 349.2199 C.3            1 RES1               0.0000
      6 C6         102.4374 268.7911 348.0398 C.ar           1 RES1               0.0000
      7 C7         103.2140 269.9176 349.9938 C.ar           1 RES1               0.0000
      8 N8         100.0762 270.6619 346.5399 N.am           1 RES1               0.0000
      9 O9         102.1165 271.6136 346.4521 O.2            1 RES1               0.0000
     10 N10         98.9501 270.3164 348.5505 N.am           1 RES1               0.0000
     11 O11         99.9650 270.4624 350.5510 O.2            1 RES1               0.0000
     12 C12        100.8596 273.5294 348.7888 C.3            1 RES1               0.0000
     13 C13        103.3537 267.7763 348.2610 C.ar           1 RES1               0.0000
     14 C14        104.1295 268.9016 350.2133 C.ar           1 RES1               0.0000
     15 C15         98.9176 270.3065 347.1826 C.2            1 RES1               0.0000
     16 C16        104.2006 267.8311 349.3474 C.ar           1 RES1               0.0000
     17 O17         97.9119 270.0023 346.5476 O.2            1 RES1               0.0000
     18 H18        101.7491 272.3176 350.3151 H              1 RES1               0.0000
     19 H19        102.7833 272.5936 348.9021 H              1 RES1               0.0000
     20 H20        101.7775 268.7296 347.1809 H              1 RES1               0.0000
     21 H21        103.1752 270.7495 350.6888 H              1 RES1               0.0000
     22 H22        100.0897 270.5610 345.5300 H              1 RES1               0.0000
     23 H23         98.0812 270.1053 349.0310 H              1 RES1               0.0000
     24 H24        101.2010 274.4673 349.2218 H              1 RES1               0.0000
     25 H25        100.8621 273.6354 347.7059 H              1 RES1               0.0000
     26 H26         99.8340 273.3610 349.1106 H              1 RES1               0.0000
     27 H27        103.4048 266.9353 347.5773 H              1 RES1               0.0000
     28 H28        104.7936 268.9485 351.0700 H              1 RES1               0.0000
     29 H29        104.9186 267.0362 349.5203 H              1 RES1               0.0000
@<TRIPOS>BOND
    1    1    2 1     
    2    1    3 1     
    3    1    4 1     
    4    1    5 1     
    5    2    6 ar    
    6    2    7 ar    
    7    3    8 1     
    8    3    9 2     
    9    4   10 1     
   10    4   11 2     
   11    5   12 1     
   12    5   18 1     
   13    5   19 1     
   14    6   13 ar    
   15    6   20 1     
   16    7   14 ar    
   17    7   21 1     
   18    8   15 1     
   19    8   22 1     
   20   10   15 1     
   21   10   23 1     
   22   12   24 1     
   23   12   25 1     
   24   12   26 1     
   25   13   16 ar    
   26   13   27 1     
   27   14   16 ar    
   28   14   28 1     
   29   15   17 2     
   30   16   29 1     
@<TRIPOS>SUBSTRUCTURE
      1 RES1           1
@<TRIPOS>SET
DONOR_HYDROGENS      STATIC     ATOMS    <user>   **** ""
2 22 23
ATOM$RED        STATIC     ATOMS    COLORGROUP SYSTEM
2 22 23
@<TRIPOS>COMMENT
> <Gold.Version>
2022.3.0

> <Gold.Id.Protein>
unknown|5uo4_clean|pdb

> <Gold.Protein.RotatedTorsions>
[   11    1    2    3 ] final  133.62 input   60.01 | X-H torsion

> <Gold.Protein.ActiveResidues>
 CYS302  PRO303  ARG304  PHE305  LEU306  HIS322  LEU323 

> <Gold.Protein.RotatedAtoms>
  102.7772  271.2718  344.0966 H   0  0  0  0  0  0  0  0  0  0  0  0  # atno 11   bound_to 1   
  102.5268  271.2360  342.4585 H   0  0  0  0  0  0  0  0  0  0  0  0  # atno 12   bound_to 1   
  101.2475  271.2290  343.4937 LP  0  0  0  0  0  0  0  0  0  0  0  0  # atno 13528 bound_to 1   

> <Gold.Score>
     Fitness  S(hb_ext) S(vdw_ext)  S(hb_int)    S(int)      intcor
     23.05       0.34      16.89       0.00      -0.51      -0.76

> <Gold.Goldscore.Fitness>
23.0549

> <Gold.Goldscore.Internal.Vdw>
-0.7801

> <Gold.Goldscore.Internal.Torsion>
-0.4895

> <Gold.Goldscore.External.Vdw>
16.8906

> <Gold.Goldscore.Internal.HBond>
0.0000

> <Gold.Goldscore.External.HBond>
0.3395

> <Gold.Goldscore.Internal.Correction>
-0.7603

> <Gold.Goldscore.Hbonds>
donor molecule, donor type, donor heavy atom, donor atom, acceptor molecule, acceptor atom, score
      L1  H     8    22       P1     4  0.17

> <Gold.Goldscore.Internal.Vdw.Weighted>
-0.7801

> <Gold.Goldscore.Internal.Torsion.Weighted>
-0.4895

> <Gold.Goldscore.External.Vdw.Weighted>
23.2246

> <Gold.Goldscore.Internal.HBond.Weighted>
0.0000

> <Gold.Goldscore.External.HBond.Weighted>
0.3395

> <Gold.Goldscore.Internal.Correction.Weighted>
-0.7603

> <Gold.Rescore>
     Score     S(PLP)   S(hbond)     S(cho)   S(metal)  DE(clash)   DE(tors)     intcor
     30.79     -27.74       1.82       0.00       0.00       0.00       1.21       ----

> <Gold.PLP.Fitness>
30.7943

> <Gold.PLP.PLP>
-27.7389

> <Gold.PLP.part.hbond>
-2.0000

> <Gold.PLP.part.metal>
0.0000

> <Gold.PLP.part.buried>
-2.3949

> <Gold.PLP.part.nonpolar>
-23.5504

> <Gold.PLP.part.repulsive>
0.2052

> <Gold.PLP.ligand.clash>
0.0000

> <Gold.PLP.ligand.torsion>
1.2094

> <Gold.PLP.Chemscore.Hbond>
1.8247

> <Gold.PLP.Chemscore.CHOScore>
0.0000

> <Gold.PLP.Chemscore.Metal>
0.0000

> <Gold.Chemscore.Hbonds>
donor molecule, donor type, donor heavy atom, donor atom, acceptor molecule, acceptor atom, score
      L1  H     8    22       P1     4  0.96
      P1  H     1    11       L1     9  0.04

> <Gold.PLP.Chemscore.Internal.Correction>
   9.000000E+99

