#       Name:                CT1002167954
#       Creating user name   hitesit
#       Creation time:       Sun Apr 16 02:22:40 2023


#       File generated by GOLD software.
#

@<TRIPOS>MOLECULE
CT1002167954|ligand_prepared|mol2|1|dock8
    29    30     1
SMALL
NO_CHARGES


@<TRIPOS>ATOM
      1 C1          95.7619 271.5428 346.0528 C.3            1 RES1               0.0000
      2 C2          94.8658 271.4830 344.7989 C.ar           1 RES1               0.0000
      3 C3          95.8086 270.1247 346.6141 C.2            1 RES1               0.0000
      4 C4          97.1136 272.0720 345.5863 C.2            1 RES1               0.0000
      5 C5          95.2324 272.4900 347.1546 C.3            1 RES1               0.0000
      6 C6          94.6900 270.2866 344.1100 C.ar           1 RES1               0.0000
      7 C7          94.2077 272.6132 344.3214 C.ar           1 RES1               0.0000
      8 N8          96.9601 269.4146 346.4421 N.am           1 RES1               0.0000
      9 O9          94.8361 269.6230 347.1644 O.2            1 RES1               0.0000
     10 N10         98.1935 271.2321 345.6639 N.am           1 RES1               0.0000
     11 O11         97.2500 273.2032 345.1367 O.2            1 RES1               0.0000
     12 C12         95.9932 272.3895 348.4673 C.3            1 RES1               0.0000
     13 C13         93.8830 270.2217 342.9863 C.ar           1 RES1               0.0000
     14 C14         93.4013 272.5461 343.1972 C.ar           1 RES1               0.0000
     15 C15         98.1722 269.9172 346.0420 C.2            1 RES1               0.0000
     16 C16         93.2378 271.3511 342.5294 C.ar           1 RES1               0.0000
     17 O17         99.1762 269.2107 346.0338 O.2            1 RES1               0.0000
     18 H18         95.2915 273.5231 346.7904 H              1 RES1               0.0000
     19 H19         94.1760 272.2599 347.3403 H              1 RES1               0.0000
     20 H20         95.1916 269.3880 344.4533 H              1 RES1               0.0000
     21 H21         94.3224 273.5643 344.8301 H              1 RES1               0.0000
     22 H22         96.9160 268.4177 346.6281 H              1 RES1               0.0000
     23 H23         99.0971 271.6233 345.4172 H              1 RES1               0.0000
     24 H24         95.5813 273.0745 349.2053 H              1 RES1               0.0000
     25 H25         95.9343 271.3808 348.8710 H              1 RES1               0.0000
     26 H26         97.0432 272.6365 348.3244 H              1 RES1               0.0000
     27 H27         93.7587 269.2791 342.4635 H              1 RES1               0.0000
     28 H28         92.8959 273.4376 342.8408 H              1 RES1               0.0000
     29 H29         92.6054 271.2999 341.6493 H              1 RES1               0.0000
@<TRIPOS>BOND
    1    1    2 1     
    2    1    3 1     
    3    1    4 1     
    4    1    5 1     
    5    2    6 ar    
    6    2    7 ar    
    7    3    8 1     
    8    3    9 2     
    9    4   10 1     
   10    4   11 2     
   11    5   12 1     
   12    5   18 1     
   13    5   19 1     
   14    6   13 ar    
   15    6   20 1     
   16    7   14 ar    
   17    7   21 1     
   18    8   15 1     
   19    8   22 1     
   20   10   15 1     
   21   10   23 1     
   22   12   24 1     
   23   12   25 1     
   24   12   26 1     
   25   13   16 ar    
   26   13   27 1     
   27   14   16 ar    
   28   14   28 1     
   29   15   17 2     
   30   16   29 1     
@<TRIPOS>SUBSTRUCTURE
      1 RES1           1
@<TRIPOS>SET
DONOR_HYDROGENS      STATIC     ATOMS    <user>   **** ""
2 22 23
ATOM$RED        STATIC     ATOMS    COLORGROUP SYSTEM
2 22 23
@<TRIPOS>COMMENT
> <Gold.Version>
2022.3.0

> <Gold.Id.Protein>
unknown|5uo4_clean|pdb

> <Gold.Protein.RotatedTorsions>
[   11    1    2    3 ] final  -50.30 input   60.01 | X-H torsion

> <Gold.Protein.ActiveResidues>
 CYS302  PRO303  ARG304  PHE305  LEU306  HIS322  LEU323 

> <Gold.Protein.RotatedAtoms>
  101.6336  271.2230  342.5653 H   0  0  0  0  0  0  0  0  0  0  0  0  # atno 11   bound_to 1   
  101.7714  271.2567  344.2167 H   0  0  0  0  0  0  0  0  0  0  0  0  # atno 12   bound_to 1   
  103.1187  271.2568  343.2715 LP  0  0  0  0  0  0  0  0  0  0  0  0  # atno 13528 bound_to 1   

> <Gold.Score>
     Fitness  S(hb_ext) S(vdw_ext)  S(hb_int)    S(int)      intcor
     17.28       5.99       8.92       0.00      -0.98      -0.76

> <Gold.Goldscore.Fitness>
17.2814

> <Gold.Goldscore.Internal.Vdw>
-1.2413

> <Gold.Goldscore.Internal.Torsion>
-0.4948

> <Gold.Goldscore.External.Vdw>
8.9224

> <Gold.Goldscore.Internal.HBond>
0.0000

> <Gold.Goldscore.External.HBond>
5.9907

> <Gold.Goldscore.Internal.Correction>
-0.7585

> <Gold.Goldscore.Hbonds>
donor molecule, donor type, donor heavy atom, donor atom, acceptor molecule, acceptor atom, score
      P1  H    34    59       L1     9  1.00

> <Gold.Goldscore.Internal.Vdw.Weighted>
-1.2413

> <Gold.Goldscore.Internal.Torsion.Weighted>
-0.4948

> <Gold.Goldscore.External.Vdw.Weighted>
12.2683

> <Gold.Goldscore.Internal.HBond.Weighted>
0.0000

> <Gold.Goldscore.External.HBond.Weighted>
5.9907

> <Gold.Goldscore.Internal.Correction.Weighted>
-0.7585

> <Gold.Rescore>
     Score     S(PLP)   S(hbond)     S(cho)   S(metal)  DE(clash)   DE(tors)     intcor
     19.14     -18.59       1.00       0.00       0.00       0.89       0.78       ----

> <Gold.PLP.Fitness>
19.1448

> <Gold.PLP.PLP>
-18.5918

> <Gold.PLP.part.hbond>
-1.0000

> <Gold.PLP.part.metal>
0.0000

> <Gold.PLP.part.buried>
-2.6757

> <Gold.PLP.part.nonpolar>
-15.0979

> <Gold.PLP.part.repulsive>
0.2033

> <Gold.PLP.ligand.clash>
0.8891

> <Gold.PLP.ligand.torsion>
0.7790

> <Gold.PLP.Chemscore.Hbond>
1.0000

> <Gold.PLP.Chemscore.CHOScore>
0.0000

> <Gold.PLP.Chemscore.Metal>
0.0000

> <Gold.Chemscore.Hbonds>
donor molecule, donor type, donor heavy atom, donor atom, acceptor molecule, acceptor atom, score
      P1  H    34    59       L1     9  1.00

> <Gold.PLP.Chemscore.Internal.Correction>
   9.000000E+99

