#       Name:                CT1002167954
#       Creating user name   hitesit
#       Creation time:       Sun Apr 16 02:22:39 2023


#       File generated by GOLD software.
#

@<TRIPOS>MOLECULE
CT1002167954|ligand_prepared|mol2|1|dock4
    29    30     1
SMALL
NO_CHARGES


@<TRIPOS>ATOM
      1 C1          98.4144 271.0060 346.9874 C.3            1 RES1               0.0000
      2 C2          99.3385 270.6847 348.1796 C.ar           1 RES1               0.0000
      3 C3          97.7985 269.6793 346.5529 C.2            1 RES1               0.0000
      4 C4          97.4010 272.0255 347.4957 C.2            1 RES1               0.0000
      5 C5          99.1496 271.6262 345.7764 C.3            1 RES1               0.0000
      6 C6          98.8113 270.2102 349.3770 C.ar           1 RES1               0.0000
      7 C7         100.7179 270.8548 348.0965 C.ar           1 RES1               0.0000
      8 N8          96.4881 269.4603 346.8605 N.am           1 RES1               0.0000
      9 O9          98.4632 268.8222 345.9839 O.2            1 RES1               0.0000
     10 N10         96.0860 271.6459 347.5614 N.am           1 RES1               0.0000
     11 O11         97.7318 273.1486 347.8556 O.2            1 RES1               0.0000
     12 C12         98.2295 271.9939 344.6230 C.3            1 RES1               0.0000
     13 C13         99.6335 269.9137 350.4514 C.ar           1 RES1               0.0000
     14 C14        101.5383 270.5578 349.1723 C.ar           1 RES1               0.0000
     15 C15         95.5880 270.3994 347.2959 C.2            1 RES1               0.0000
     16 C16        100.9974 270.0868 350.3497 C.ar           1 RES1               0.0000
     17 O17         94.4002 270.1197 347.4306 O.2            1 RES1               0.0000
     18 H18         99.6778 272.5286 346.1083 H              1 RES1               0.0000
     19 H19         99.9001 270.9121 345.4155 H              1 RES1               0.0000
     20 H20         97.7401 270.0700 349.4765 H              1 RES1               0.0000
     21 H21        101.1654 271.2251 347.1805 H              1 RES1               0.0000
     22 H22         96.1457 268.5103 346.7574 H              1 RES1               0.0000
     23 H23         95.4163 272.3585 347.8334 H              1 RES1               0.0000
     24 H24         98.7959 272.4245 343.8000 H              1 RES1               0.0000
     25 H25         97.7067 271.1150 344.2514 H              1 RES1               0.0000
     26 H26         97.4857 272.7219 344.9401 H              1 RES1               0.0000
     27 H27         99.2027 269.5446 351.3763 H              1 RES1               0.0000
     28 H28        102.6111 270.6962 349.0880 H              1 RES1               0.0000
     29 H29        101.6413 269.8541 351.1914 H              1 RES1               0.0000
@<TRIPOS>BOND
    1    1    2 1     
    2    1    3 1     
    3    1    4 1     
    4    1    5 1     
    5    2    6 ar    
    6    2    7 ar    
    7    3    8 1     
    8    3    9 2     
    9    4   10 1     
   10    4   11 2     
   11    5   12 1     
   12    5   18 1     
   13    5   19 1     
   14    6   13 ar    
   15    6   20 1     
   16    7   14 ar    
   17    7   21 1     
   18    8   15 1     
   19    8   22 1     
   20   10   15 1     
   21   10   23 1     
   22   12   24 1     
   23   12   25 1     
   24   12   26 1     
   25   13   16 ar    
   26   13   27 1     
   27   14   16 ar    
   28   14   28 1     
   29   15   17 2     
   30   16   29 1     
@<TRIPOS>SUBSTRUCTURE
      1 RES1           1
@<TRIPOS>SET
DONOR_HYDROGENS      STATIC     ATOMS    <user>   **** ""
2 22 23
ATOM$RED        STATIC     ATOMS    COLORGROUP SYSTEM
2 22 23
@<TRIPOS>COMMENT
> <Gold.Version>
2022.3.0

> <Gold.Id.Protein>
unknown|5uo4_clean|pdb

> <Gold.Protein.RotatedTorsions>
[   11    1    2    3 ] final  -56.17 input   60.01 | X-H torsion

> <Gold.Protein.ActiveResidues>
 CYS302  PRO303  ARG304  PHE305  LEU306  HIS322  LEU323 

> <Gold.Protein.RotatedAtoms>
  101.7168  271.2234  342.5136 H   0  0  0  0  0  0  0  0  0  0  0  0  # atno 11   bound_to 1   
  101.6850  271.2544  344.1705 H   0  0  0  0  0  0  0  0  0  0  0  0  # atno 12   bound_to 1   
  103.1218  271.2587  343.3680 LP  0  0  0  0  0  0  0  0  0  0  0  0  # atno 13528 bound_to 1   

> <Gold.Score>
     Fitness  S(hb_ext) S(vdw_ext)  S(hb_int)    S(int)      intcor
     24.85       6.00      13.72       0.00      -0.02      -0.76

> <Gold.Goldscore.Fitness>
24.8529

> <Gold.Goldscore.Internal.Vdw>
-0.4023

> <Gold.Goldscore.Internal.Torsion>
-0.3751

> <Gold.Goldscore.External.Vdw>
13.7249

> <Gold.Goldscore.Internal.HBond>
0.0000

> <Gold.Goldscore.External.HBond>
6.0000

> <Gold.Goldscore.Internal.Correction>
-0.7585

> <Gold.Goldscore.Hbonds>
donor molecule, donor type, donor heavy atom, donor atom, acceptor molecule, acceptor atom, score
      P1  H    34    59       L1    17  1.00

> <Gold.Goldscore.Internal.Vdw.Weighted>
-0.4023

> <Gold.Goldscore.Internal.Torsion.Weighted>
-0.3751

> <Gold.Goldscore.External.Vdw.Weighted>
18.8717

> <Gold.Goldscore.Internal.HBond.Weighted>
0.0000

> <Gold.Goldscore.External.HBond.Weighted>
6.0000

> <Gold.Goldscore.Internal.Correction.Weighted>
-0.7585

> <Gold.Rescore>
     Score     S(PLP)   S(hbond)     S(cho)   S(metal)  DE(clash)   DE(tors)     intcor
     16.07     -16.10       0.00       0.00       0.00       0.00       0.02       ----

> <Gold.PLP.Fitness>
16.0692

> <Gold.PLP.PLP>
-16.1039

> <Gold.PLP.part.hbond>
-1.0000

> <Gold.PLP.part.metal>
0.0000

> <Gold.PLP.part.buried>
-3.1165

> <Gold.PLP.part.nonpolar>
-12.3467

> <Gold.PLP.part.repulsive>
0.2180

> <Gold.PLP.ligand.clash>
0.0000

> <Gold.PLP.ligand.torsion>
0.0173

> <Gold.PLP.Chemscore.Hbond>
0.0000

> <Gold.PLP.Chemscore.CHOScore>
0.0000

> <Gold.PLP.Chemscore.Metal>
0.0000

> <Gold.Chemscore.Hbonds>
donor molecule, donor type, donor heavy atom, donor atom, acceptor molecule, acceptor atom, score
      P1  H    34    59       L1    17  1.00

> <Gold.PLP.Chemscore.Internal.Correction>
   9.000000E+99

