@<TRIPOS>MOLECULE
A:6S1501
    57    62     1     0     1
SMALL
NO_CHARGES
****
Generated from the CSD

@<TRIPOS>ATOM
     1 C1     -13.2720   0.6540 -16.2710   C.3       1 6S1501   0.0000
     2 N1     -13.6860   0.4550 -14.8870   N.3       1 6S1501   0.0000
     3 C2     -13.7510   1.9980 -16.7640   C.3       1 6S1501   0.0000
     4 N2      -7.9370  -1.0300 -16.8440   N.pl3     1 6S1501   0.0000
     5 C3     -14.3570   1.4180 -17.9730   C.3       1 6S1501   0.0000
     6 N3      -6.7500  -4.4500 -15.1850   N.pl3     1 6S1501   0.0000
     7 C4     -14.2180   0.0510 -17.3030   C.3       1 6S1501   0.0000
     8 N4      -7.4980  -3.8950 -13.0830   N.ar      1 6S1501   0.0000
     9 C5     -11.8930   0.2980 -16.4550   C.ar      1 6S1501   0.0000
    10 N5      -6.1080  -2.1820 -16.7480   N.2       1 6S1501   0.0000
    11 C6     -11.5000  -0.9850 -16.1640   C.ar      1 6S1501   0.0000
    12 N6      -7.6680  -0.2610 -19.1180   N.ar      1 6S1501   0.0000
    13 C7     -10.1960  -1.3870 -16.2860   C.ar      1 6S1501   0.0000
    14 C8      -9.1840  -0.5250 -16.6760   C.ar      1 6S1501   0.0000
    15 C9      -9.5550   0.7580 -17.0100   C.ar      1 6S1501   0.0000
    16 C10    -10.8810   1.1590 -16.8810   C.ar      1 6S1501   0.0000
    17 C11     -7.1900  -1.8380 -16.0620   C.2       1 6S1501   0.0000
    18 C12     -7.4430  -2.2410 -14.8010   C.ar      1 6S1501   0.0000
    19 C13     -7.2180  -3.5430 -14.3360   C.ar      1 6S1501   0.0000
    20 C14     -7.9890  -2.9180 -12.1900   C.ar      1 6S1501   0.0000
    21 C15     -8.2000  -1.6030 -12.5930   C.ar      1 6S1501   0.0000
    22 C16     -7.9360  -1.3000 -13.9110   C.ar      1 6S1501   0.0000
    23 C17     -6.1760  -1.6000 -17.9510   C.ar      1 6S1501   0.0000
    24 C18     -7.3110  -0.9210 -18.0130   C.ar      1 6S1501   0.0000
    25 C19     -5.3290  -1.6020 -18.9920   C.ar      1 6S1501   0.0000
    26 C20     -5.6510  -0.9070 -20.1540   C.ar      1 6S1501   0.0000
    27 C21     -6.8690  -0.2140 -20.1920   C.ar      1 6S1501   0.0000
    28 C22     -7.2740   0.5280 -21.2990   C.ar      1 6S1501   0.0000
    29 C23     -8.0920   1.6460 -21.0840   C.ar      1 6S1501   0.0000
    30 C24     -8.5130   2.4170 -22.1580   C.ar      1 6S1501   0.0000
    31 C25     -8.1070   2.1130 -23.4600   C.ar      1 6S1501   0.0000
    32 C26     -7.2890   1.0030 -23.6640   C.ar      1 6S1501   0.0000
    33 C27     -6.8670   0.2030 -22.6010   C.ar      1 6S1501   0.0000
    34 H1      -6.5350  -4.1867 -16.1414   H         1 6S1501   0.0000
    35 H2      -6.6072  -5.4068 -14.8777   H         1 6S1501   0.0000
    36 H3      -4.9764  -0.9017 -21.0089   H         1 6S1501   0.0000
    37 H4     -15.1459  -0.3351 -16.8837   H         1 6S1501   0.0000
    38 H5     -13.7609  -0.7094 -17.9345   H         1 6S1501   0.0000
    39 H6      -8.2078  -3.2003 -11.1612   H         1 6S1501   0.0000
    40 H7     -12.9422   2.6956 -16.9762   H         1 6S1501   0.0000
    41 H8     -14.4737   2.4709 -16.1007   H         1 6S1501   0.0000
    42 H9      -9.9453  -2.4241 -16.0680   H         1 6S1501   0.0000
    43 H10    -14.6987   0.4911 -14.8283   H         1 6S1501   0.0000
    44 H11    -13.3603  -0.4502 -14.5633   H         1 6S1501   0.0000
    45 H12    -11.1401   2.1887 -17.1228   H         1 6S1501   0.0000
    46 H13     -4.3889  -2.1479 -18.9274   H         1 6S1501   0.0000
    47 H14     -8.8084   1.4611 -17.3763   H         1 6S1501   0.0000
    48 H15    -13.7679   1.5413 -18.8806   H         1 6S1501   0.0000
    49 H16    -15.3833   1.7296 -18.1612   H         1 6S1501   0.0000
    50 H17     -6.9720   0.7543 -24.6757   H         1 6S1501   0.0000
    51 H18     -6.2302  -0.6620 -22.7803   H         1 6S1501   0.0000
    52 H19     -8.1210  -0.2870 -14.2652   H         1 6S1501   0.0000
    53 H20     -9.1679   3.2695 -21.9841   H         1 6S1501   0.0000
    54 H21    -12.2458  -1.7033 -15.8267   H         1 6S1501   0.0000
    55 H22     -8.4235   2.7311 -24.2989   H         1 6S1501   0.0000
    56 H23     -8.5583  -0.8461 -11.8969   H         1 6S1501   0.0000
    57 H24     -8.3975   1.9097 -20.0725   H         1 6S1501   0.0000
@<TRIPOS>BOND
     1     1     2    1
     2     1     3    1
     3     3     5    1
     4     1     7    1
     5     5     7    1
     6     1     9    1
     7     9    11   ar
     8    11    13   ar
     9     4    14    1
    10    13    14   ar
    11    14    15   ar
    12     9    16   ar
    13    15    16   ar
    14     4    17    1
    15    10    17    2
    16    17    18    1
    17     6    19    1
    18     8    19   ar
    19    18    19   ar
    20     8    20   ar
    21    20    21   ar
    22    18    22   ar
    23    21    22   ar
    24    10    23    1
    25     4    24    1
    26    12    24   ar
    27    23    24   ar
    28    23    25   ar
    29    25    26   ar
    30    12    27   ar
    31    26    27   ar
    32    27    28    1
    33    28    29   ar
    34    29    30   ar
    35    30    31   ar
    36    31    32   ar
    37    28    33   ar
    38    32    33   ar
    39     6    34    1
    40     6    35    1
    41    26    36    1
    42     7    37    1
    43     7    38    1
    44    20    39    1
    45     3    40    1
    46     3    41    1
    47    13    42    1
    48     2    43    1
    49     2    44    1
    50    16    45    1
    51    25    46    1
    52    15    47    1
    53     5    48    1
    54     5    49    1
    55    32    50    1
    56    33    51    1
    57    22    52    1
    58    30    53    1
    59    11    54    1
    60    31    55    1
    61    21    56    1
    62    29    57    1
@<TRIPOS>SUBSTRUCTURE
     1 6S1501      1 GROUP             0 A     6S1     0  
@<TRIPOS>SET
CCDC_LIGAND STATIC ATOMS
57 1 2 3 4 5 6 7 8 9 \
10 11 12 13 14 15 16 17 18 19 \
20 21 22 23 24 25 26 27 28 29 \
30 31 32 33 34 35 36 37 38 39 \
40 41 42 43 44 45 46 47 48 49 \
50 51 52 53 54 55 56 57 
