#       Name:                CT1002167954
#       Creating user name   hitesit
#       Creation time:       Sun Apr 16 02:24:09 2023


#       File generated by GOLD software.
#

@<TRIPOS>MOLECULE
CT1002167954|ligand_prepared|mol2|1|dock7
    29    30     1
SMALL
NO_CHARGES


@<TRIPOS>ATOM
      1 C1         -25.3958  28.8130   3.7071 C.3            1 RES1               0.0000
      2 C2         -24.8817  29.9018   4.6709 C.ar           1 RES1               0.0000
      3 C3         -26.8699  29.1205   3.4604 C.2            1 RES1               0.0000
      4 C4         -24.5244  28.9019   2.4592 C.2            1 RES1               0.0000
      5 C5         -25.2810  27.3766   4.2686 C.3            1 RES1               0.0000
      6 C6         -24.1001  29.5625   5.7713 C.ar           1 RES1               0.0000
      7 C7         -25.1779  31.2476   4.4717 C.ar           1 RES1               0.0000
      8 N8         -27.2119  29.6442   2.2485 N.am           1 RES1               0.0000
      9 O9         -27.7139  28.9433   4.3302 O.2            1 RES1               0.0000
     10 N10        -25.1194  29.2886   1.2868 N.am           1 RES1               0.0000
     11 O11        -23.3246  28.6567   2.4840 O.2            1 RES1               0.0000
     12 C12        -25.9372  26.3214   3.3922 C.3            1 RES1               0.0000
     13 C13        -23.6292  30.5335   6.6394 C.ar           1 RES1               0.0000
     14 C14        -24.7061  32.2171   5.3411 C.ar           1 RES1               0.0000
     15 C15        -26.4171  29.6934   1.1315 C.2            1 RES1               0.0000
     16 C16        -23.9315  31.8614   6.4247 C.ar           1 RES1               0.0000
     17 O17        -26.8649  30.0792   0.0555 O.2            1 RES1               0.0000
     18 H18        -24.2192  27.1274   4.3864 H              1 RES1               0.0000
     19 H19        -25.7443  27.3480   5.2626 H              1 RES1               0.0000
     20 H20        -23.8540  28.5224   5.9577 H              1 RES1               0.0000
     21 H21        -25.7865  31.5505   3.6265 H              1 RES1               0.0000
     22 H22        -28.1447  30.0354   2.1650 H              1 RES1               0.0000
     23 H23        -24.5412  29.2730   0.4526 H              1 RES1               0.0000
     24 H24        -25.8277  25.3323   3.8319 H              1 RES1               0.0000
     25 H25        -26.9997  26.5242   3.2744 H              1 RES1               0.0000
     26 H26        -25.4836  26.3049   2.4034 H              1 RES1               0.0000
     27 H27        -23.0211  30.2483   7.4914 H              1 RES1               0.0000
     28 H28        -24.9470  33.2609   5.1687 H              1 RES1               0.0000
     29 H29        -23.5621  32.6220   7.1047 H              1 RES1               0.0000
@<TRIPOS>BOND
    1    1    2 1     
    2    1    3 1     
    3    1    4 1     
    4    1    5 1     
    5    2    6 ar    
    6    2    7 ar    
    7    3    8 1     
    8    3    9 2     
    9    4   10 1     
   10    4   11 2     
   11    5   12 1     
   12    5   18 1     
   13    5   19 1     
   14    6   13 ar    
   15    6   20 1     
   16    7   14 ar    
   17    7   21 1     
   18    8   15 1     
   19    8   22 1     
   20   10   15 1     
   21   10   23 1     
   22   12   24 1     
   23   12   25 1     
   24   12   26 1     
   25   13   16 ar    
   26   13   27 1     
   27   14   16 ar    
   28   14   28 1     
   29   15   17 2     
   30   16   29 1     
@<TRIPOS>SUBSTRUCTURE
      1 RES1           1
@<TRIPOS>SET
DONOR_HYDROGENS      STATIC     ATOMS    <user>   **** ""
2 22 23
ATOM$RED        STATIC     ATOMS    COLORGROUP SYSTEM
2 22 23
@<TRIPOS>COMMENT
> <Gold.Version>
2022.3.0

> <Gold.Id.Protein>
unknown|7ta6_clean|pdb

> <Gold.Protein.RotatedTorsions>
[ 6033 5966 5967 5968 ] final  -14.29 input   72.04 | X-H torsion
[ 6208 6130 6131 6132 ] final -100.28 input   28.46 | X-H torsion
[ 12156 12099 12098 12096 ] final  -71.49 input   60.01 | X-H torsion
[ 12284 12244 12245 12246 ] final  106.08 input   50.53 | X-H torsion
[ 12404 12384 12385 12386 ] final    5.29 input   25.82 | X-H torsion
[ 12460 12440 12441 12442 ] final -127.64 input   -3.82 | X-H torsion
[ 12540 12505 12506 12507 ] final  150.19 input   74.25 | X-H torsion
[ 2786 2603 2604 2605 ] final -139.82 input  117.54 | X-H torsion
[ 20622 20550 20554 20551 ] final  105.28 input   82.88 | X-H torsion
[ 17287 17198 17202 17199 ] final -131.83 input   60.02 | X-H torsion
[ 6320 6280 6281 6282 ] final  -20.43 input   19.24 | X-H torsion
[ 17411 17334 17335 17336 ] final -133.33 input   65.80 | X-H torsion
[ 17508 17478 17479 17480 ] final  -30.86 input  127.72 | X-H torsion
[ 20694 2606 2605 2604 ] final -119.31 input   -0.00 | X-H torsion
[ 20697 5969 5968 5967 ] final  -86.21 input    0.00 | X-H torsion
[ 20703 12247 12246 12245 ] final -136.40 input    0.00 | X-H torsion
[ 20706 12387 12386 12385 ] final  -49.94 input   -0.00 | X-H torsion
[ 20709 12443 12442 12441 ] final  101.40 input    0.00 | X-H torsion
[ 20713 20017 20016 20015 ] final   59.75 input   -0.00 | X-H torsion
[ 20715 20461 20460 20459 ] final  118.36 input   -0.00 | X-H torsion
[ 20718 12508 12507 12506 ] final  -33.75 input   -0.00 | X-H torsion

> <Gold.Protein.ActiveResidues>
 TRP28   LEU57   ILE58   TYR59   SER60   LEU94   TYR119  LEU120  GLY121  GLY122 
 VAL123  PHE124  XCP1    LEU2    GLY3    TRP4    ILE6    ILE24   LEU25   CYS27  
 XCP29  

> <Gold.Protein.RotatedAtoms>
  -27.7361   34.3783   12.1192 H   0  0  0  0  0  0  0  0  0  0  0  0  # atno 2786 bound_to 2603
  -19.9382   27.4240    9.5501 H   0  0  0  0  0  0  0  0  0  0  0  0  # atno 6033 bound_to 5966
  -17.2270   29.3527    9.0439 H   0  0  0  0  0  0  0  0  0  0  0  0  # atno 6208 bound_to 6130
  -17.3333   33.7048    8.6185 H   0  0  0  0  0  0  0  0  0  0  0  0  # atno 6320 bound_to 6280
  -21.0504   33.0990    8.8157 H   0  0  0  0  0  0  0  0  0  0  0  0  # atno 12156 bound_to 12099
  -16.7884   35.6040    5.3972 H   0  0  0  0  0  0  0  0  0  0  0  0  # atno 12284 bound_to 12244
  -19.2955   31.9885    4.1096 H   0  0  0  0  0  0  0  0  0  0  0  0  # atno 12404 bound_to 12384
  -21.2296   29.7772    5.8583 H   0  0  0  0  0  0  0  0  0  0  0  0  # atno 12460 bound_to 12440
  -22.6213   26.1043    5.8017 H   0  0  0  0  0  0  0  0  0  0  0  0  # atno 12540 bound_to 12505
  -32.0903   25.0475    4.9638 H   0  0  0  0  0  0  0  0  0  0  0  0  # atno 17287 bound_to 17198
  -32.8542   26.5132    5.0930 H   0  0  0  0  0  0  0  0  0  0  0  0  # atno 17288 bound_to 17198
  -26.9122   39.6988    8.1265 H   0  0  0  0  0  0  0  0  0  0  0  0  # atno 17411 bound_to 17334
  -24.0648   39.1316    9.4406 H   0  0  0  0  0  0  0  0  0  0  0  0  # atno 17508 bound_to 17478
  -30.6853   32.4816   12.0099 H   0  0  0  0  0  0  0  0  0  0  0  0  # atno 20622 bound_to 20550
  -30.6330   33.3176    8.4793 LP  0  0  0  0  0  0  0  0  0  0  0  0  # atno 20694 bound_to 2606
  -29.6736   31.8755    8.4791 LP  0  0  0  0  0  0  0  0  0  0  0  0  # atno 20695 bound_to 2606
  -19.0859   25.9132    9.7930 LP  0  0  0  0  0  0  0  0  0  0  0  0  # atno 20696 bound_to 5966
  -18.4460   29.1043    7.1810 LP  0  0  0  0  0  0  0  0  0  0  0  0  # atno 20697 bound_to 5969
  -19.8013   29.3598    8.2288 LP  0  0  0  0  0  0  0  0  0  0  0  0  # atno 20698 bound_to 5969
  -17.6418   29.7907   10.6826 LP  0  0  0  0  0  0  0  0  0  0  0  0  # atno 20699 bound_to 6130
  -22.4419   33.2391    7.9835 LP  0  0  0  0  0  0  0  0  0  0  0  0  # atno 20700 bound_to 12099
  -22.2104   34.1102    9.3452 LP  0  0  0  0  0  0  0  0  0  0  0  0  # atno 20701 bound_to 12099
  -18.4938   35.7659    5.0334 LP  0  0  0  0  0  0  0  0  0  0  0  0  # atno 20702 bound_to 12244
  -17.9499   32.1995    7.3048 LP  0  0  0  0  0  0  0  0  0  0  0  0  # atno 20703 bound_to 12247
  -17.9132   33.9279    7.1997 LP  0  0  0  0  0  0  0  0  0  0  0  0  # atno 20704 bound_to 12247
  -18.8389   32.9615    5.4888 LP  0  0  0  0  0  0  0  0  0  0  0  0  # atno 20705 bound_to 12384
  -21.4166   30.9164    3.6864 LP  0  0  0  0  0  0  0  0  0  0  0  0  # atno 20706 bound_to 12387
  -20.4643   29.5118    3.3398 LP  0  0  0  0  0  0  0  0  0  0  0  0  # atno 20707 bound_to 12387
  -19.7825   28.9292    6.3435 LP  0  0  0  0  0  0  0  0  0  0  0  0  # atno 20708 bound_to 12440
  -20.9732   26.7359    8.0914 LP  0  0  0  0  0  0  0  0  0  0  0  0  # atno 20709 bound_to 12443
  -19.4988   26.4572    7.2263 LP  0  0  0  0  0  0  0  0  0  0  0  0  # atno 20710 bound_to 12443
  -21.0091   25.7331    5.2256 LP  0  0  0  0  0  0  0  0  0  0  0  0  # atno 20711 bound_to 12505
  -29.2160   33.6282   12.6770 LP  0  0  0  0  0  0  0  0  0  0  0  0  # atno 20712 bound_to 2603
  -26.0553   32.6990   13.4815 LP  0  0  0  0  0  0  0  0  0  0  0  0  # atno 20713 bound_to 20017
  -27.7285   32.7193   13.9286 LP  0  0  0  0  0  0  0  0  0  0  0  0  # atno 20714 bound_to 20017
  -28.8966   35.6071   10.1608 LP  0  0  0  0  0  0  0  0  0  0  0  0  # atno 20715 bound_to 20461
  -30.3065   35.9279   11.1143 LP  0  0  0  0  0  0  0  0  0  0  0  0  # atno 20716 bound_to 20461
  -30.2411   33.0688   10.4227 LP  0  0  0  0  0  0  0  0  0  0  0  0  # atno 20717 bound_to 20550
  -22.0166   23.1901    4.1033 LP  0  0  0  0  0  0  0  0  0  0  0  0  # atno 20718 bound_to 12508
  -20.3236   22.8440    3.9855 LP  0  0  0  0  0  0  0  0  0  0  0  0  # atno 20719 bound_to 12508
  -31.5499   26.3429    4.1045 LP  0  0  0  0  0  0  0  0  0  0  0  0  # atno 20720 bound_to 17198

> <Gold.Score>
     Fitness  S(hb_ext) S(vdw_ext)  S(hb_int)    S(int)      intcor
     23.26       0.03      17.41       0.00      -0.71      -0.76

> <Gold.Goldscore.Fitness>
23.2617

> <Gold.Goldscore.Internal.Vdw>
-1.0240

> <Gold.Goldscore.Internal.Torsion>
-0.4472

> <Gold.Goldscore.External.Vdw>
17.4137

> <Gold.Goldscore.Internal.HBond>
0.0000

> <Gold.Goldscore.External.HBond>
0.0307

> <Gold.Goldscore.Internal.Correction>
-0.7584

> <Gold.Goldscore.Hbonds>
donor molecule, donor type, donor heavy atom, donor atom, acceptor molecule, acceptor atom, score
      P1  H  2613  2792       L1     9  0.02

> <Gold.Goldscore.Internal.Vdw.Weighted>
-1.0240

> <Gold.Goldscore.Internal.Torsion.Weighted>
-0.4472

> <Gold.Goldscore.External.Vdw.Weighted>
23.9438

> <Gold.Goldscore.Internal.HBond.Weighted>
0.0000

> <Gold.Goldscore.External.HBond.Weighted>
0.0307

> <Gold.Goldscore.Internal.Correction.Weighted>
-0.7584

> <Gold.Rescore>
     Score     S(PLP)   S(hbond)     S(cho)   S(metal)  DE(clash)   DE(tors)     intcor
     26.63     -27.40       0.00       0.00       0.00       0.00       0.38       ----

> <Gold.PLP.Fitness>
26.6327

> <Gold.PLP.PLP>
-27.4014

> <Gold.PLP.part.hbond>
0.0000

> <Gold.PLP.part.metal>
0.0000

> <Gold.PLP.part.buried>
-0.7176

> <Gold.PLP.part.nonpolar>
-26.6277

> <Gold.PLP.part.repulsive>
0.0856

> <Gold.PLP.ligand.clash>
0.0000

> <Gold.PLP.ligand.torsion>
0.3844

> <Gold.PLP.Chemscore.Hbond>
0.0000

> <Gold.PLP.Chemscore.CHOScore>
0.0000

> <Gold.PLP.Chemscore.Metal>
0.0000

> <Gold.PLP.Chemscore.Internal.Correction>
   9.000000E+99

