#       Name:                CT1002167954
#       Creating user name   hitesit
#       Creation time:       Sun Apr 16 02:24:06 2023


#       File generated by GOLD software.
#

@<TRIPOS>MOLECULE
CT1002167954|ligand_prepared|mol2|1|dock3
    29    30     1
SMALL
NO_CHARGES


@<TRIPOS>ATOM
      1 C1         -24.9485  28.9236   2.9532 C.3            1 RES1               0.0000
      2 C2         -24.5010  29.6033   4.2634 C.ar           1 RES1               0.0000
      3 C3         -24.6854  27.4314   3.1331 C.2            1 RES1               0.0000
      4 C4         -26.4199  29.2782   2.7697 C.2            1 RES1               0.0000
      5 C5         -24.1801  29.4106   1.7026 C.3            1 RES1               0.0000
      6 C6         -24.0814  30.9302   4.2659 C.ar           1 RES1               0.0000
      7 C7         -24.5048  28.9183   5.4756 C.ar           1 RES1               0.0000
      8 N8         -25.7628  26.6193   3.3318 N.am           1 RES1               0.0000
      9 O9         -23.5469  26.9796   3.1400 O.2            1 RES1               0.0000
     10 N10        -27.3381  28.2630   2.8353 N.am           1 RES1               0.0000
     11 O11        -26.7941  30.4298   2.5853 O.2            1 RES1               0.0000
     12 C12        -24.3967  28.5423   0.4733 C.3            1 RES1               0.0000
     13 C13        -23.6829  31.5509   5.4382 C.ar           1 RES1               0.0000
     14 C14        -24.1056  29.5409   6.6467 C.ar           1 RES1               0.0000
     15 C15        -27.0789  26.9542   3.1387 C.2            1 RES1               0.0000
     16 C16        -23.6952  30.8569   6.6293 C.ar           1 RES1               0.0000
     17 O17        -27.9649  26.1096   3.2328 O.2            1 RES1               0.0000
     18 H18        -24.4957  30.4354   1.4711 H              1 RES1               0.0000
     19 H19        -23.1080  29.4341   1.9338 H              1 RES1               0.0000
     20 H20        -24.0628  31.4916   3.3377 H              1 RES1               0.0000
     21 H21        -24.8227  27.8819   5.5130 H              1 RES1               0.0000
     22 H22        -25.5724  25.6757   3.6540 H              1 RES1               0.0000
     23 H23        -28.3041  28.5055   2.6398 H              1 RES1               0.0000
     24 H24        -23.8354  28.9281  -0.3752 H              1 RES1               0.0000
     25 H25        -24.0700  27.5213   0.6597 H              1 RES1               0.0000
     26 H26        -25.4495  28.5167   0.1997 H              1 RES1               0.0000
     27 H27        -23.3595  32.5864   5.4189 H              1 RES1               0.0000
     28 H28        -24.1163  28.9907   7.5818 H              1 RES1               0.0000
     29 H29        -23.3833  31.3435   7.5476 H              1 RES1               0.0000
@<TRIPOS>BOND
    1    1    2 1     
    2    1    3 1     
    3    1    4 1     
    4    1    5 1     
    5    2    6 ar    
    6    2    7 ar    
    7    3    8 1     
    8    3    9 2     
    9    4   10 1     
   10    4   11 2     
   11    5   12 1     
   12    5   18 1     
   13    5   19 1     
   14    6   13 ar    
   15    6   20 1     
   16    7   14 ar    
   17    7   21 1     
   18    8   15 1     
   19    8   22 1     
   20   10   15 1     
   21   10   23 1     
   22   12   24 1     
   23   12   25 1     
   24   12   26 1     
   25   13   16 ar    
   26   13   27 1     
   27   14   16 ar    
   28   14   28 1     
   29   15   17 2     
   30   16   29 1     
@<TRIPOS>SUBSTRUCTURE
      1 RES1           1
@<TRIPOS>SET
DONOR_HYDROGENS      STATIC     ATOMS    <user>   **** ""
2 22 23
ATOM$RED        STATIC     ATOMS    COLORGROUP SYSTEM
2 22 23
@<TRIPOS>COMMENT
> <Gold.Version>
2022.3.0

> <Gold.Id.Protein>
unknown|7ta6_clean|pdb

> <Gold.Protein.RotatedTorsions>
[ 6033 5966 5967 5968 ] final   53.06 input   72.04 | X-H torsion
[ 6208 6130 6131 6132 ] final  -90.58 input   28.46 | X-H torsion
[ 12156 12099 12098 12096 ] final  -76.17 input   60.01 | X-H torsion
[ 12284 12244 12245 12246 ] final  146.69 input   50.53 | X-H torsion
[ 12404 12384 12385 12386 ] final  -23.69 input   25.82 | X-H torsion
[ 12460 12440 12441 12442 ] final -167.16 input   -3.82 | X-H torsion
[ 12540 12505 12506 12507 ] final   88.50 input   74.25 | X-H torsion
[ 2786 2603 2604 2605 ] final  -41.65 input  117.54 | X-H torsion
[ 20622 20550 20554 20551 ] final   47.81 input   82.88 | X-H torsion
[ 17287 17198 17202 17199 ] final    9.09 input   60.02 | X-H torsion
[ 6320 6280 6281 6282 ] final -112.05 input   19.24 | X-H torsion
[ 17411 17334 17335 17336 ] final  164.91 input   65.80 | X-H torsion
[ 17508 17478 17479 17480 ] final  107.53 input  127.72 | X-H torsion
[ 20694 2606 2605 2604 ] final   72.82 input   -0.00 | X-H torsion
[ 20697 5969 5968 5967 ] final  -63.47 input    0.00 | X-H torsion
[ 20703 12247 12246 12245 ] final  -92.99 input    0.00 | X-H torsion
[ 20706 12387 12386 12385 ] final   -1.69 input   -0.00 | X-H torsion
[ 20709 12443 12442 12441 ] final   27.81 input    0.00 | X-H torsion
[ 20713 20017 20016 20015 ] final -139.47 input   -0.00 | X-H torsion
[ 20715 20461 20460 20459 ] final  163.85 input   -0.00 | X-H torsion
[ 20718 12508 12507 12506 ] final  179.12 input   -0.00 | X-H torsion

> <Gold.Protein.ActiveResidues>
 TRP28   LEU57   ILE58   TYR59   SER60   LEU94   TYR119  LEU120  GLY121  GLY122 
 VAL123  PHE124  XCP1    LEU2    GLY3    TRP4    ILE6    ILE24   LEU25   CYS27  
 XCP29  

> <Gold.Protein.RotatedAtoms>
  -29.0647   34.5599   12.0259 H   0  0  0  0  0  0  0  0  0  0  0  0  # atno 2786 bound_to 2603
  -19.6172   26.8503    8.8107 H   0  0  0  0  0  0  0  0  0  0  0  0  # atno 6033 bound_to 5966
  -17.0877   29.3889    9.0829 H   0  0  0  0  0  0  0  0  0  0  0  0  # atno 6208 bound_to 6130
  -16.9786   33.0676    9.6630 H   0  0  0  0  0  0  0  0  0  0  0  0  # atno 6320 bound_to 6280
  -21.0641   33.0595    8.7517 H   0  0  0  0  0  0  0  0  0  0  0  0  # atno 12156 bound_to 12099
  -16.8659   35.8111    4.8197 H   0  0  0  0  0  0  0  0  0  0  0  0  # atno 12284 bound_to 12244
  -18.9101   31.8156    4.2446 H   0  0  0  0  0  0  0  0  0  0  0  0  # atno 12404 bound_to 12384
  -20.8110   29.8366    5.4384 H   0  0  0  0  0  0  0  0  0  0  0  0  # atno 12460 bound_to 12440
  -22.4967   25.6393    5.0231 H   0  0  0  0  0  0  0  0  0  0  0  0  # atno 12540 bound_to 12505
  -32.6958   26.7456    4.8886 H   0  0  0  0  0  0  0  0  0  0  0  0  # atno 17287 bound_to 17198
  -31.4273   26.0202    4.1056 H   0  0  0  0  0  0  0  0  0  0  0  0  # atno 17288 bound_to 17198
  -26.7055   39.0397    7.4012 H   0  0  0  0  0  0  0  0  0  0  0  0  # atno 17411 bound_to 17334
  -23.5284   39.5571    7.9450 H   0  0  0  0  0  0  0  0  0  0  0  0  # atno 17508 bound_to 17478
  -30.7285   33.3202   11.8556 H   0  0  0  0  0  0  0  0  0  0  0  0  # atno 20622 bound_to 20550
  -29.8339   31.7921    8.5077 LP  0  0  0  0  0  0  0  0  0  0  0  0  # atno 20694 bound_to 2606
  -30.4727   33.4010    8.4507 LP  0  0  0  0  0  0  0  0  0  0  0  0  # atno 20695 bound_to 2606
  -19.3950   26.4657   10.5050 LP  0  0  0  0  0  0  0  0  0  0  0  0  # atno 20696 bound_to 5966
  -18.5619   28.7855    7.2201 LP  0  0  0  0  0  0  0  0  0  0  0  0  # atno 20697 bound_to 5969
  -19.6854   29.6786    8.1897 LP  0  0  0  0  0  0  0  0  0  0  0  0  # atno 20698 bound_to 5969
  -17.7784   29.7553   10.6444 LP  0  0  0  0  0  0  0  0  0  0  0  0  # atno 20699 bound_to 6130
  -22.4950   33.2877    8.0108 LP  0  0  0  0  0  0  0  0  0  0  0  0  # atno 20700 bound_to 12099
  -22.1436   34.1014    9.3824 LP  0  0  0  0  0  0  0  0  0  0  0  0  # atno 20701 bound_to 12099
  -18.4190   35.5660    5.5908 LP  0  0  0  0  0  0  0  0  0  0  0  0  # atno 20702 bound_to 12244
  -17.3689   32.4146    7.1421 LP  0  0  0  0  0  0  0  0  0  0  0  0  # atno 20703 bound_to 12247
  -18.4941   33.7128    7.3625 LP  0  0  0  0  0  0  0  0  0  0  0  0  # atno 20704 bound_to 12247
  -19.2141   33.1298    5.3573 LP  0  0  0  0  0  0  0  0  0  0  0  0  # atno 20705 bound_to 12384
  -20.7384   31.0558    3.5384 LP  0  0  0  0  0  0  0  0  0  0  0  0  # atno 20706 bound_to 12387
  -21.1425   29.3723    3.4878 LP  0  0  0  0  0  0  0  0  0  0  0  0  # atno 20707 bound_to 12387
  -20.1932   28.8709    6.7554 LP  0  0  0  0  0  0  0  0  0  0  0  0  # atno 20708 bound_to 12440
  -20.3415   27.4555    7.6923 LP  0  0  0  0  0  0  0  0  0  0  0  0  # atno 20709 bound_to 12443
  -20.1305   25.7376    7.6254 LP  0  0  0  0  0  0  0  0  0  0  0  0  # atno 20710 bound_to 12443
  -21.1290   26.1805    5.9747 LP  0  0  0  0  0  0  0  0  0  0  0  0  # atno 20711 bound_to 12505
  -27.9300   33.4524   12.7674 LP  0  0  0  0  0  0  0  0  0  0  0  0  # atno 20712 bound_to 2603
  -27.7107   32.4517   13.8204 LP  0  0  0  0  0  0  0  0  0  0  0  0  # atno 20713 bound_to 20017
  -26.0731   32.9666   13.5896 LP  0  0  0  0  0  0  0  0  0  0  0  0  # atno 20714 bound_to 20017
  -29.3491   35.1146   10.1277 LP  0  0  0  0  0  0  0  0  0  0  0  0  # atno 20715 bound_to 20461
  -29.8540   36.4204   11.1474 LP  0  0  0  0  0  0  0  0  0  0  0  0  # atno 20716 bound_to 20461
  -30.1992   32.2549   10.5725 LP  0  0  0  0  0  0  0  0  0  0  0  0  # atno 20717 bound_to 20550
  -20.5484   22.4142    4.0559 LP  0  0  0  0  0  0  0  0  0  0  0  0  # atno 20718 bound_to 12508
  -21.7918   23.6198    4.0329 LP  0  0  0  0  0  0  0  0  0  0  0  0  # atno 20719 bound_to 12508
  -32.3590   25.1562    5.1509 LP  0  0  0  0  0  0  0  0  0  0  0  0  # atno 20720 bound_to 17198

> <Gold.Score>
     Fitness  S(hb_ext) S(vdw_ext)  S(hb_int)    S(int)      intcor
     23.16       0.23      17.31       0.00      -0.86      -0.76

> <Gold.Goldscore.Fitness>
23.1624

> <Gold.Goldscore.Internal.Vdw>
-1.0000

> <Gold.Goldscore.Internal.Torsion>
-0.6219

> <Gold.Goldscore.External.Vdw>
17.3055

> <Gold.Goldscore.Internal.HBond>
0.0000

> <Gold.Goldscore.External.HBond>
0.2308

> <Gold.Goldscore.Internal.Correction>
-0.7584

> <Gold.Goldscore.Hbonds>
donor molecule, donor type, donor heavy atom, donor atom, acceptor molecule, acceptor atom, score
      P1  H 12505 12540       L1     9  0.12

> <Gold.Goldscore.Internal.Vdw.Weighted>
-1.0000

> <Gold.Goldscore.Internal.Torsion.Weighted>
-0.6219

> <Gold.Goldscore.External.Vdw.Weighted>
23.7950

> <Gold.Goldscore.Internal.HBond.Weighted>
0.0000

> <Gold.Goldscore.External.HBond.Weighted>
0.2308

> <Gold.Goldscore.Internal.Correction.Weighted>
-0.7584

> <Gold.Rescore>
     Score     S(PLP)   S(hbond)     S(cho)   S(metal)  DE(clash)   DE(tors)     intcor
     24.45     -23.18       0.99       0.00       0.00       0.12       0.79       ----

> <Gold.PLP.Fitness>
24.4473

> <Gold.PLP.PLP>
-23.1786

> <Gold.PLP.part.hbond>
-1.0000

> <Gold.PLP.part.metal>
0.0000

> <Gold.PLP.part.buried>
-0.3329

> <Gold.PLP.part.nonpolar>
-21.8939

> <Gold.PLP.part.repulsive>
0.0879

> <Gold.PLP.ligand.clash>
0.1192

> <Gold.PLP.ligand.torsion>
0.7929

> <Gold.PLP.Chemscore.Hbond>
0.9913

> <Gold.PLP.Chemscore.CHOScore>
0.0000

> <Gold.PLP.Chemscore.Metal>
0.0000

> <Gold.PLP.Chemscore.Internal.Correction>
   9.000000E+99

