#       Name:                CT1002167954
#       Creating user name   hitesit
#       Creation time:       Sun Apr 16 02:24:06 2023


#       File generated by GOLD software.
#

@<TRIPOS>MOLECULE
CT1002167954|ligand_prepared|mol2|1|dock2
    29    30     1
SMALL
NO_CHARGES


@<TRIPOS>ATOM
      1 C1         -25.0737  32.5024   3.7834 C.3            1 RES1               0.0000
      2 C2         -24.6589  31.3619   4.7352 C.ar           1 RES1               0.0000
      3 C3         -26.4857  32.9104   4.1934 C.2            1 RES1               0.0000
      4 C4         -24.0329  33.6029   3.9572 C.2            1 RES1               0.0000
      5 C5         -25.0939  32.0950   2.2917 C.3            1 RES1               0.0000
      6 C6         -24.8436  30.0317   4.3701 C.ar           1 RES1               0.0000
      7 C7         -24.0889  31.6237   5.9782 C.ar           1 RES1               0.0000
      8 N8         -26.6338  34.0911   4.8598 N.am           1 RES1               0.0000
      9 O9         -27.4496  32.1884   3.9705 O.2            1 RES1               0.0000
     10 N10        -24.4420  34.7942   4.4968 N.am           1 RES1               0.0000
     11 O11        -22.8587  33.4434   3.6471 O.2            1 RES1               0.0000
     12 C12        -25.2094  33.2723   1.3362 C.3            1 RES1               0.0000
     13 C13        -24.4693  29.0006   5.2157 C.ar           1 RES1               0.0000
     14 C14        -23.7155  30.5910   6.8224 C.ar           1 RES1               0.0000
     15 C15        -25.6887  35.0775   4.9843 C.2            1 RES1               0.0000
     16 C16        -23.9047  29.2794   6.4420 C.ar           1 RES1               0.0000
     17 O17        -25.9658  36.1542   5.5051 O.2            1 RES1               0.0000
     18 H18        -24.1730  31.5442   2.0636 H              1 RES1               0.0000
     19 H19        -25.9402  31.4181   2.1218 H              1 RES1               0.0000
     20 H20        -25.2887  29.7929   3.4099 H              1 RES1               0.0000
     21 H21        -23.9316  32.6479   6.2989 H              1 RES1               0.0000
     22 H22        -27.5300  34.2558   5.3069 H              1 RES1               0.0000
     23 H23        -23.7535  35.5388   4.5387 H              1 RES1               0.0000
     24 H24        -25.2191  32.9310   0.3031 H              1 RES1               0.0000
     25 H25        -26.1269  33.8281   1.5181 H              1 RES1               0.0000
     26 H26        -24.3701  33.9535   1.4602 H              1 RES1               0.0000
     27 H27        -24.6216  27.9701   4.9122 H              1 RES1               0.0000
     28 H28        -23.2721  30.8152   7.7870 H              1 RES1               0.0000
     29 H29        -23.6112  28.4715   7.1041 H              1 RES1               0.0000
@<TRIPOS>BOND
    1    1    2 1     
    2    1    3 1     
    3    1    4 1     
    4    1    5 1     
    5    2    6 ar    
    6    2    7 ar    
    7    3    8 1     
    8    3    9 2     
    9    4   10 1     
   10    4   11 2     
   11    5   12 1     
   12    5   18 1     
   13    5   19 1     
   14    6   13 ar    
   15    6   20 1     
   16    7   14 ar    
   17    7   21 1     
   18    8   15 1     
   19    8   22 1     
   20   10   15 1     
   21   10   23 1     
   22   12   24 1     
   23   12   25 1     
   24   12   26 1     
   25   13   16 ar    
   26   13   27 1     
   27   14   16 ar    
   28   14   28 1     
   29   15   17 2     
   30   16   29 1     
@<TRIPOS>SUBSTRUCTURE
      1 RES1           1
@<TRIPOS>SET
DONOR_HYDROGENS      STATIC     ATOMS    <user>   **** ""
2 22 23
ATOM$RED        STATIC     ATOMS    COLORGROUP SYSTEM
2 22 23
@<TRIPOS>COMMENT
> <Gold.Version>
2022.3.0

> <Gold.Id.Protein>
unknown|7ta6_clean|pdb

> <Gold.Protein.RotatedTorsions>
[ 6033 5966 5967 5968 ] final   58.06 input   72.04 | X-H torsion
[ 6208 6130 6131 6132 ] final  -88.40 input   28.46 | X-H torsion
[ 12156 12099 12098 12096 ] final -104.07 input   60.01 | X-H torsion
[ 12284 12244 12245 12246 ] final  -93.50 input   50.53 | X-H torsion
[ 12404 12384 12385 12386 ] final   41.26 input   25.82 | X-H torsion
[ 12460 12440 12441 12442 ] final -163.87 input   -3.82 | X-H torsion
[ 12540 12505 12506 12507 ] final  106.38 input   74.25 | X-H torsion
[ 2786 2603 2604 2605 ] final  141.45 input  117.54 | X-H torsion
[ 20622 20550 20554 20551 ] final  -23.62 input   82.88 | X-H torsion
[ 17287 17198 17202 17199 ] final  -54.93 input   60.02 | X-H torsion
[ 6320 6280 6281 6282 ] final  -83.37 input   19.24 | X-H torsion
[ 17411 17334 17335 17336 ] final -125.13 input   65.80 | X-H torsion
[ 17508 17478 17479 17480 ] final -154.72 input  127.72 | X-H torsion
[ 20694 2606 2605 2604 ] final  -12.47 input   -0.00 | X-H torsion
[ 20697 5969 5968 5967 ] final  128.97 input    0.00 | X-H torsion
[ 20703 12247 12246 12245 ] final  166.04 input    0.00 | X-H torsion
[ 20706 12387 12386 12385 ] final -179.08 input   -0.00 | X-H torsion
[ 20709 12443 12442 12441 ] final  136.34 input    0.00 | X-H torsion
[ 20713 20017 20016 20015 ] final  142.70 input   -0.00 | X-H torsion
[ 20715 20461 20460 20459 ] final -134.70 input   -0.00 | X-H torsion
[ 20718 12508 12507 12506 ] final -146.94 input   -0.00 | X-H torsion

> <Gold.Protein.ActiveResidues>
 TRP28   LEU57   ILE58   TYR59   SER60   LEU94   TYR119  LEU120  GLY121  GLY122 
 VAL123  PHE124  XCP1    LEU2    GLY3    TRP4    ILE6    ILE24   LEU25   CYS27  
 XCP29  

> <Gold.Protein.RotatedAtoms>
  -27.8761   33.4500   12.7449 H   0  0  0  0  0  0  0  0  0  0  0  0  # atno 2786 bound_to 2603
  -19.5791   26.7844    8.7942 H   0  0  0  0  0  0  0  0  0  0  0  0  # atno 6033 bound_to 5966
  -17.0576   29.3978    9.0948 H   0  0  0  0  0  0  0  0  0  0  0  0  # atno 6208 bound_to 6130
  -17.2277   33.3818    9.4813 H   0  0  0  0  0  0  0  0  0  0  0  0  # atno 6320 bound_to 6280
  -21.2553   32.8904    8.3794 H   0  0  0  0  0  0  0  0  0  0  0  0  # atno 12156 bound_to 12099
  -18.4063   35.8396    4.7558 H   0  0  0  0  0  0  0  0  0  0  0  0  # atno 12284 bound_to 12244
  -19.6841   32.3657    4.1862 H   0  0  0  0  0  0  0  0  0  0  0  0  # atno 12404 bound_to 12384
  -20.8547   29.8404    5.4637 H   0  0  0  0  0  0  0  0  0  0  0  0  # atno 12460 bound_to 12440
  -22.6342   25.7660    5.2281 H   0  0  0  0  0  0  0  0  0  0  0  0  # atno 12540 bound_to 12505
  -32.8832   25.8541    5.3357 H   0  0  0  0  0  0  0  0  0  0  0  0  # atno 17287 bound_to 17198
  -32.0122   26.8233    4.3109 H   0  0  0  0  0  0  0  0  0  0  0  0  # atno 17288 bound_to 17198
  -26.8598   39.7991    8.2081 H   0  0  0  0  0  0  0  0  0  0  0  0  # atno 17411 bound_to 17334
  -23.4781   38.2769    8.2848 H   0  0  0  0  0  0  0  0  0  0  0  0  # atno 17508 bound_to 17478
  -30.4629   33.6127   10.8971 H   0  0  0  0  0  0  0  0  0  0  0  0  # atno 20622 bound_to 20550
  -29.3328   32.8412    8.3491 LP  0  0  0  0  0  0  0  0  0  0  0  0  # atno 20694 bound_to 2606
  -30.9738   32.3520    8.6092 LP  0  0  0  0  0  0  0  0  0  0  0  0  # atno 20695 bound_to 2606
  -19.4316   26.5291   10.5209 LP  0  0  0  0  0  0  0  0  0  0  0  0  # atno 20696 bound_to 5966
  -19.5832   29.8265    8.1354 LP  0  0  0  0  0  0  0  0  0  0  0  0  # atno 20697 bound_to 5969
  -18.6641   28.6375    7.2743 LP  0  0  0  0  0  0  0  0  0  0  0  0  # atno 20698 bound_to 5969
  -17.8079   29.7466   10.6327 LP  0  0  0  0  0  0  0  0  0  0  0  0  # atno 20699 bound_to 6130
  -22.7187   33.5928    8.2628 LP  0  0  0  0  0  0  0  0  0  0  0  0  # atno 20700 bound_to 12099
  -21.7272   33.9666    9.5053 LP  0  0  0  0  0  0  0  0  0  0  0  0  # atno 20701 bound_to 12099
  -16.9325   35.5385    5.6525 LP  0  0  0  0  0  0  0  0  0  0  0  0  # atno 20702 bound_to 12244
  -18.6487   32.6263    7.4627 LP  0  0  0  0  0  0  0  0  0  0  0  0  # atno 20703 bound_to 12247
  -17.2143   33.5012    7.0419 LP  0  0  0  0  0  0  0  0  0  0  0  0  # atno 20704 bound_to 12247
  -18.4604   32.5942    5.4142 LP  0  0  0  0  0  0  0  0  0  0  0  0  # atno 20705 bound_to 12384
  -21.1795   29.3818    3.4973 LP  0  0  0  0  0  0  0  0  0  0  0  0  # atno 20706 bound_to 12387
  -20.7014   31.0463    3.5288 LP  0  0  0  0  0  0  0  0  0  0  0  0  # atno 20707 bound_to 12387
  -20.1503   28.8671    6.7306 LP  0  0  0  0  0  0  0  0  0  0  0  0  # atno 20708 bound_to 12440
  -20.9017   26.2215    8.0665 LP  0  0  0  0  0  0  0  0  0  0  0  0  # atno 20709 bound_to 12443
  -19.5703   26.9716    7.2512 LP  0  0  0  0  0  0  0  0  0  0  0  0  # atno 20710 bound_to 12443
  -20.9966   26.0586    5.7774 LP  0  0  0  0  0  0  0  0  0  0  0  0  # atno 20711 bound_to 12505
  -29.0805   34.5268   12.0714 LP  0  0  0  0  0  0  0  0  0  0  0  0  # atno 20712 bound_to 2603
  -26.8760   31.9029   13.3892 LP  0  0  0  0  0  0  0  0  0  0  0  0  # atno 20713 bound_to 20017
  -26.9078   33.5153   14.0209 LP  0  0  0  0  0  0  0  0  0  0  0  0  # atno 20714 bound_to 20017
  -30.1312   35.0892   10.5408 LP  0  0  0  0  0  0  0  0  0  0  0  0  # atno 20715 bound_to 20461
  -29.0719   36.4458   10.7343 LP  0  0  0  0  0  0  0  0  0  0  0  0  # atno 20716 bound_to 20461
  -30.4570   31.9711   11.5027 LP  0  0  0  0  0  0  0  0  0  0  0  0  # atno 20717 bound_to 20550
  -20.9880   22.1742    4.1245 LP  0  0  0  0  0  0  0  0  0  0  0  0  # atno 20718 bound_to 12508
  -21.3522   23.8599    3.9643 LP  0  0  0  0  0  0  0  0  0  0  0  0  # atno 20719 bound_to 12508
  -31.5984   25.2432    4.5085 LP  0  0  0  0  0  0  0  0  0  0  0  0  # atno 20720 bound_to 17198

> <Gold.Score>
     Fitness  S(hb_ext) S(vdw_ext)  S(hb_int)    S(int)      intcor
     25.54       0.00      18.97       0.00      -0.54      -0.76

> <Gold.Goldscore.Fitness>
25.5428

> <Gold.Goldscore.Internal.Vdw>
-0.7041

> <Gold.Goldscore.Internal.Torsion>
-0.5979

> <Gold.Goldscore.External.Vdw>
18.9720

> <Gold.Goldscore.Internal.HBond>
0.0000

> <Gold.Goldscore.External.HBond>
0.0000

> <Gold.Goldscore.Internal.Correction>
-0.7584

> <Gold.Goldscore.Internal.Vdw.Weighted>
-0.7041

> <Gold.Goldscore.Internal.Torsion.Weighted>
-0.5979

> <Gold.Goldscore.External.Vdw.Weighted>
26.0865

> <Gold.Goldscore.Internal.HBond.Weighted>
0.0000

> <Gold.Goldscore.External.HBond.Weighted>
0.0000

> <Gold.Goldscore.Internal.Correction.Weighted>
-0.7584

> <Gold.Rescore>
     Score     S(PLP)   S(hbond)     S(cho)   S(metal)  DE(clash)   DE(tors)     intcor
     28.52     -28.68       0.00       0.00       0.00       0.00       0.08       ----

> <Gold.PLP.Fitness>
28.5163

> <Gold.PLP.PLP>
-28.6830

> <Gold.PLP.part.hbond>
0.0000

> <Gold.PLP.part.metal>
0.0000

> <Gold.PLP.part.buried>
-4.1589

> <Gold.PLP.part.nonpolar>
-24.4324

> <Gold.PLP.part.repulsive>
0.0905

> <Gold.PLP.ligand.clash>
0.0000

> <Gold.PLP.ligand.torsion>
0.0834

> <Gold.PLP.Chemscore.Hbond>
0.0000

> <Gold.PLP.Chemscore.CHOScore>
0.0000

> <Gold.PLP.Chemscore.Metal>
0.0000

> <Gold.PLP.Chemscore.Internal.Correction>
   9.000000E+99

