#       Name:                CT1002167954
#       Creating user name   hitesit
#       Creation time:       Sun Apr 16 02:21:33 2023


#       File generated by GOLD software.
#

@<TRIPOS>MOLECULE
CT1002167954|ligand_prepared|mol2|1|dock1
    29    30     1
SMALL
NO_CHARGES


@<TRIPOS>ATOM
      1 C1          42.2389  32.0642  31.5702 C.3            1 RES1               0.0000
      2 C2          40.7744  32.1491  31.0939 C.ar           1 RES1               0.0000
      3 C3          43.1051  32.2780  30.3324 C.2            1 RES1               0.0000
      4 C4          42.4032  33.1401  32.6379 C.2            1 RES1               0.0000
      5 C5          42.6125  30.7031  32.2021 C.3            1 RES1               0.0000
      6 C6          40.4612  32.7206  29.8642 C.ar           1 RES1               0.0000
      7 C7          39.7280  31.6587  31.8705 C.ar           1 RES1               0.0000
      8 N8          43.7436  33.4766  30.2073 N.am           1 RES1               0.0000
      9 O9          43.1950  31.4230  29.4599 O.2            1 RES1               0.0000
     10 N10         43.2443  34.1881  32.3693 N.am           1 RES1               0.0000
     11 O11         41.7992  33.0984  33.7027 O.2            1 RES1               0.0000
     12 C12         42.0477  29.5048  31.4555 C.3            1 RES1               0.0000
     13 C13         39.1497  32.7964  29.4254 C.ar           1 RES1               0.0000
     14 C14         38.4171  31.7357  31.4299 C.ar           1 RES1               0.0000
     15 C15         43.8982  34.4209  31.1902 C.2            1 RES1               0.0000
     16 C16         38.1269  32.3038  30.2076 C.ar           1 RES1               0.0000
     17 O17         44.5944  35.4151  31.0055 O.2            1 RES1               0.0000
     18 H18         43.7056  30.6164  32.2333 H              1 RES1               0.0000
     19 H19         42.2447  30.6806  33.2353 H              1 RES1               0.0000
     20 H20         41.2525  33.1158  29.2361 H              1 RES1               0.0000
     21 H21         39.9325  31.2086  32.8360 H              1 RES1               0.0000
     22 H22         44.1429  33.6906  29.2990 H              1 RES1               0.0000
     23 H23         43.3971  34.8565  33.1178 H              1 RES1               0.0000
     24 H24         42.3395  28.5756  31.9404 H              1 RES1               0.0000
     25 H25         40.9608  29.5454  31.4269 H              1 RES1               0.0000
     26 H26         42.4130  29.4816  30.4308 H              1 RES1               0.0000
     27 H27         38.9265  33.2457  28.4634 H              1 RES1               0.0000
     28 H28         37.6152  31.3473  32.0490 H              1 RES1               0.0000
     29 H29         37.0996  32.3630  29.8635 H              1 RES1               0.0000
@<TRIPOS>BOND
    1    1    2 1     
    2    1    3 1     
    3    1    4 1     
    4    1    5 1     
    5    2    6 ar    
    6    2    7 ar    
    7    3    8 1     
    8    3    9 2     
    9    4   10 1     
   10    4   11 2     
   11    5   12 1     
   12    5   18 1     
   13    5   19 1     
   14    6   13 ar    
   15    6   20 1     
   16    7   14 ar    
   17    7   21 1     
   18    8   15 1     
   19    8   22 1     
   20   10   15 1     
   21   10   23 1     
   22   12   24 1     
   23   12   25 1     
   24   12   26 1     
   25   13   16 ar    
   26   13   27 1     
   27   14   16 ar    
   28   14   28 1     
   29   15   17 2     
   30   16   29 1     
@<TRIPOS>SUBSTRUCTURE
      1 RES1           1
@<TRIPOS>SET
DONOR_HYDROGENS      STATIC     ATOMS    <user>   **** ""
2 22 23
ATOM$RED        STATIC     ATOMS    COLORGROUP SYSTEM
2 22 23
@<TRIPOS>COMMENT
> <Gold.Version>
2022.3.0

> <Gold.Id.Protein>
unknown|2zaz_clean|pdb

> <Gold.Protein.RotatedTorsions>
[ 1651 1646 1644 1641 ] final  -66.90 input   60.01 | X-H torsion
[ 2465 2462 2458 2455 ] final   18.95 input  -12.99 | X-H torsion

> <Gold.Protein.ActiveResidues>
 TRP18   SER28   PRO29   VAL30   GLY31   GLY36   SER37   VAL38   CYS39   ALA40  
 ALA41   ARG49   VAL50   ALA51   VAL52   LYS53   LYS54   LEU55   GLU71   LEU75  
 ILE84   GLY85   LEU86   LEU87   TYR103  LEU104  VAL105  THR106  HIS107  LEU108 
 MET109  GLY110  ALA111  ASP112  ASN115  HIS148  ASN155  ALA157  LYS165  ILE166 
 LEU167  ASP168  PHE169  GLY170  LEU171 

> <Gold.Protein.RotatedAtoms>
   39.6871   34.9637   31.3601 H   0  0  0  0  0  0  0  0  0  0  0  0  # atno 1651 bound_to 1646
   47.5698   27.0607   36.9794 H   0  0  0  0  0  0  0  0  0  0  0  0  # atno 2465 bound_to 2455 2458 2462
   40.5286   34.7269   32.7323 LP  0  0  0  0  0  0  0  0  0  0  0  0  # atno 5613 bound_to 1646
   40.4833   36.2069   32.0438 LP  0  0  0  0  0  0  0  0  0  0  0  0  # atno 5614 bound_to 1646
   46.6438   26.2530   35.8028 LP  0  0  0  0  0  0  0  0  0  0  0  0  # atno 5634 bound_to 2462
   48.2306   25.8907   35.9359 LP  0  0  0  0  0  0  0  0  0  0  0  0  # atno 5635 bound_to 2462

> <Gold.Score>
     Fitness  S(hb_ext) S(vdw_ext)  S(hb_int)    S(int)      intcor
     38.09       2.00      28.78       0.00      -3.48      -0.79

> <Gold.Goldscore.Fitness>
38.0885

> <Gold.Goldscore.Internal.Vdw>
-3.3987

> <Gold.Goldscore.Internal.Torsion>
-0.8682

> <Gold.Goldscore.External.Vdw>
28.7785

> <Gold.Goldscore.Internal.HBond>
0.0000

> <Gold.Goldscore.External.HBond>
2.0000

> <Gold.Goldscore.Internal.Correction>
-0.7850

> <Gold.Goldscore.Hbonds>
donor molecule, donor type, donor heavy atom, donor atom, acceptor molecule, acceptor atom, score
      P1  H  1690  1698       L1    17  1.00

> <Gold.Goldscore.Internal.Vdw.Weighted>
-3.3987

> <Gold.Goldscore.Internal.Torsion.Weighted>
-0.8682

> <Gold.Goldscore.External.Vdw.Weighted>
39.5704

> <Gold.Goldscore.Internal.HBond.Weighted>
0.0000

> <Gold.Goldscore.External.HBond.Weighted>
2.0000

> <Gold.Goldscore.Internal.Correction.Weighted>
-0.7850

> <Gold.Rescore>
     Score     S(PLP)   S(hbond)     S(cho)   S(metal)  DE(clash)   DE(tors)     intcor
     38.15     -37.38       1.00       0.00       0.00       0.00       1.12       ----

> <Gold.PLP.Fitness>
38.1454

> <Gold.PLP.PLP>
-37.3788

> <Gold.PLP.part.hbond>
-1.0000

> <Gold.PLP.part.metal>
0.0000

> <Gold.PLP.part.buried>
-3.5753

> <Gold.PLP.part.nonpolar>
-32.4366

> <Gold.PLP.part.repulsive>
0.1392

> <Gold.PLP.ligand.clash>
0.0000

> <Gold.PLP.ligand.torsion>
1.1167

> <Gold.PLP.Chemscore.Hbond>
1.0000

> <Gold.PLP.Chemscore.CHOScore>
0.0000

> <Gold.PLP.Chemscore.Metal>
0.0000

> <Gold.Chemscore.Hbonds>
donor molecule, donor type, donor heavy atom, donor atom, acceptor molecule, acceptor atom, score
      P1  H  1690  1698       L1    17  1.00

> <Gold.PLP.Chemscore.Internal.Correction>
   9.000000E+99

