#       Name:                CT1002167954
#       Creating user name   hitesit
#       Creation time:       Sun Apr 16 02:21:36 2023


#       File generated by GOLD software.
#

@<TRIPOS>MOLECULE
CT1002167954|ligand_prepared|mol2|1|dock4
    29    30     1
SMALL
NO_CHARGES


@<TRIPOS>ATOM
      1 C1          41.9031  30.6509  32.1151 C.3            1 RES1               0.0000
      2 C2          40.6485  31.2666  31.4628 C.ar           1 RES1               0.0000
      3 C3          41.4020  29.7399  33.2320 C.2            1 RES1               0.0000
      4 C4          42.6471  29.9200  31.0030 C.2            1 RES1               0.0000
      5 C5          42.8653  31.6952  32.7276 C.3            1 RES1               0.0000
      6 C6          40.7635  32.3199  30.5605 C.ar           1 RES1               0.0000
      7 C7          39.3719  30.7912  31.7508 C.ar           1 RES1               0.0000
      8 N8          41.4653  28.3934  33.0253 N.am           1 RES1               0.0000
      9 O9          40.9220  30.1967  34.2622 O.2            1 RES1               0.0000
     10 N10         42.7441  28.5556  31.0842 N.am           1 RES1               0.0000
     11 O11         43.1359  30.5119  30.0485 O.2            1 RES1               0.0000
     12 C12         42.1597  32.8089  33.4851 C.3            1 RES1               0.0000
     13 C13         39.6432  32.8758  29.9654 C.ar           1 RES1               0.0000
     14 C14         38.2529  31.3487  31.1547 C.ar           1 RES1               0.0000
     15 C15         42.1604  27.7563  32.0290 C.2            1 RES1               0.0000
     16 C16         38.3873  32.3905  30.2616 C.ar           1 RES1               0.0000
     17 O17         42.2476  26.5320  32.0044 O.2            1 RES1               0.0000
     18 H18         43.5529  31.1832  33.4120 H              1 RES1               0.0000
     19 H19         43.4630  32.1397  31.9222 H              1 RES1               0.0000
     20 H20         41.7434  32.7167  30.3169 H              1 RES1               0.0000
     21 H21         39.2420  29.9731  32.4511 H              1 RES1               0.0000
     22 H22         40.9478  27.8057  33.6713 H              1 RES1               0.0000
     23 H23         43.3033  28.0928  30.3746 H              1 RES1               0.0000
     24 H24         42.8804  33.5139  33.8942 H              1 RES1               0.0000
     25 H25         41.4862  33.3556  32.8284 H              1 RES1               0.0000
     26 H26         41.5756  32.4048  34.3093 H              1 RES1               0.0000
     27 H27         39.7543  33.6964  29.2643 H              1 RES1               0.0000
     28 H28         37.2664  30.9640  31.3913 H              1 RES1               0.0000
     29 H29         37.5099  32.8259  29.7950 H              1 RES1               0.0000
@<TRIPOS>BOND
    1    1    2 1     
    2    1    3 1     
    3    1    4 1     
    4    1    5 1     
    5    2    6 ar    
    6    2    7 ar    
    7    3    8 1     
    8    3    9 2     
    9    4   10 1     
   10    4   11 2     
   11    5   12 1     
   12    5   18 1     
   13    5   19 1     
   14    6   13 ar    
   15    6   20 1     
   16    7   14 ar    
   17    7   21 1     
   18    8   15 1     
   19    8   22 1     
   20   10   15 1     
   21   10   23 1     
   22   12   24 1     
   23   12   25 1     
   24   12   26 1     
   25   13   16 ar    
   26   13   27 1     
   27   14   16 ar    
   28   14   28 1     
   29   15   17 2     
   30   16   29 1     
@<TRIPOS>SUBSTRUCTURE
      1 RES1           1
@<TRIPOS>SET
DONOR_HYDROGENS      STATIC     ATOMS    <user>   **** ""
2 22 23
ATOM$RED        STATIC     ATOMS    COLORGROUP SYSTEM
2 22 23
@<TRIPOS>COMMENT
> <Gold.Version>
2022.3.0

> <Gold.Id.Protein>
unknown|2zaz_clean|pdb

> <Gold.Protein.RotatedTorsions>
[ 1651 1646 1644 1641 ] final  -40.76 input   60.01 | X-H torsion
[ 2465 2462 2458 2455 ] final  131.20 input  -12.99 | X-H torsion

> <Gold.Protein.ActiveResidues>
 TRP18   SER28   PRO29   VAL30   GLY31   GLY36   SER37   VAL38   CYS39   ALA40  
 ALA41   ARG49   VAL50   ALA51   VAL52   LYS53   LYS54   LEU55   GLU71   LEU75  
 ILE84   GLY85   LEU86   LEU87   TYR103  LEU104  VAL105  THR106  HIS107  LEU108 
 MET109  GLY110  ALA111  ASP112  ASN115  HIS148  ASN155  ALA157  LYS165  ILE166 
 LEU167  ASP168  PHE169  GLY170  LEU171 

> <Gold.Protein.RotatedAtoms>
   39.7312   35.3716   31.2563 H   0  0  0  0  0  0  0  0  0  0  0  0  # atno 1651 bound_to 1646
   48.0869   25.7577   36.8800 H   0  0  0  0  0  0  0  0  0  0  0  0  # atno 2465 bound_to 2455 2458 2462
   40.2952   34.4684   32.4864 LP  0  0  0  0  0  0  0  0  0  0  0  0  # atno 5613 bound_to 1646
   40.6722   36.0546   32.3943 LP  0  0  0  0  0  0  0  0  0  0  0  0  # atno 5614 bound_to 1646
   47.7162   27.1869   36.0349 LP  0  0  0  0  0  0  0  0  0  0  0  0  # atno 5634 bound_to 2462
   46.7993   25.8612   35.7729 LP  0  0  0  0  0  0  0  0  0  0  0  0  # atno 5635 bound_to 2462

> <Gold.Score>
     Fitness  S(hb_ext) S(vdw_ext)  S(hb_int)    S(int)      intcor
     35.98       0.30      28.21       0.00      -3.10      -0.78

> <Gold.Goldscore.Fitness>
35.9805

> <Gold.Goldscore.Internal.Vdw>
-3.0255

> <Gold.Goldscore.Internal.Torsion>
-0.8603

> <Gold.Goldscore.External.Vdw>
28.2086

> <Gold.Goldscore.Internal.HBond>
0.0000

> <Gold.Goldscore.External.HBond>
0.2957

> <Gold.Goldscore.Internal.Correction>
-0.7838

> <Gold.Goldscore.Hbonds>
donor molecule, donor type, donor heavy atom, donor atom, acceptor molecule, acceptor atom, score
      P1  H   730   735       L1    17  0.01
      P1  H  2664  2672       L1     9  0.11

> <Gold.Goldscore.Internal.Vdw.Weighted>
-3.0255

> <Gold.Goldscore.Internal.Torsion.Weighted>
-0.8603

> <Gold.Goldscore.External.Vdw.Weighted>
38.7869

> <Gold.Goldscore.Internal.HBond.Weighted>
0.0000

> <Gold.Goldscore.External.HBond.Weighted>
0.2957

> <Gold.Goldscore.Internal.Correction.Weighted>
-0.7838

> <Gold.Rescore>
     Score     S(PLP)   S(hbond)     S(cho)   S(metal)  DE(clash)   DE(tors)     intcor
     34.42     -35.90       0.00       0.00       0.00       1.37       0.05       ----

> <Gold.PLP.Fitness>
34.4204

> <Gold.PLP.PLP>
-35.9022

> <Gold.PLP.part.hbond>
-1.4314

> <Gold.PLP.part.metal>
0.0000

> <Gold.PLP.part.buried>
1.6545

> <Gold.PLP.part.nonpolar>
-37.2508

> <Gold.PLP.part.repulsive>
0.5907

> <Gold.PLP.ligand.clash>
1.3721

> <Gold.PLP.ligand.torsion>
0.0549

> <Gold.PLP.Chemscore.Hbond>
0.0000

> <Gold.PLP.Chemscore.CHOScore>
0.0000

> <Gold.PLP.Chemscore.Metal>
0.0000

> <Gold.PLP.Chemscore.Internal.Correction>
   9.000000E+99

