#       Name:                CT1002167954
#       Creating user name   hitesit
#       Creation time:       Sun Apr 16 02:21:43 2023


#       File generated by GOLD software.
#

@<TRIPOS>MOLECULE
CT1002167954|ligand_prepared|mol2|1|dock9
    29    30     1
SMALL
NO_CHARGES


@<TRIPOS>ATOM
      1 C1          42.0524  30.9122  31.7832 C.3            1 RES1               0.0000
      2 C2          40.9081  31.5256  30.9507 C.ar           1 RES1               0.0000
      3 C3          42.4166  31.9497  32.8410 C.2            1 RES1               0.0000
      4 C4          41.5120  29.6055  32.3534 C.2            1 RES1               0.0000
      5 C5          43.3194  30.5858  30.9586 C.3            1 RES1               0.0000
      6 C6          39.5832  31.3784  31.3506 C.ar           1 RES1               0.0000
      7 C7          41.1613  32.2424  29.7842 C.ar           1 RES1               0.0000
      8 N8          42.0278  31.7060  34.1253 N.am           1 RES1               0.0000
      9 O9          43.0012  32.9849  32.5462 O.2            1 RES1               0.0000
     10 N10         41.3604  29.5119  33.7121 N.am           1 RES1               0.0000
     11 O11         41.2006  28.6619  31.6372 O.2            1 RES1               0.0000
     12 C12         44.3058  29.6825  31.6819 C.3            1 RES1               0.0000
     13 C13         38.5491  31.9302  30.6127 C.ar           1 RES1               0.0000
     14 C14         40.1256  32.7933  29.0477 C.ar           1 RES1               0.0000
     15 C15         41.5648  30.5138  34.6214 C.2            1 RES1               0.0000
     16 C16         38.8196  32.6383  29.4612 C.ar           1 RES1               0.0000
     17 O17         41.3543  30.3696  35.8222 O.2            1 RES1               0.0000
     18 H18         43.0163  30.1000  30.0229 H              1 RES1               0.0000
     19 H19         43.8243  31.5249  30.7006 H              1 RES1               0.0000
     20 H20         39.3509  30.8223  32.2527 H              1 RES1               0.0000
     21 H21         42.1810  32.3761  29.4393 H              1 RES1               0.0000
     22 H22         42.0867  32.4818  34.7771 H              1 RES1               0.0000
     23 H23         41.0682  28.6121  34.0798 H              1 RES1               0.0000
     24 H24         45.1760  29.4851  31.0594 H              1 RES1               0.0000
     25 H25         44.6476  30.1457  32.6051 H              1 RES1               0.0000
     26 H26         43.8444  28.7293  31.9315 H              1 RES1               0.0000
     27 H27         37.5229  31.8043  30.9416 H              1 RES1               0.0000
     28 H28         40.3431  33.3492  28.1417 H              1 RES1               0.0000
     29 H29         38.0094  33.0709  28.8835 H              1 RES1               0.0000
@<TRIPOS>BOND
    1    1    2 1     
    2    1    3 1     
    3    1    4 1     
    4    1    5 1     
    5    2    6 ar    
    6    2    7 ar    
    7    3    8 1     
    8    3    9 2     
    9    4   10 1     
   10    4   11 2     
   11    5   12 1     
   12    5   18 1     
   13    5   19 1     
   14    6   13 ar    
   15    6   20 1     
   16    7   14 ar    
   17    7   21 1     
   18    8   15 1     
   19    8   22 1     
   20   10   15 1     
   21   10   23 1     
   22   12   24 1     
   23   12   25 1     
   24   12   26 1     
   25   13   16 ar    
   26   13   27 1     
   27   14   16 ar    
   28   14   28 1     
   29   15   17 2     
   30   16   29 1     
@<TRIPOS>SUBSTRUCTURE
      1 RES1           1
@<TRIPOS>SET
DONOR_HYDROGENS      STATIC     ATOMS    <user>   **** ""
2 22 23
ATOM$RED        STATIC     ATOMS    COLORGROUP SYSTEM
2 22 23
@<TRIPOS>COMMENT
> <Gold.Version>
2022.3.0

> <Gold.Id.Protein>
unknown|2zaz_clean|pdb

> <Gold.Protein.RotatedTorsions>
[ 1651 1646 1644 1641 ] final  -13.55 input   60.01 | X-H torsion
[ 2465 2462 2458 2455 ] final -122.81 input  -12.99 | X-H torsion

> <Gold.Protein.ActiveResidues>
 TRP18   SER28   PRO29   VAL30   GLY31   GLY36   SER37   VAL38   CYS39   ALA40  
 ALA41   ARG49   VAL50   ALA51   VAL52   LYS53   LYS54   LEU55   GLU71   LEU75  
 ILE84   GLY85   LEU86   LEU87   TYR103  LEU104  VAL105  THR106  HIS107  LEU108 
 MET109  GLY110  ALA111  ASP112  ASN115  HIS148  ASN155  ALA157  LYS165  ILE166 
 LEU167  ASP168  PHE169  GLY170  LEU171 

> <Gold.Protein.RotatedAtoms>
   39.8852   35.7792   31.3194 H   0  0  0  0  0  0  0  0  0  0  0  0  # atno 1651 bound_to 1646
   46.7446   25.7145   36.7252 H   0  0  0  0  0  0  0  0  0  0  0  0  # atno 2465 bound_to 2455 2458 2462
   40.0393   34.3799   32.1350 LP  0  0  0  0  0  0  0  0  0  0  0  0  # atno 5613 bound_to 1646
   40.7729   35.7323   32.6821 LP  0  0  0  0  0  0  0  0  0  0  0  0  # atno 5614 bound_to 1646
   48.2409   25.9076   35.9391 LP  0  0  0  0  0  0  0  0  0  0  0  0  # atno 5634 bound_to 2462
   47.2062   27.1704   35.9761 LP  0  0  0  0  0  0  0  0  0  0  0  0  # atno 5635 bound_to 2462

> <Gold.Score>
     Fitness  S(hb_ext) S(vdw_ext)  S(hb_int)    S(int)      intcor
     39.87       1.55      28.15       0.00      -0.37      -0.78

> <Gold.Goldscore.Fitness>
39.8705

> <Gold.Goldscore.Internal.Vdw>
-0.4753

> <Gold.Goldscore.Internal.Torsion>
-0.6749

> <Gold.Goldscore.External.Vdw>
28.1456

> <Gold.Goldscore.Internal.HBond>
0.0000

> <Gold.Goldscore.External.HBond>
1.5453

> <Gold.Goldscore.Internal.Correction>
-0.7752

> <Gold.Goldscore.Hbonds>
donor molecule, donor type, donor heavy atom, donor atom, acceptor molecule, acceptor atom, score
      P1  H   730   735       L1    11  0.13
      P1  H  2664  2672       L1    17  0.37

> <Gold.Goldscore.Internal.Vdw.Weighted>
-0.4753

> <Gold.Goldscore.Internal.Torsion.Weighted>
-0.6749

> <Gold.Goldscore.External.Vdw.Weighted>
38.7001

> <Gold.Goldscore.Internal.HBond.Weighted>
0.0000

> <Gold.Goldscore.External.HBond.Weighted>
1.5453

> <Gold.Goldscore.Internal.Correction.Weighted>
-0.7752

> <Gold.Rescore>
     Score     S(PLP)   S(hbond)     S(cho)   S(metal)  DE(clash)   DE(tors)     intcor
     41.89     -35.93       2.00       0.00       0.00       0.00       0.02       ----

> <Gold.PLP.Fitness>
41.8859

> <Gold.PLP.PLP>
-35.9305

> <Gold.PLP.part.hbond>
-2.8076

> <Gold.PLP.part.metal>
0.0000

> <Gold.PLP.part.buried>
0.3617

> <Gold.PLP.part.nonpolar>
-33.9367

> <Gold.PLP.part.repulsive>
0.3702

> <Gold.PLP.ligand.clash>
0.0000

> <Gold.PLP.ligand.torsion>
0.0223

> <Gold.PLP.Chemscore.Hbond>
2.0000

> <Gold.PLP.Chemscore.CHOScore>
0.0000

> <Gold.PLP.Chemscore.Metal>
0.0000

> <Gold.Chemscore.Hbonds>
donor molecule, donor type, donor heavy atom, donor atom, acceptor molecule, acceptor atom, score
      P1  H   730   735       L1    11  0.94
      P1  H  2664  2672       L1    17  0.88

> <Gold.PLP.Chemscore.Internal.Correction>
   9.000000E+99

