#       Name:                CT1002167954
#       Creating user name   hitesit
#       Creation time:       Sun Apr 16 02:21:34 2023


#       File generated by GOLD software.
#

@<TRIPOS>MOLECULE
CT1002167954|ligand_prepared|mol2|1|dock2
    29    30     1
SMALL
NO_CHARGES


@<TRIPOS>ATOM
      1 C1          40.6593  30.6493  32.5507 C.3            1 RES1               0.0000
      2 C2          40.1511  31.4300  31.3214 C.ar           1 RES1               0.0000
      3 C3          41.5095  29.5038  32.0093 C.2            1 RES1               0.0000
      4 C4          41.4332  31.6502  33.4016 C.2            1 RES1               0.0000
      5 C5          39.5300  30.0533  33.4230 C.3            1 RES1               0.0000
      6 C6          41.0177  31.7601  30.2838 C.ar           1 RES1               0.0000
      7 C7          38.8203  31.8237  31.2098 C.ar           1 RES1               0.0000
      8 N8          42.8630  29.6037  32.1426 N.am           1 RES1               0.0000
      9 O9          41.0023  28.5459  31.4388 O.2            1 RES1               0.0000
     10 N10         42.7823  31.4602  33.5487 N.am           1 RES1               0.0000
     11 O11         40.8898  32.6111  33.9323 O.2            1 RES1               0.0000
     12 C12         40.0290  29.1427  34.5338 C.3            1 RES1               0.0000
     13 C13         40.5695  32.4561  29.1733 C.ar           1 RES1               0.0000
     14 C14         38.3742  32.5199  30.0986 C.ar           1 RES1               0.0000
     15 C15         43.5374  30.4997  32.9326 C.2            1 RES1               0.0000
     16 C16         39.2476  32.8360  29.0798 C.ar           1 RES1               0.0000
     17 O17         44.7550  30.4261  33.0717 O.2            1 RES1               0.0000
     18 H18         38.9582  30.8755  33.8706 H              1 RES1               0.0000
     19 H19         38.8493  29.4834  32.7784 H              1 RES1               0.0000
     20 H20         42.0620  31.4717  30.3409 H              1 RES1               0.0000
     21 H21         38.1155  31.5868  31.9997 H              1 RES1               0.0000
     22 H22         43.4259  28.9521  31.6052 H              1 RES1               0.0000
     23 H23         43.2686  32.0932  34.1756 H              1 RES1               0.0000
     24 H24         39.1967  28.7516  35.1152 H              1 RES1               0.0000
     25 H25         40.5810  28.2998  34.1230 H              1 RES1               0.0000
     26 H26         40.6892  29.6836  35.2087 H              1 RES1               0.0000
     27 H27         41.2612  32.7037  28.3749 H              1 RES1               0.0000
     28 H28         37.3331  32.8174  30.0294 H              1 RES1               0.0000
     29 H29         38.8967  33.3809  28.2096 H              1 RES1               0.0000
@<TRIPOS>BOND
    1    1    2 1     
    2    1    3 1     
    3    1    4 1     
    4    1    5 1     
    5    2    6 ar    
    6    2    7 ar    
    7    3    8 1     
    8    3    9 2     
    9    4   10 1     
   10    4   11 2     
   11    5   12 1     
   12    5   18 1     
   13    5   19 1     
   14    6   13 ar    
   15    6   20 1     
   16    7   14 ar    
   17    7   21 1     
   18    8   15 1     
   19    8   22 1     
   20   10   15 1     
   21   10   23 1     
   22   12   24 1     
   23   12   25 1     
   24   12   26 1     
   25   13   16 ar    
   26   13   27 1     
   27   14   16 ar    
   28   14   28 1     
   29   15   17 2     
   30   16   29 1     
@<TRIPOS>SUBSTRUCTURE
      1 RES1           1
@<TRIPOS>SET
DONOR_HYDROGENS      STATIC     ATOMS    <user>   **** ""
2 22 23
ATOM$RED        STATIC     ATOMS    COLORGROUP SYSTEM
2 22 23
@<TRIPOS>COMMENT
> <Gold.Version>
2022.3.0

> <Gold.Id.Protein>
unknown|2zaz_clean|pdb

> <Gold.Protein.RotatedTorsions>
[ 1651 1646 1644 1641 ] final  -61.60 input   60.01 | X-H torsion
[ 2465 2462 2458 2455 ] final   93.48 input  -12.99 | X-H torsion

> <Gold.Protein.ActiveResidues>
 TRP18   SER28   PRO29   VAL30   GLY31   GLY36   SER37   VAL38   CYS39   ALA40  
 ALA41   ARG49   VAL50   ALA51   VAL52   LYS53   LYS54   LEU55   GLU71   LEU75  
 ILE84   GLY85   LEU86   LEU87   TYR103  LEU104  VAL105  THR106  HIS107  LEU108 
 MET109  GLY110  ALA111  ASP112  ASN115  HIS148  ASN155  ALA157  LYS165  ILE166 
 LEU167  ASP168  PHE169  GLY170  LEU171 

> <Gold.Protein.RotatedAtoms>
   39.6870   35.0434   31.3266 H   0  0  0  0  0  0  0  0  0  0  0  0  # atno 1651 bound_to 1646
   48.2326   26.2791   36.9590 H   0  0  0  0  0  0  0  0  0  0  0  0  # atno 2465 bound_to 2455 2458 2462
   40.4847   34.6629   32.6926 LP  0  0  0  0  0  0  0  0  0  0  0  0  # atno 5613 bound_to 1646
   40.5272   36.1906   32.1173 LP  0  0  0  0  0  0  0  0  0  0  0  0  # atno 5614 bound_to 1646
   47.1602   27.1530   35.9688 LP  0  0  0  0  0  0  0  0  0  0  0  0  # atno 5634 bound_to 2462
   47.2542   25.5332   35.7841 LP  0  0  0  0  0  0  0  0  0  0  0  0  # atno 5635 bound_to 2462

> <Gold.Score>
     Fitness  S(hb_ext) S(vdw_ext)  S(hb_int)    S(int)      intcor
     38.49       2.02      26.57       0.00      -0.07      -0.78

> <Gold.Goldscore.Fitness>
38.4859

> <Gold.Goldscore.Internal.Vdw>
-0.4055

> <Gold.Goldscore.Internal.Torsion>
-0.4510

> <Gold.Goldscore.External.Vdw>
26.5744

> <Gold.Goldscore.Internal.HBond>
0.0000

> <Gold.Goldscore.External.HBond>
2.0188

> <Gold.Goldscore.Internal.Correction>
-0.7838

> <Gold.Goldscore.Hbonds>
donor molecule, donor type, donor heavy atom, donor atom, acceptor molecule, acceptor atom, score
      P1  H   730   735       L1     9  0.34

> <Gold.Goldscore.Internal.Vdw.Weighted>
-0.4055

> <Gold.Goldscore.Internal.Torsion.Weighted>
-0.4510

> <Gold.Goldscore.External.Vdw.Weighted>
36.5398

> <Gold.Goldscore.Internal.HBond.Weighted>
0.0000

> <Gold.Goldscore.External.HBond.Weighted>
2.0188

> <Gold.Goldscore.Internal.Correction.Weighted>
-0.7838

> <Gold.Rescore>
     Score     S(PLP)   S(hbond)     S(cho)   S(metal)  DE(clash)   DE(tors)     intcor
     40.28     -37.49       1.00       0.00       0.00       0.00       0.10       ----

> <Gold.PLP.Fitness>
40.2802

> <Gold.PLP.PLP>
-37.4854

> <Gold.PLP.part.hbond>
-2.0000

> <Gold.PLP.part.metal>
0.0000

> <Gold.PLP.part.buried>
2.0560

> <Gold.PLP.part.nonpolar>
-36.6138

> <Gold.PLP.part.repulsive>
0.9288

> <Gold.PLP.ligand.clash>
0.0000

> <Gold.PLP.ligand.torsion>
0.1026

> <Gold.PLP.Chemscore.Hbond>
1.0000

> <Gold.PLP.Chemscore.CHOScore>
0.0000

> <Gold.PLP.Chemscore.Metal>
0.0000

> <Gold.Chemscore.Hbonds>
donor molecule, donor type, donor heavy atom, donor atom, acceptor molecule, acceptor atom, score
      P1  H   730   735       L1     9  0.66

> <Gold.PLP.Chemscore.Internal.Correction>
   9.000000E+99

