#       Name:                CT1002167954
#       Creating user name   hitesit
#       Creation time:       Sun Apr 16 02:21:44 2023


#       File generated by GOLD software.
#

@<TRIPOS>MOLECULE
CT1002167954|ligand_prepared|mol2|1|dock10
    29    30     1
SMALL
NO_CHARGES


@<TRIPOS>ATOM
      1 C1          42.1136  31.5532  31.2253 C.3            1 RES1               0.0000
      2 C2          43.3306  32.4819  31.0371 C.ar           1 RES1               0.0000
      3 C3          41.9564  30.7828  29.9176 C.2            1 RES1               0.0000
      4 C4          42.4297  30.6748  32.4307 C.2            1 RES1               0.0000
      5 C5          40.7932  32.3044  31.5146 C.3            1 RES1               0.0000
      6 C6          44.2495  32.2482  30.0185 C.ar           1 RES1               0.0000
      7 C7          43.5458  33.5759  31.8711 C.ar           1 RES1               0.0000
      8 N8          42.3221  29.4690  29.9104 N.am           1 RES1               0.0000
      9 O9          41.5549  31.3299  28.8979 O.2            1 RES1               0.0000
     10 N10         42.5896  29.3301  32.2210 N.am           1 RES1               0.0000
     11 O11         42.5582  31.1373  33.5576 O.2            1 RES1               0.0000
     12 C12         39.5579  31.4202  31.4498 C.3            1 RES1               0.0000
     13 C13         45.3424  33.0797  29.8381 C.ar           1 RES1               0.0000
     14 C14         44.6395  34.4060  31.6892 C.ar           1 RES1               0.0000
     15 C15         42.5804  28.6918  31.0108 C.2            1 RES1               0.0000
     16 C16         45.5380  34.1592  30.6729 C.ar           1 RES1               0.0000
     17 O17         42.7863  27.4868  30.8975 O.2            1 RES1               0.0000
     18 H18         40.8540  32.7534  32.5137 H              1 RES1               0.0000
     19 H19         40.6833  33.1183  30.7874 H              1 RES1               0.0000
     20 H20         44.1135  31.4021  29.3532 H              1 RES1               0.0000
     21 H21         42.8526  33.7887  32.6779 H              1 RES1               0.0000
     22 H22         42.4119  29.0232  29.0029 H              1 RES1               0.0000
     23 H23         42.7281  28.7513  33.0433 H              1 RES1               0.0000
     24 H24         38.6595  31.9966  31.6604 H              1 RES1               0.0000
     25 H25         39.4522  30.9769  30.4618 H              1 RES1               0.0000
     26 H26         39.6219  30.6142  32.1778 H              1 RES1               0.0000
     27 H27         46.0473  32.8804  29.0377 H              1 RES1               0.0000
     28 H28         44.7898  35.2541  32.3490 H              1 RES1               0.0000
     29 H29         46.3940  34.8107  30.5312 H              1 RES1               0.0000
@<TRIPOS>BOND
    1    1    2 1     
    2    1    3 1     
    3    1    4 1     
    4    1    5 1     
    5    2    6 ar    
    6    2    7 ar    
    7    3    8 1     
    8    3    9 2     
    9    4   10 1     
   10    4   11 2     
   11    5   12 1     
   12    5   18 1     
   13    5   19 1     
   14    6   13 ar    
   15    6   20 1     
   16    7   14 ar    
   17    7   21 1     
   18    8   15 1     
   19    8   22 1     
   20   10   15 1     
   21   10   23 1     
   22   12   24 1     
   23   12   25 1     
   24   12   26 1     
   25   13   16 ar    
   26   13   27 1     
   27   14   16 ar    
   28   14   28 1     
   29   15   17 2     
   30   16   29 1     
@<TRIPOS>SUBSTRUCTURE
      1 RES1           1
@<TRIPOS>SET
DONOR_HYDROGENS      STATIC     ATOMS    <user>   **** ""
2 22 23
ATOM$RED        STATIC     ATOMS    COLORGROUP SYSTEM
2 22 23
@<TRIPOS>COMMENT
> <Gold.Version>
2022.3.0

> <Gold.Id.Protein>
unknown|2zaz_clean|pdb

> <Gold.Protein.RotatedTorsions>
[ 1651 1646 1644 1641 ] final   11.84 input   60.01 | X-H torsion
[ 2465 2462 2458 2455 ] final   22.75 input  -12.99 | X-H torsion

> <Gold.Protein.ActiveResidues>
 TRP18   SER28   PRO29   VAL30   GLY31   GLY36   SER37   VAL38   CYS39   ALA40  
 ALA41   ARG49   VAL50   ALA51   VAL52   LYS53   LYS54   LEU55   GLU71   LEU75  
 ILE84   GLY85   LEU86   LEU87   TYR103  LEU104  VAL105  THR106  HIS107  LEU108 
 MET109  GLY110  ALA111  ASP112  ASN115  HIS148  ASN155  ALA157  LYS165  ILE166 
 LEU167  ASP168  PHE169  GLY170  LEU171 

> <Gold.Protein.RotatedAtoms>
   40.0988   36.0651   31.5238 H   0  0  0  0  0  0  0  0  0  0  0  0  # atno 1651 bound_to 1646
   47.6240   27.0464   36.9837 H   0  0  0  0  0  0  0  0  0  0  0  0  # atno 2465 bound_to 2455 2458 2462
   39.8380   34.4809   31.7873 LP  0  0  0  0  0  0  0  0  0  0  0  0  # atno 5613 bound_to 1646
   40.7590   35.3432   32.8239 LP  0  0  0  0  0  0  0  0  0  0  0  0  # atno 5614 bound_to 1646
   46.6381   26.3099   35.8091 LP  0  0  0  0  0  0  0  0  0  0  0  0  # atno 5634 bound_to 2462
   48.1987   25.8437   35.9267 LP  0  0  0  0  0  0  0  0  0  0  0  0  # atno 5635 bound_to 2462

> <Gold.Score>
     Fitness  S(hb_ext) S(vdw_ext)  S(hb_int)    S(int)      intcor
     30.53       5.02      19.56       0.00      -1.39      -0.78

> <Gold.Goldscore.Fitness>
30.5348

> <Gold.Goldscore.Internal.Vdw>
-1.6181

> <Gold.Goldscore.Internal.Torsion>
-0.5445

> <Gold.Goldscore.External.Vdw>
19.5642

> <Gold.Goldscore.Internal.HBond>
0.0000

> <Gold.Goldscore.External.HBond>
5.0215

> <Gold.Goldscore.Internal.Correction>
-0.7752

> <Gold.Goldscore.Hbonds>
donor molecule, donor type, donor heavy atom, donor atom, acceptor molecule, acceptor atom, score
      P1  H   730   735       L1    17  0.04
      L1  H    10    23       P1  2670  0.80

> <Gold.Goldscore.Internal.Vdw.Weighted>
-1.6181

> <Gold.Goldscore.Internal.Torsion.Weighted>
-0.5445

> <Gold.Goldscore.External.Vdw.Weighted>
26.9007

> <Gold.Goldscore.Internal.HBond.Weighted>
0.0000

> <Gold.Goldscore.External.HBond.Weighted>
5.0215

> <Gold.Goldscore.Internal.Correction.Weighted>
-0.7752

> <Gold.Rescore>
     Score     S(PLP)   S(hbond)     S(cho)   S(metal)  DE(clash)   DE(tors)     intcor
     27.90     -27.26       0.99       0.00       0.00       1.25       0.55       ----

> <Gold.PLP.Fitness>
27.8997

> <Gold.PLP.PLP>
-27.2648

> <Gold.PLP.part.hbond>
-0.8477

> <Gold.PLP.part.metal>
0.0000

> <Gold.PLP.part.buried>
-2.9129

> <Gold.PLP.part.nonpolar>
-23.6242

> <Gold.PLP.part.repulsive>
0.2865

> <Gold.PLP.ligand.clash>
1.2450

> <Gold.PLP.ligand.torsion>
0.5469

> <Gold.PLP.Chemscore.Hbond>
0.9913

> <Gold.PLP.Chemscore.CHOScore>
0.0000

> <Gold.PLP.Chemscore.Metal>
0.0000

> <Gold.Chemscore.Hbonds>
donor molecule, donor type, donor heavy atom, donor atom, acceptor molecule, acceptor atom, score
      L1  H    10    23       P1  2670  1.00

> <Gold.PLP.Chemscore.Internal.Correction>
   9.000000E+99

