#       Name:                CT1002167954
#       Creating user name   hitesit
#       Creation time:       Sun Apr 16 02:21:37 2023


#       File generated by GOLD software.
#

@<TRIPOS>MOLECULE
CT1002167954|ligand_prepared|mol2|1|dock5
    29    30     1
SMALL
NO_CHARGES


@<TRIPOS>ATOM
      1 C1          42.1192  30.3927  31.9551 C.3            1 RES1               0.0000
      2 C2          40.8597  31.0360  31.3399 C.ar           1 RES1               0.0000
      3 C3          42.2895  29.0412  31.2677 C.2            1 RES1               0.0000
      4 C4          43.2634  31.3681  31.7018 C.2            1 RES1               0.0000
      5 C5          42.0198  30.1588  33.4806 C.3            1 RES1               0.0000
      6 C6          40.9721  32.0268  30.3692 C.ar           1 RES1               0.0000
      7 C7          39.5808  30.6477  31.7303 C.ar           1 RES1               0.0000
      8 N8          43.2908  28.9210  30.3496 N.am           1 RES1               0.0000
      9 O9          41.5318  28.1069  31.4985 O.2            1 RES1               0.0000
     10 N10         44.2737  30.9696  30.8662 N.am           1 RES1               0.0000
     11 O11         43.2909  32.4844  32.2050 O.2            1 RES1               0.0000
     12 C12         41.4300  31.3342  34.2439 C.3            1 RES1               0.0000
     13 C13         39.8469  32.6065  29.8069 C.ar           1 RES1               0.0000
     14 C14         38.4568  31.2289  31.1669 C.ar           1 RES1               0.0000
     15 C15         44.3239  29.8020  30.1544 C.2            1 RES1               0.0000
     16 C16         38.5887  32.2078  30.2049 C.ar           1 RES1               0.0000
     17 O17         45.2398  29.5385  29.3806 O.2            1 RES1               0.0000
     18 H18         41.3992  29.2727  33.6622 H              1 RES1               0.0000
     19 H19         43.0233  29.9514  33.8722 H              1 RES1               0.0000
     20 H20         41.9540  32.3553  30.0451 H              1 RES1               0.0000
     21 H21         39.4530  29.8803  32.4861 H              1 RES1               0.0000
     22 H22         43.2694  28.1001  29.7529 H              1 RES1               0.0000
     23 H23         45.0615  31.6018  30.7655 H              1 RES1               0.0000
     24 H24         41.3828  31.1177  35.3091 H              1 RES1               0.0000
     25 H25         42.0364  32.2270  34.1061 H              1 RES1               0.0000
     26 H26         40.4219  31.5524  33.8974 H              1 RES1               0.0000
     27 H27         39.9560  33.3774  29.0512 H              1 RES1               0.0000
     28 H28         37.4686  30.9124  31.4836 H              1 RES1               0.0000
     29 H29         37.7074  32.6618  29.7640 H              1 RES1               0.0000
@<TRIPOS>BOND
    1    1    2 1     
    2    1    3 1     
    3    1    4 1     
    4    1    5 1     
    5    2    6 ar    
    6    2    7 ar    
    7    3    8 1     
    8    3    9 2     
    9    4   10 1     
   10    4   11 2     
   11    5   12 1     
   12    5   18 1     
   13    5   19 1     
   14    6   13 ar    
   15    6   20 1     
   16    7   14 ar    
   17    7   21 1     
   18    8   15 1     
   19    8   22 1     
   20   10   15 1     
   21   10   23 1     
   22   12   24 1     
   23   12   25 1     
   24   12   26 1     
   25   13   16 ar    
   26   13   27 1     
   27   14   16 ar    
   28   14   28 1     
   29   15   17 2     
   30   16   29 1     
@<TRIPOS>SUBSTRUCTURE
      1 RES1           1
@<TRIPOS>SET
DONOR_HYDROGENS      STATIC     ATOMS    <user>   **** ""
2 22 23
ATOM$RED        STATIC     ATOMS    COLORGROUP SYSTEM
2 22 23
@<TRIPOS>COMMENT
> <Gold.Version>
2022.3.0

> <Gold.Id.Protein>
unknown|2zaz_clean|pdb

> <Gold.Protein.RotatedTorsions>
[ 1651 1646 1644 1641 ] final   14.04 input   60.01 | X-H torsion
[ 2465 2462 2458 2455 ] final  -96.16 input  -12.99 | X-H torsion

> <Gold.Protein.ActiveResidues>
 TRP18   SER28   PRO29   VAL30   GLY31   GLY36   SER37   VAL38   CYS39   ALA40  
 ALA41   ARG49   VAL50   ALA51   VAL52   LYS53   LYS54   LEU55   GLU71   LEU75  
 ILE84   GLY85   LEU86   LEU87   TYR103  LEU104  VAL105  THR106  HIS107  LEU108 
 MET109  GLY110  ALA111  ASP112  ASN115  HIS148  ASN155  ALA157  LYS165  ILE166 
 LEU167  ASP168  PHE169  GLY170  LEU171 

> <Gold.Protein.RotatedAtoms>
   40.1192   36.0835   31.5470 H   0  0  0  0  0  0  0  0  0  0  0  0  # atno 1651 bound_to 1646
   46.5730   26.0640   36.7482 H   0  0  0  0  0  0  0  0  0  0  0  0  # atno 2465 bound_to 2455 2458 2462
   39.8236   34.4976   31.7585 LP  0  0  0  0  0  0  0  0  0  0  0  0  # atno 5613 bound_to 1646
   40.7528   35.3080   32.8293 LP  0  0  0  0  0  0  0  0  0  0  0  0  # atno 5614 bound_to 1646
   47.9651   25.6254   35.8744 LP  0  0  0  0  0  0  0  0  0  0  0  0  # atno 5634 bound_to 2462
   47.6011   27.2101   36.0248 LP  0  0  0  0  0  0  0  0  0  0  0  0  # atno 5635 bound_to 2462

> <Gold.Score>
     Fitness  S(hb_ext) S(vdw_ext)  S(hb_int)    S(int)      intcor
     33.86       2.55      25.16       0.00      -3.29      -0.78

> <Gold.Goldscore.Fitness>
33.8595

> <Gold.Goldscore.Internal.Vdw>
-3.3230

> <Gold.Goldscore.Internal.Torsion>
-0.7505

> <Gold.Goldscore.External.Vdw>
25.1647

> <Gold.Goldscore.Internal.HBond>
0.0000

> <Gold.Goldscore.External.HBond>
2.5477

> <Gold.Goldscore.Internal.Correction>
-0.7838

> <Gold.Goldscore.Hbonds>
donor molecule, donor type, donor heavy atom, donor atom, acceptor molecule, acceptor atom, score
      P1  H   730   735       L1     9  0.42

> <Gold.Goldscore.Internal.Vdw.Weighted>
-3.3230

> <Gold.Goldscore.Internal.Torsion.Weighted>
-0.7505

> <Gold.Goldscore.External.Vdw.Weighted>
34.6014

> <Gold.Goldscore.Internal.HBond.Weighted>
0.0000

> <Gold.Goldscore.External.HBond.Weighted>
2.5477

> <Gold.Goldscore.Internal.Correction.Weighted>
-0.7838

> <Gold.Rescore>
     Score     S(PLP)   S(hbond)     S(cho)   S(metal)  DE(clash)   DE(tors)     intcor
     39.50     -39.00       1.00       0.00       0.00       0.08       1.21       ----

> <Gold.PLP.Fitness>
39.5017

> <Gold.PLP.PLP>
-38.9986

> <Gold.PLP.part.hbond>
-1.0000

> <Gold.PLP.part.metal>
0.0000

> <Gold.PLP.part.buried>
-3.5779

> <Gold.PLP.part.nonpolar>
-34.6321

> <Gold.PLP.part.repulsive>
0.2691

> <Gold.PLP.ligand.clash>
0.0833

> <Gold.PLP.ligand.torsion>
1.2068

> <Gold.PLP.Chemscore.Hbond>
1.0000

> <Gold.PLP.Chemscore.CHOScore>
0.0000

> <Gold.PLP.Chemscore.Metal>
0.0000

> <Gold.Chemscore.Hbonds>
donor molecule, donor type, donor heavy atom, donor atom, acceptor molecule, acceptor atom, score
      P1  H   730   735       L1     9  0.96

> <Gold.PLP.Chemscore.Internal.Correction>
   9.000000E+99

