#       Name:                CT1002167954
#       Creating user name   hitesit
#       Creation time:       Sun Apr 16 02:21:42 2023


#       File generated by GOLD software.
#

@<TRIPOS>MOLECULE
CT1002167954|ligand_prepared|mol2|1|dock8
    29    30     1
SMALL
NO_CHARGES


@<TRIPOS>ATOM
      1 C1          41.5139  31.7080  31.3920 C.3            1 RES1               0.0000
      2 C2          42.7603  32.6155  31.4319 C.ar           1 RES1               0.0000
      3 C3          41.7122  30.7593  30.2135 C.2            1 RES1               0.0000
      4 C4          41.4494  31.0119  32.7470 C.2            1 RES1               0.0000
      5 C5          40.1878  32.4766  31.1862 C.3            1 RES1               0.0000
      6 C6          44.0384  32.0652  31.4117 C.ar           1 RES1               0.0000
      7 C7          42.6483  34.0022  31.4863 C.ar           1 RES1               0.0000
      8 N8          42.0269  29.4620  30.4927 N.am           1 RES1               0.0000
      9 O9          41.6325  31.1525  29.0562 O.2            1 RES1               0.0000
     10 N10         41.6235  29.6531  32.7797 N.am           1 RES1               0.0000
     11 O11         41.2661  31.6300  33.7885 O.2            1 RES1               0.0000
     12 C12         38.9784  31.5738  31.0005 C.3            1 RES1               0.0000
     13 C13         45.1638  32.8721  31.4417 C.ar           1 RES1               0.0000
     14 C14         43.7750  34.8073  31.5165 C.ar           1 RES1               0.0000
     15 C15         41.9399  28.8507  31.7176 C.2            1 RES1               0.0000
     16 C16         45.0329  34.2435  31.4936 C.ar           1 RES1               0.0000
     17 O17         42.1347  27.6443  31.8355 O.2            1 RES1               0.0000
     18 H18         40.0157  33.1230  32.0556 H              1 RES1               0.0000
     19 H19         40.2863  33.1207  30.3037 H              1 RES1               0.0000
     20 H20         44.1612  30.9879  31.3734 H              1 RES1               0.0000
     21 H21         41.6687  34.4678  31.5062 H              1 RES1               0.0000
     22 H22         42.3577  28.8940  29.7192 H              1 RES1               0.0000
     23 H23         41.5063  29.1976  33.6792 H              1 RES1               0.0000
     24 H24         38.0749  32.1634  30.8602 H              1 RES1               0.0000
     25 H25         39.1045  30.9343  30.1293 H              1 RES1               0.0000
     26 H26         38.8355  30.9366  31.8709 H              1 RES1               0.0000
     27 H27         46.1515  32.4233  31.4249 H              1 RES1               0.0000
     28 H28         43.6672  35.8861  31.5580 H              1 RES1               0.0000
     29 H29         45.9146  34.8753  31.5167 H              1 RES1               0.0000
@<TRIPOS>BOND
    1    1    2 1     
    2    1    3 1     
    3    1    4 1     
    4    1    5 1     
    5    2    6 ar    
    6    2    7 ar    
    7    3    8 1     
    8    3    9 2     
    9    4   10 1     
   10    4   11 2     
   11    5   12 1     
   12    5   18 1     
   13    5   19 1     
   14    6   13 ar    
   15    6   20 1     
   16    7   14 ar    
   17    7   21 1     
   18    8   15 1     
   19    8   22 1     
   20   10   15 1     
   21   10   23 1     
   22   12   24 1     
   23   12   25 1     
   24   12   26 1     
   25   13   16 ar    
   26   13   27 1     
   27   14   16 ar    
   28   14   28 1     
   29   15   17 2     
   30   16   29 1     
@<TRIPOS>SUBSTRUCTURE
      1 RES1           1
@<TRIPOS>SET
DONOR_HYDROGENS      STATIC     ATOMS    <user>   **** ""
2 22 23
ATOM$RED        STATIC     ATOMS    COLORGROUP SYSTEM
2 22 23
@<TRIPOS>COMMENT
> <Gold.Version>
2022.3.0

> <Gold.Id.Protein>
unknown|2zaz_clean|pdb

> <Gold.Protein.RotatedTorsions>
[ 1651 1646 1644 1641 ] final  -10.50 input   60.01 | X-H torsion
[ 2465 2462 2458 2455 ] final    8.26 input  -12.99 | X-H torsion

> <Gold.Protein.ActiveResidues>
 TRP18   SER28   PRO29   VAL30   GLY31   GLY36   SER37   VAL38   CYS39   ALA40  
 ALA41   ARG49   VAL50   ALA51   VAL52   LYS53   LYS54   LEU55   GLU71   LEU75  
 ILE84   GLY85   LEU86   LEU87   TYR103  LEU104  VAL105  THR106  HIS107  LEU108 
 MET109  GLY110  ALA111  ASP112  ASN115  HIS148  ASN155  ALA157  LYS165  ILE166 
 LEU167  ASP168  PHE169  GLY170  LEU171 

> <Gold.Protein.RotatedAtoms>
   39.9081   35.8197   31.3371 H   0  0  0  0  0  0  0  0  0  0  0  0  # atno 1651 bound_to 1646
   47.4143   27.0813   36.9646 H   0  0  0  0  0  0  0  0  0  0  0  0  # atno 2465 bound_to 2455 2458 2462
   40.0123   34.3827   32.0929 LP  0  0  0  0  0  0  0  0  0  0  0  0  # atno 5613 bound_to 1646
   40.7769   35.6886   32.7064 LP  0  0  0  0  0  0  0  0  0  0  0  0  # atno 5614 bound_to 1646
   46.6799   26.0962   35.7880 LP  0  0  0  0  0  0  0  0  0  0  0  0  # atno 5634 bound_to 2462
   48.3025   26.0333   35.9611 LP  0  0  0  0  0  0  0  0  0  0  0  0  # atno 5635 bound_to 2462

> <Gold.Score>
     Fitness  S(hb_ext) S(vdw_ext)  S(hb_int)    S(int)      intcor
     30.22       0.31      21.80       0.00      -0.07      -0.78

> <Gold.Goldscore.Fitness>
30.2202

> <Gold.Goldscore.Internal.Vdw>
-0.4153

> <Gold.Goldscore.Internal.Torsion>
-0.4287

> <Gold.Goldscore.External.Vdw>
21.7992

> <Gold.Goldscore.Internal.HBond>
0.0000

> <Gold.Goldscore.External.HBond>
0.3149

> <Gold.Goldscore.Internal.Correction>
-0.7752

> <Gold.Goldscore.Hbonds>
donor molecule, donor type, donor heavy atom, donor atom, acceptor molecule, acceptor atom, score
      P1  H   730   735       L1    17  0.05

> <Gold.Goldscore.Internal.Vdw.Weighted>
-0.4153

> <Gold.Goldscore.Internal.Torsion.Weighted>
-0.4287

> <Gold.Goldscore.External.Vdw.Weighted>
29.9739

> <Gold.Goldscore.Internal.HBond.Weighted>
0.0000

> <Gold.Goldscore.External.HBond.Weighted>
0.3149

> <Gold.Goldscore.Internal.Correction.Weighted>
-0.7752

> <Gold.Rescore>
     Score     S(PLP)   S(hbond)     S(cho)   S(metal)  DE(clash)   DE(tors)     intcor
     29.09     -26.36       1.00       0.00       0.00       0.00       0.14       ----

> <Gold.PLP.Fitness>
29.0916

> <Gold.PLP.PLP>
-26.3648

> <Gold.PLP.part.hbond>
-0.9727

> <Gold.PLP.part.metal>
0.0000

> <Gold.PLP.part.buried>
-3.2091

> <Gold.PLP.part.nonpolar>
-23.3156

> <Gold.PLP.part.repulsive>
0.7854

> <Gold.PLP.ligand.clash>
0.0000

> <Gold.PLP.ligand.torsion>
0.1373

> <Gold.PLP.Chemscore.Hbond>
1.0005

> <Gold.PLP.Chemscore.CHOScore>
0.0000

> <Gold.PLP.Chemscore.Metal>
0.0000

> <Gold.Chemscore.Hbonds>
donor molecule, donor type, donor heavy atom, donor atom, acceptor molecule, acceptor atom, score
      L1  H    10    23       P1  2670  0.09
      P1  H   730   735       L1    17  0.50

> <Gold.PLP.Chemscore.Internal.Correction>
   9.000000E+99

