#       Name:                CT1002167954
#       Creating user name   hitesit
#       Creation time:       Sun Apr 16 02:21:35 2023


#       File generated by GOLD software.
#

@<TRIPOS>MOLECULE
CT1002167954|ligand_prepared|mol2|1|dock3
    29    30     1
SMALL
NO_CHARGES


@<TRIPOS>ATOM
      1 C1          40.3978  30.2608  32.5254 C.3            1 RES1               0.0000
      2 C2          40.0895  31.1134  31.2777 C.ar           1 RES1               0.0000
      3 C3          41.5128  29.3000  32.1230 C.2            1 RES1               0.0000
      4 C4          40.7883  31.2410  33.6260 C.2            1 RES1               0.0000
      5 C5          39.1933  29.4320  33.0290 C.3            1 RES1               0.0000
      6 C6          38.8098  31.6155  31.0610 C.ar           1 RES1               0.0000
      7 C7          41.0733  31.4080  30.3375 C.ar           1 RES1               0.0000
      8 N8          42.7648  29.5483  32.6034 N.am           1 RES1               0.0000
      9 O9          41.3047  28.3617  31.3638 O.2            1 RES1               0.0000
     10 N10         42.0756  31.2013  34.0942 N.am           1 RES1               0.0000
     11 O11         39.9975  32.0586  34.0804 O.2            1 RES1               0.0000
     12 C12         39.5430  28.4550  34.1404 C.3            1 RES1               0.0000
     13 C13         38.5245  32.3866  29.9464 C.ar           1 RES1               0.0000
     14 C14         40.7858  32.1792  29.2234 C.ar           1 RES1               0.0000
     15 C15         43.0899  30.4202  33.6113 C.2            1 RES1               0.0000
     16 C16         39.5122  32.6693  29.0272 C.ar           1 RES1               0.0000
     17 O17         44.2357  30.4801  34.0481 O.2            1 RES1               0.0000
     18 H18         38.4196  30.1190  33.3934 H              1 RES1               0.0000
     19 H19         38.7731  28.8710  32.1851 H              1 RES1               0.0000
     20 H20         38.0190  31.4013  31.7723 H              1 RES1               0.0000
     21 H21         42.0821  31.0321  30.4707 H              1 RES1               0.0000
     22 H22         43.5301  29.0387  32.1734 H              1 RES1               0.0000
     23 H23         42.2982  31.8104  34.8750 H              1 RES1               0.0000
     24 H24         38.6627  27.8993  34.4567 H              1 RES1               0.0000
     25 H25         40.2920  27.7407  33.8046 H              1 RES1               0.0000
     26 H26         39.9406  28.9813  35.0057 H              1 RES1               0.0000
     27 H27         37.5203  32.7688  29.7959 H              1 RES1               0.0000
     28 H28         41.5662  32.3987  28.5022 H              1 RES1               0.0000
     29 H29         39.2886  33.2737  28.1543 H              1 RES1               0.0000
@<TRIPOS>BOND
    1    1    2 1     
    2    1    3 1     
    3    1    4 1     
    4    1    5 1     
    5    2    6 ar    
    6    2    7 ar    
    7    3    8 1     
    8    3    9 2     
    9    4   10 1     
   10    4   11 2     
   11    5   12 1     
   12    5   18 1     
   13    5   19 1     
   14    6   13 ar    
   15    6   20 1     
   16    7   14 ar    
   17    7   21 1     
   18    8   15 1     
   19    8   22 1     
   20   10   15 1     
   21   10   23 1     
   22   12   24 1     
   23   12   25 1     
   24   12   26 1     
   25   13   16 ar    
   26   13   27 1     
   27   14   16 ar    
   28   14   28 1     
   29   15   17 2     
   30   16   29 1     
@<TRIPOS>SUBSTRUCTURE
      1 RES1           1
@<TRIPOS>SET
DONOR_HYDROGENS      STATIC     ATOMS    <user>   **** ""
2 22 23
ATOM$RED        STATIC     ATOMS    COLORGROUP SYSTEM
2 22 23
@<TRIPOS>COMMENT
> <Gold.Version>
2022.3.0

> <Gold.Id.Protein>
unknown|2zaz_clean|pdb

> <Gold.Protein.RotatedTorsions>
[ 1651 1646 1644 1641 ] final -138.31 input   60.01 | X-H torsion
[ 2465 2462 2458 2455 ] final -141.92 input  -12.99 | X-H torsion

> <Gold.Protein.ActiveResidues>
 TRP18   SER28   PRO29   VAL30   GLY31   GLY36   SER37   VAL38   CYS39   ALA40  
 ALA41   ARG49   VAL50   ALA51   VAL52   LYS53   LYS54   LEU55   GLU71   LEU75  
 ILE84   GLY85   LEU86   LEU87   TYR103  LEU104  VAL105  THR106  HIS107  LEU108 
 MET109  GLY110  ALA111  ASP112  ASN115  HIS148  ASN155  ALA157  LYS165  ILE166 
 LEU167  ASP168  PHE169  GLY170  LEU171 

> <Gold.Protein.RotatedAtoms>
   40.0818   34.3880   32.2003 H   0  0  0  0  0  0  0  0  0  0  0  0  # atno 1651 bound_to 1646
   46.9560   25.5292   36.7264 H   0  0  0  0  0  0  0  0  0  0  0  0  # atno 2465 bound_to 2455 2458 2462
   40.7636   35.7981   32.6405 LP  0  0  0  0  0  0  0  0  0  0  0  0  # atno 5613 bound_to 1646
   39.8505   35.7159   31.2891 LP  0  0  0  0  0  0  0  0  0  0  0  0  # atno 5614 bound_to 1646
   48.3438   26.1733   35.9826 LP  0  0  0  0  0  0  0  0  0  0  0  0  # atno 5634 bound_to 2462
   46.9566   27.0334   35.9318 LP  0  0  0  0  0  0  0  0  0  0  0  0  # atno 5635 bound_to 2462

> <Gold.Score>
     Fitness  S(hb_ext) S(vdw_ext)  S(hb_int)    S(int)      intcor
     42.73       3.44      29.33       0.00      -1.04      -0.78

> <Gold.Goldscore.Fitness>
42.7260

> <Gold.Goldscore.Internal.Vdw>
-1.3551

> <Gold.Goldscore.Internal.Torsion>
-0.4660

> <Gold.Goldscore.External.Vdw>
29.3256

> <Gold.Goldscore.Internal.HBond>
0.0000

> <Gold.Goldscore.External.HBond>
3.4405

> <Gold.Goldscore.Internal.Correction>
-0.7838

> <Gold.Goldscore.Hbonds>
donor molecule, donor type, donor heavy atom, donor atom, acceptor molecule, acceptor atom, score
      P1  H   730   735       L1     9  0.57

> <Gold.Goldscore.Internal.Vdw.Weighted>
-1.3551

> <Gold.Goldscore.Internal.Torsion.Weighted>
-0.4660

> <Gold.Goldscore.External.Vdw.Weighted>
40.3227

> <Gold.Goldscore.Internal.HBond.Weighted>
0.0000

> <Gold.Goldscore.External.HBond.Weighted>
3.4405

> <Gold.Goldscore.Internal.Correction.Weighted>
-0.7838

> <Gold.Rescore>
     Score     S(PLP)   S(hbond)     S(cho)   S(metal)  DE(clash)   DE(tors)     intcor
     32.74     -30.69       1.00       0.00       0.00       0.00       0.48       ----

> <Gold.PLP.Fitness>
32.7353

> <Gold.PLP.PLP>
-30.6877

> <Gold.PLP.part.hbond>
-2.6535

> <Gold.PLP.part.metal>
0.0000

> <Gold.PLP.part.buried>
9.6610

> <Gold.PLP.part.nonpolar>
-39.1325

> <Gold.PLP.part.repulsive>
0.5138

> <Gold.PLP.ligand.clash>
0.0000

> <Gold.PLP.ligand.torsion>
0.4762

> <Gold.PLP.Chemscore.Hbond>
1.0000

> <Gold.PLP.Chemscore.CHOScore>
0.0000

> <Gold.PLP.Chemscore.Metal>
0.0000

> <Gold.Chemscore.Hbonds>
donor molecule, donor type, donor heavy atom, donor atom, acceptor molecule, acceptor atom, score
      P1  H   730   735       L1     9  0.86

> <Gold.PLP.Chemscore.Internal.Correction>
   9.000000E+99

