#       Name:                CT1002167954
#       Creating user name   hitesit
#       Creation time:       Sun Apr 16 02:21:21 2023


#       File generated by GOLD software.
#

@<TRIPOS>MOLECULE
CT1002167954|ligand_prepared|mol2|1|dock3
    29    30     1
SMALL
NO_CHARGES


@<TRIPOS>ATOM
      1 C1         -28.6961   9.0297  11.4265 C.3            1 RES1               0.0000
      2 C2         -30.1684   9.2534  11.0253 C.ar           1 RES1               0.0000
      3 C3         -28.5698   9.5006  12.8725 C.2            1 RES1               0.0000
      4 C4         -28.4216   7.5429  11.2302 C.2            1 RES1               0.0000
      5 C5         -27.6860   9.8202  10.5626 C.3            1 RES1               0.0000
      6 C6         -30.5066   9.5518   9.7087 C.ar           1 RES1               0.0000
      7 C7         -31.1979   9.1623  11.9583 C.ar           1 RES1               0.0000
      8 N8         -28.4529   8.5463  13.8397 N.am           1 RES1               0.0000
      9 O9         -28.6120  10.6896  13.1633 O.2            1 RES1               0.0000
     10 N10        -28.1498   6.7879  12.3410 N.am           1 RES1               0.0000
     11 O11        -28.4546   7.0150  10.1254 O.2            1 RES1               0.0000
     12 C12        -26.2585   9.7648  11.0833 C.3            1 RES1               0.0000
     13 C13        -31.8263   9.7490   9.3376 C.ar           1 RES1               0.0000
     14 C14        -32.5170   9.3601  11.5851 C.ar           1 RES1               0.0000
     15 C15        -28.1833   7.2162  13.6401 C.2            1 RES1               0.0000
     16 C16        -32.8324   9.6528  10.2753 C.ar           1 RES1               0.0000
     17 O17        -27.9807   6.4644  14.5893 O.2            1 RES1               0.0000
     18 H18        -27.7052   9.4196   9.5415 H              1 RES1               0.0000
     19 H19        -28.0048  10.8689  10.5173 H              1 RES1               0.0000
     20 H20        -29.7282   9.6340   8.9574 H              1 RES1               0.0000
     21 H21        -30.9732   8.9341  12.9946 H              1 RES1               0.0000
     22 H22        -28.5776   8.8497  14.8003 H              1 RES1               0.0000
     23 H23        -27.8991   5.8168  12.1850 H              1 RES1               0.0000
     24 H24        -25.5911  10.3353  10.4409 H              1 RES1               0.0000
     25 H25        -26.1979  10.1787  12.0877 H              1 RES1               0.0000
     26 H26        -25.9001   8.7380  11.1177 H              1 RES1               0.0000
     27 H27        -32.0691   9.9805   8.3058 H              1 RES1               0.0000
     28 H28        -33.3055   9.2840  12.3265 H              1 RES1               0.0000
     29 H29        -33.8662   9.8070   9.9842 H              1 RES1               0.0000
@<TRIPOS>BOND
    1    1    2 1     
    2    1    3 1     
    3    1    4 1     
    4    1    5 1     
    5    2    6 ar    
    6    2    7 ar    
    7    3    8 1     
    8    3    9 2     
    9    4   10 1     
   10    4   11 2     
   11    5   12 1     
   12    5   18 1     
   13    5   19 1     
   14    6   13 ar    
   15    6   20 1     
   16    7   14 ar    
   17    7   21 1     
   18    8   15 1     
   19    8   22 1     
   20   10   15 1     
   21   10   23 1     
   22   12   24 1     
   23   12   25 1     
   24   12   26 1     
   25   13   16 ar    
   26   13   27 1     
   27   14   16 ar    
   28   14   28 1     
   29   15   17 2     
   30   16   29 1     
@<TRIPOS>SUBSTRUCTURE
      1 RES1           1
@<TRIPOS>SET
DONOR_HYDROGENS      STATIC     ATOMS    <user>   **** ""
2 22 23
ATOM$RED        STATIC     ATOMS    COLORGROUP SYSTEM
2 22 23
@<TRIPOS>COMMENT
> <Gold.Version>
2022.3.0

> <Gold.Id.Protein>
unknown|3ama_clean|pdb

> <Gold.Protein.RotatedTorsions>
[ 2011 2002 2001 1999 ] final  128.30 input   60.00 | X-H torsion
[ 2112 2107 2106 2103 ] final    5.79 input   60.00 | X-H torsion
[ 5355 5346 5345 5343 ] final -155.95 input   60.01 | X-H torsion
[  804  797  795  792 ] final  132.16 input   59.99 | X-H torsion
[ 2696 2687 2686 2684 ] final   48.47 input   59.97 | X-H torsion
[ 5271 5265 5266 5267 ] final  -14.19 input   60.00 | X-H torsion

> <Gold.Protein.ActiveResidues>
 ARG47   THR48   LEU49   GLY50   THR51   GLY52   ARG56   VAL57   MET58   LEU59  
 TYR69   ALA70   MET71   LYS72   GLN95   VAL104  LYS105  MET118  VAL119  LEU120 
 GLU121  TYR122  ALA123  PRO124  GLY125  GLY126  GLU127  MET128  PHE129  SER130 
 HIS131  TYR164  LYS168  PRO169  GLU170  ASN171  LEU172  LEU173  ILE174  ASP175 
 LYS181  VAL182  ALA183  ASP184  SER325  ASN326  PHE327  ASP328  ASP329  TYR330 

> <Gold.Protein.RotatedAtoms>
  -18.7248   14.1107    6.4390 H   0  0  0  0  0  0  0  0  0  0  0  0  # atno 804  bound_to 797 
  -35.7672   12.1129   10.9173 H   0  0  0  0  0  0  0  0  0  0  0  0  # atno 2011 bound_to 2002
  -25.1219    4.6688   11.4224 H   0  0  0  0  0  0  0  0  0  0  0  0  # atno 2112 bound_to 2107
  -27.0302    2.9912   -2.8806 H   0  0  0  0  0  0  0  0  0  0  0  0  # atno 2696 bound_to 2687
  -32.5588   13.8067   18.5891 H   0  0  0  0  0  0  0  0  0  0  0  0  # atno 5271 bound_to 5265
  -34.1814   13.8699   18.9209 H   0  0  0  0  0  0  0  0  0  0  0  0  # atno 5272 bound_to 5265
  -23.4503   12.0253   10.1626 H   0  0  0  0  0  0  0  0  0  0  0  0  # atno 5355 bound_to 5346
  -34.2405   11.8378   10.4266 LP  0  0  0  0  0  0  0  0  0  0  0  0  # atno 5697 bound_to 2002
  -35.2705   10.5886   10.6397 LP  0  0  0  0  0  0  0  0  0  0  0  0  # atno 5698 bound_to 2002
  -25.6285    5.6937   12.5802 LP  0  0  0  0  0  0  0  0  0  0  0  0  # atno 5727 bound_to 2107
  -26.5935    5.3534   11.3076 LP  0  0  0  0  0  0  0  0  0  0  0  0  # atno 5728 bound_to 2107
  -22.0535   11.9310   10.9917 LP  0  0  0  0  0  0  0  0  0  0  0  0  # atno 5742 bound_to 5346
  -22.0579   12.4784    9.4532 LP  0  0  0  0  0  0  0  0  0  0  0  0  # atno 5743 bound_to 5346
  -20.0127   13.1183    6.3867 LP  0  0  0  0  0  0  0  0  0  0  0  0  # atno 5778 bound_to 797 
  -19.8654   14.2069    7.5950 LP  0  0  0  0  0  0  0  0  0  0  0  0  # atno 5779 bound_to 797 
  -25.4775    3.4038   -3.1376 LP  0  0  0  0  0  0  0  0  0  0  0  0  # atno 5782 bound_to 2687
  -25.8378    2.0745   -2.2602 LP  0  0  0  0  0  0  0  0  0  0  0  0  # atno 5783 bound_to 2687

> <Gold.Score>
     Fitness  S(hb_ext) S(vdw_ext)  S(hb_int)    S(int)      intcor
     37.27       3.13      25.49       0.00      -0.92      -0.78

> <Gold.Goldscore.Fitness>
37.2672

> <Gold.Goldscore.Internal.Vdw>
-1.2104

> <Gold.Goldscore.Internal.Torsion>
-0.4894

> <Gold.Goldscore.External.Vdw>
25.4930

> <Gold.Goldscore.Internal.HBond>
0.0000

> <Gold.Goldscore.External.HBond>
3.1322

> <Gold.Goldscore.Internal.Correction>
-0.7819

> <Gold.Goldscore.Hbonds>
donor molecule, donor type, donor heavy atom, donor atom, acceptor molecule, acceptor atom, score
      P1  H  2050  2059       L1    11  0.42
      P1  H  5311  5319       L1     9  1.00
      L1  H     8    22       P1  5280  0.13
      L1  H    10    23       P1  2107  0.02

> <Gold.Goldscore.Internal.Vdw.Weighted>
-1.2104

> <Gold.Goldscore.Internal.Torsion.Weighted>
-0.4894

> <Gold.Goldscore.External.Vdw.Weighted>
35.0529

> <Gold.Goldscore.Internal.HBond.Weighted>
0.0000

> <Gold.Goldscore.External.HBond.Weighted>
3.1322

> <Gold.Goldscore.Internal.Correction.Weighted>
-0.7819

> <Gold.Rescore>
     Score     S(PLP)   S(hbond)     S(cho)   S(metal)  DE(clash)   DE(tors)     intcor
     37.21     -32.17       2.00       0.00       0.00       0.00       0.48       ----

> <Gold.PLP.Fitness>
37.2119

> <Gold.PLP.PLP>
-32.1671

> <Gold.PLP.part.hbond>
-2.6103

> <Gold.PLP.part.metal>
0.0000

> <Gold.PLP.part.buried>
0.7319

> <Gold.PLP.part.nonpolar>
-33.7946

> <Gold.PLP.part.repulsive>
1.5720

> <Gold.PLP.ligand.clash>
0.0000

> <Gold.PLP.ligand.torsion>
0.4776

> <Gold.PLP.Chemscore.Hbond>
2.0000

> <Gold.PLP.Chemscore.CHOScore>
0.0000

> <Gold.PLP.Chemscore.Metal>
0.0000

> <Gold.Chemscore.Hbonds>
donor molecule, donor type, donor heavy atom, donor atom, acceptor molecule, acceptor atom, score
      L1  H    10    23       P1  2107  0.07
      P1  H  2050  2059       L1    11  1.00
      P1  H  5311  5319       L1     9  1.00

> <Gold.PLP.Chemscore.Internal.Correction>
   9.000000E+99

