#       Name:                CT1002167954
#       Creating user name   hitesit
#       Creation time:       Sun Apr 16 02:21:23 2023


#       File generated by GOLD software.
#

@<TRIPOS>MOLECULE
CT1002167954|ligand_prepared|mol2|1|dock5
    29    30     1
SMALL
NO_CHARGES


@<TRIPOS>ATOM
      1 C1         -29.4520   9.7446  11.0047 C.3            1 RES1               0.0000
      2 C2         -30.1391   9.7160   9.6241 C.ar           1 RES1               0.0000
      3 C3         -28.3164   8.7275  10.9392 C.2            1 RES1               0.0000
      4 C4         -28.9890  11.1810  11.2211 C.2            1 RES1               0.0000
      5 C5         -30.3868   9.3623  12.1758 C.3            1 RES1               0.0000
      6 C6         -29.3888   9.5611   8.4623 C.ar           1 RES1               0.0000
      7 C7         -31.5200   9.8405   9.4968 C.ar           1 RES1               0.0000
      8 N8         -27.0426   9.2074  10.8558 N.am           1 RES1               0.0000
      9 O9         -28.5377   7.5230  10.9212 O.2            1 RES1               0.0000
     10 N10        -27.6408  11.4191  11.2803 N.am           1 RES1               0.0000
     11 O11        -29.7791  12.1113  11.3243 O.2            1 RES1               0.0000
     12 C12        -29.6568   9.1083  13.4853 C.3            1 RES1               0.0000
     13 C13        -29.9972   9.5287   7.2185 C.ar           1 RES1               0.0000
     14 C14        -32.1264   9.8081   8.2519 C.ar           1 RES1               0.0000
     15 C15        -26.6461  10.5018  11.0768 C.2            1 RES1               0.0000
     16 C16        -31.3662   9.6517   7.1124 C.ar           1 RES1               0.0000
     17 O17        -25.4561  10.8030  11.0920 O.2            1 RES1               0.0000
     18 H18        -31.1122  10.1713  12.3271 H              1 RES1               0.0000
     19 H19        -30.9449   8.4585  11.9017 H              1 RES1               0.0000
     20 H20        -28.3100   9.4652   8.5258 H              1 RES1               0.0000
     21 H21        -32.1379   9.9655  10.3796 H              1 RES1               0.0000
     22 H22        -26.3177   8.5422  10.6059 H              1 RES1               0.0000
     23 H23        -27.3520  12.3679  11.4963 H              1 RES1               0.0000
     24 H24        -30.3588   8.8440  14.2733 H              1 RES1               0.0000
     25 H25        -28.9448   8.2926  13.3780 H              1 RES1               0.0000
     26 H26        -29.1111   9.9951  13.8009 H              1 RES1               0.0000
     27 H27        -29.3943   9.4068   6.3246 H              1 RES1               0.0000
     28 H28        -33.2041   9.9059   8.1732 H              1 RES1               0.0000
     29 H29        -31.8426   9.6260   6.1380 H              1 RES1               0.0000
@<TRIPOS>BOND
    1    1    2 1     
    2    1    3 1     
    3    1    4 1     
    4    1    5 1     
    5    2    6 ar    
    6    2    7 ar    
    7    3    8 1     
    8    3    9 2     
    9    4   10 1     
   10    4   11 2     
   11    5   12 1     
   12    5   18 1     
   13    5   19 1     
   14    6   13 ar    
   15    6   20 1     
   16    7   14 ar    
   17    7   21 1     
   18    8   15 1     
   19    8   22 1     
   20   10   15 1     
   21   10   23 1     
   22   12   24 1     
   23   12   25 1     
   24   12   26 1     
   25   13   16 ar    
   26   13   27 1     
   27   14   16 ar    
   28   14   28 1     
   29   15   17 2     
   30   16   29 1     
@<TRIPOS>SUBSTRUCTURE
      1 RES1           1
@<TRIPOS>SET
DONOR_HYDROGENS      STATIC     ATOMS    <user>   **** ""
2 22 23
ATOM$RED        STATIC     ATOMS    COLORGROUP SYSTEM
2 22 23
@<TRIPOS>COMMENT
> <Gold.Version>
2022.3.0

> <Gold.Id.Protein>
unknown|3ama_clean|pdb

> <Gold.Protein.RotatedTorsions>
[ 2011 2002 2001 1999 ] final  -57.32 input   60.00 | X-H torsion
[ 2112 2107 2106 2103 ] final  156.33 input   60.00 | X-H torsion
[ 5355 5346 5345 5343 ] final -179.06 input   60.01 | X-H torsion
[  804  797  795  792 ] final -171.22 input   59.99 | X-H torsion
[ 2696 2687 2686 2684 ] final  121.94 input   59.97 | X-H torsion
[ 5271 5265 5266 5267 ] final   65.37 input   60.00 | X-H torsion

> <Gold.Protein.ActiveResidues>
 ARG47   THR48   LEU49   GLY50   THR51   GLY52   ARG56   VAL57   MET58   LEU59  
 TYR69   ALA70   MET71   LYS72   GLN95   VAL104  LYS105  MET118  VAL119  LEU120 
 GLU121  TYR122  ALA123  PRO124  GLY125  GLY126  GLU127  MET128  PHE129  SER130 
 HIS131  TYR164  LYS168  PRO169  GLU170  ASN171  LEU172  LEU173  ILE174  ASP175 
 LYS181  VAL182  ALA183  ASP184  SER325  ASN326  PHE327  ASP328  ASP329  TYR330 

> <Gold.Protein.RotatedAtoms>
  -19.0178   14.4980    7.1816 H   0  0  0  0  0  0  0  0  0  0  0  0  # atno 804  bound_to 797 
  -34.4836   10.8493   10.4169 H   0  0  0  0  0  0  0  0  0  0  0  0  # atno 2011 bound_to 2002
  -26.6259    5.6338   11.7141 H   0  0  0  0  0  0  0  0  0  0  0  0  # atno 2112 bound_to 2107
  -26.5750    2.1403   -2.3131 H   0  0  0  0  0  0  0  0  0  0  0  0  # atno 2696 bound_to 2687
  -33.7377   13.4762   18.6279 H   0  0  0  0  0  0  0  0  0  0  0  0  # atno 5271 bound_to 5265
  -33.8252   14.9276   19.4235 H   0  0  0  0  0  0  0  0  0  0  0  0  # atno 5272 bound_to 5265
  -23.3748   11.9118   10.5121 H   0  0  0  0  0  0  0  0  0  0  0  0  # atno 5355 bound_to 5346
  -35.9722   11.2794   10.9132 LP  0  0  0  0  0  0  0  0  0  0  0  0  # atno 5697 bound_to 2002
  -34.8322   12.4202   10.6572 LP  0  0  0  0  0  0  0  0  0  0  0  0  # atno 5698 bound_to 2002
  -25.4913    4.6462   11.0937 LP  0  0  0  0  0  0  0  0  0  0  0  0  # atno 5727 bound_to 2107
  -25.2160    5.4290   12.5002 LP  0  0  0  0  0  0  0  0  0  0  0  0  # atno 5728 bound_to 2107
  -21.7740   12.0514   10.7676 LP  0  0  0  0  0  0  0  0  0  0  0  0  # atno 5742 bound_to 5346
  -22.4134   12.4723    9.3252 LP  0  0  0  0  0  0  0  0  0  0  0  0  # atno 5743 bound_to 5346
  -19.2430   13.3842    6.0175 LP  0  0  0  0  0  0  0  0  0  0  0  0  # atno 5778 bound_to 797 
  -20.3398   13.5507    7.2158 LP  0  0  0  0  0  0  0  0  0  0  0  0  # atno 5779 bound_to 797 
  -26.5991    3.4978   -3.2096 LP  0  0  0  0  0  0  0  0  0  0  0  0  # atno 5782 bound_to 2687
  -25.1747    2.8378   -2.7600 LP  0  0  0  0  0  0  0  0  0  0  0  0  # atno 5783 bound_to 2687

> <Gold.Score>
     Fitness  S(hb_ext) S(vdw_ext)  S(hb_int)    S(int)      intcor
     39.64       3.24      26.68       0.00      -0.29      -0.76

> <Gold.Goldscore.Fitness>
39.6362

> <Gold.Goldscore.Internal.Vdw>
-0.4538

> <Gold.Goldscore.Internal.Torsion>
-0.5974

> <Gold.Goldscore.External.Vdw>
26.6819

> <Gold.Goldscore.Internal.HBond>
0.0000

> <Gold.Goldscore.External.HBond>
3.2413

> <Gold.Goldscore.Internal.Correction>
-0.7585

> <Gold.Goldscore.Hbonds>
donor molecule, donor type, donor heavy atom, donor atom, acceptor molecule, acceptor atom, score
      P1  H  2050  2059       L1     9  0.19
      P1  H  2107  2112       L1     9  0.53
      P1  H  5346  5355       L1    17  0.90

> <Gold.Goldscore.Internal.Vdw.Weighted>
-0.4538

> <Gold.Goldscore.Internal.Torsion.Weighted>
-0.5974

> <Gold.Goldscore.External.Vdw.Weighted>
36.6877

> <Gold.Goldscore.Internal.HBond.Weighted>
0.0000

> <Gold.Goldscore.External.HBond.Weighted>
3.2413

> <Gold.Goldscore.Internal.Correction.Weighted>
-0.7585

> <Gold.Rescore>
     Score     S(PLP)   S(hbond)     S(cho)   S(metal)  DE(clash)   DE(tors)     intcor
     44.24     -40.86       1.58       0.00       0.00       0.00       0.68       ----

> <Gold.PLP.Fitness>
44.2425

> <Gold.PLP.PLP>
-40.8609

> <Gold.PLP.part.hbond>
-3.0937

> <Gold.PLP.part.metal>
0.0000

> <Gold.PLP.part.buried>
-0.4945

> <Gold.PLP.part.nonpolar>
-39.6595

> <Gold.PLP.part.repulsive>
1.8154

> <Gold.PLP.ligand.clash>
0.0000

> <Gold.PLP.ligand.torsion>
0.6830

> <Gold.PLP.Chemscore.Hbond>
1.5826

> <Gold.PLP.Chemscore.CHOScore>
0.0000

> <Gold.PLP.Chemscore.Metal>
0.0000

> <Gold.Chemscore.Hbonds>
donor molecule, donor type, donor heavy atom, donor atom, acceptor molecule, acceptor atom, score
      L1  H     8    22       P1  2058  0.54
      P1  H  2050  2059       L1     9  0.15
      P1  H  5346  5355       L1    17  0.18

> <Gold.PLP.Chemscore.Internal.Correction>
   9.000000E+99

