#       Name:                CT1002167954
#       Creating user name   hitesit
#       Creation time:       Sun Apr 16 02:21:28 2023


#       File generated by GOLD software.
#

@<TRIPOS>MOLECULE
CT1002167954|ligand_prepared|mol2|1|dock9
    29    30     1
SMALL
NO_CHARGES


@<TRIPOS>ATOM
      1 C1         -29.7995   9.7489  12.0022 C.3            1 RES1               0.0000
      2 C2         -31.1962   9.4630  12.5906 C.ar           1 RES1               0.0000
      3 C3         -28.7968   9.0649  12.9270 C.2            1 RES1               0.0000
      4 C4         -29.8135   9.1955  10.5816 C.2            1 RES1               0.0000
      5 C5         -29.4498  11.2533  11.9255 C.3            1 RES1               0.0000
      6 C6         -32.3395   9.9709  11.9809 C.ar           1 RES1               0.0000
      7 C7         -31.3573   8.6921  13.7388 C.ar           1 RES1               0.0000
      8 N8         -28.1987   7.9246  12.4776 N.am           1 RES1               0.0000
      9 O9         -28.5641   9.4975  14.0490 O.2            1 RES1               0.0000
     10 N10        -28.9905   8.1376  10.2964 N.am           1 RES1               0.0000
     11 O11        -30.5421   9.6553   9.7109 O.2            1 RES1               0.0000
     12 C12        -28.0605  11.5326  11.3742 C.3            1 RES1               0.0000
     13 C13        -33.5984   9.7151  12.4986 C.ar           1 RES1               0.0000
     14 C14        -32.6172   8.4377  14.2550 C.ar           1 RES1               0.0000
     15 C15        -28.2064   7.4574  11.1879 C.2            1 RES1               0.0000
     16 C16        -33.7381   8.9481  13.6356 C.ar           1 RES1               0.0000
     17 O17        -27.5352   6.4809  10.8669 O.2            1 RES1               0.0000
     18 H18        -30.1894  11.7557  11.2899 H              1 RES1               0.0000
     19 H19        -29.5238  11.6848  12.9313 H              1 RES1               0.0000
     20 H20        -32.2490  10.5787  11.0868 H              1 RES1               0.0000
     21 H21        -30.4895   8.2812  14.2435 H              1 RES1               0.0000
     22 H22        -27.6996   7.3677  13.1640 H              1 RES1               0.0000
     23 H23        -28.9594   7.8287   9.3300 H              1 RES1               0.0000
     24 H24        -27.8663  12.6026  11.3417 H              1 RES1               0.0000
     25 H25        -27.2981  11.0686  11.9966 H              1 RES1               0.0000
     26 H26        -27.9598  11.1391  10.3648 H              1 RES1               0.0000
     27 H27        -34.4773  10.1202  12.0082 H              1 RES1               0.0000
     28 H28        -32.7224   7.8340  15.1504 H              1 RES1               0.0000
     29 H29        -34.7245   8.7475  14.0407 H              1 RES1               0.0000
@<TRIPOS>BOND
    1    1    2 1     
    2    1    3 1     
    3    1    4 1     
    4    1    5 1     
    5    2    6 ar    
    6    2    7 ar    
    7    3    8 1     
    8    3    9 2     
    9    4   10 1     
   10    4   11 2     
   11    5   12 1     
   12    5   18 1     
   13    5   19 1     
   14    6   13 ar    
   15    6   20 1     
   16    7   14 ar    
   17    7   21 1     
   18    8   15 1     
   19    8   22 1     
   20   10   15 1     
   21   10   23 1     
   22   12   24 1     
   23   12   25 1     
   24   12   26 1     
   25   13   16 ar    
   26   13   27 1     
   27   14   16 ar    
   28   14   28 1     
   29   15   17 2     
   30   16   29 1     
@<TRIPOS>SUBSTRUCTURE
      1 RES1           1
@<TRIPOS>SET
DONOR_HYDROGENS      STATIC     ATOMS    <user>   **** ""
2 22 23
ATOM$RED        STATIC     ATOMS    COLORGROUP SYSTEM
2 22 23
@<TRIPOS>COMMENT
> <Gold.Version>
2022.3.0

> <Gold.Id.Protein>
unknown|3ama_clean|pdb

> <Gold.Protein.RotatedTorsions>
[ 2011 2002 2001 1999 ] final   71.66 input   60.00 | X-H torsion
[ 2112 2107 2106 2103 ] final  142.55 input   60.00 | X-H torsion
[ 5355 5346 5345 5343 ] final  147.42 input   60.01 | X-H torsion
[  804  797  795  792 ] final -101.22 input   59.99 | X-H torsion
[ 2696 2687 2686 2684 ] final  170.30 input   59.97 | X-H torsion
[ 5271 5265 5266 5267 ] final   22.38 input   60.00 | X-H torsion

> <Gold.Protein.ActiveResidues>
 ARG47   THR48   LEU49   GLY50   THR51   GLY52   ARG56   VAL57   MET58   LEU59  
 TYR69   ALA70   MET71   LYS72   GLN95   VAL104  LYS105  MET118  VAL119  LEU120 
 GLU121  TYR122  ALA123  PRO124  GLY125  GLY126  GLU127  MET128  PHE129  SER130 
 HIS131  TYR164  LYS168  PRO169  GLU170  ASN171  LEU172  LEU173  ILE174  ASP175 
 LYS181  VAL182  ALA183  ASP184  SER325  ASN326  PHE327  ASP328  ASP329  TYR330 

> <Gold.Protein.RotatedAtoms>
  -19.9474   14.1375    7.5790 H   0  0  0  0  0  0  0  0  0  0  0  0  # atno 804  bound_to 797 
  -34.9716   12.4415   10.6997 H   0  0  0  0  0  0  0  0  0  0  0  0  # atno 2011 bound_to 2002
  -26.6392    5.5154   11.5237 H   0  0  0  0  0  0  0  0  0  0  0  0  # atno 2112 bound_to 2107
  -25.8115    2.0866   -2.2709 H   0  0  0  0  0  0  0  0  0  0  0  0  # atno 2696 bound_to 2687
  -33.0483   13.4706   18.4984 H   0  0  0  0  0  0  0  0  0  0  0  0  # atno 5271 bound_to 5265
  -34.2264   14.3938   19.2105 H   0  0  0  0  0  0  0  0  0  0  0  0  # atno 5272 bound_to 5265
  -23.0309   11.8175   10.9171 H   0  0  0  0  0  0  0  0  0  0  0  0  # atno 5355 bound_to 5346
  -34.3832   10.9552   10.3970 LP  0  0  0  0  0  0  0  0  0  0  0  0  # atno 5697 bound_to 2002
  -35.9295   11.1401   10.8885 LP  0  0  0  0  0  0  0  0  0  0  0  0  # atno 5698 bound_to 2002
  -25.3050    4.6344   11.2215 LP  0  0  0  0  0  0  0  0  0  0  0  0  # atno 5727 bound_to 2107
  -25.3890    5.5601   12.5642 LP  0  0  0  0  0  0  0  0  0  0  0  0  # atno 5728 bound_to 2107
  -21.5901   12.2466   10.2947 LP  0  0  0  0  0  0  0  0  0  0  0  0  # atno 5742 bound_to 5346
  -22.9438   12.3722    9.3900 LP  0  0  0  0  0  0  0  0  0  0  0  0  # atno 5743 bound_to 5346
  -18.7130   14.1817    6.5204 LP  0  0  0  0  0  0  0  0  0  0  0  0  # atno 5778 bound_to 797 
  -19.9332   13.1166    6.3125 LP  0  0  0  0  0  0  0  0  0  0  0  0  # atno 5779 bound_to 797 
  -27.0431    2.9693   -2.8633 LP  0  0  0  0  0  0  0  0  0  0  0  0  # atno 5782 bound_to 2687
  -25.4999    3.4205   -3.1488 LP  0  0  0  0  0  0  0  0  0  0  0  0  # atno 5783 bound_to 2687

> <Gold.Score>
     Fitness  S(hb_ext) S(vdw_ext)  S(hb_int)    S(int)      intcor
     38.57       3.68      27.50       0.00      -2.92      -0.76

> <Gold.Goldscore.Fitness>
38.5727

> <Gold.Goldscore.Internal.Vdw>
-3.3125

> <Gold.Goldscore.Internal.Torsion>
-0.3705

> <Gold.Goldscore.External.Vdw>
27.5011

> <Gold.Goldscore.Internal.HBond>
0.0000

> <Gold.Goldscore.External.HBond>
3.6831

> <Gold.Goldscore.Internal.Correction>
-0.7585

> <Gold.Goldscore.Hbonds>
donor molecule, donor type, donor heavy atom, donor atom, acceptor molecule, acceptor atom, score
      P1  H  2050  2059       L1    17  0.62
      P1  H  2107  2112       L1    17  0.99
      P1  H  5311  5319       L1     9  0.23

> <Gold.Goldscore.Internal.Vdw.Weighted>
-3.3125

> <Gold.Goldscore.Internal.Torsion.Weighted>
-0.3705

> <Gold.Goldscore.External.Vdw.Weighted>
37.8141

> <Gold.Goldscore.Internal.HBond.Weighted>
0.0000

> <Gold.Goldscore.External.HBond.Weighted>
3.6831

> <Gold.Goldscore.Internal.Correction.Weighted>
-0.7585

> <Gold.Rescore>
     Score     S(PLP)   S(hbond)     S(cho)   S(metal)  DE(clash)   DE(tors)     intcor
     42.06     -36.45       2.71       0.00       0.00       0.24       1.14       ----

> <Gold.PLP.Fitness>
42.0564

> <Gold.PLP.PLP>
-36.4462

> <Gold.PLP.part.hbond>
-2.9127

> <Gold.PLP.part.metal>
0.0000

> <Gold.PLP.part.buried>
1.2749

> <Gold.PLP.part.nonpolar>
-39.9187

> <Gold.PLP.part.repulsive>
4.2114

> <Gold.PLP.ligand.clash>
0.2366

> <Gold.PLP.ligand.torsion>
1.1428

> <Gold.PLP.Chemscore.Hbond>
2.7108

> <Gold.PLP.Chemscore.CHOScore>
0.0000

> <Gold.PLP.Chemscore.Metal>
0.0000

> <Gold.Chemscore.Hbonds>
donor molecule, donor type, donor heavy atom, donor atom, acceptor molecule, acceptor atom, score
      P1  H  2050  2059       L1    17  0.90
      P1  H  2107  2112       L1    17  0.68
      P1  H  5311  5319       L1     9  0.88

> <Gold.PLP.Chemscore.Internal.Correction>
   9.000000E+99

