#       Name:                CT1002167954
#       Creating user name   hitesit
#       Creation time:       Sun Apr 16 02:22:47 2023


#       File generated by GOLD software.
#

@<TRIPOS>MOLECULE
CT1002167954|ligand_prepared|mol2|1|dock3
    29    30     1
SMALL
NO_CHARGES


@<TRIPOS>ATOM
      1 C1         121.7741 154.4073 124.8734 C.3            1 RES1               0.0000
      2 C2         122.0762 153.2747 123.8711 C.ar           1 RES1               0.0000
      3 C3         120.7749 153.8371 125.8758 C.2            1 RES1               0.0000
      4 C4         123.1130 154.8031 125.4862 C.2            1 RES1               0.0000
      5 C5         121.1546 155.6670 124.2247 C.3            1 RES1               0.0000
      6 C6         122.4338 152.0072 124.3208 C.ar           1 RES1               0.0000
      7 C7         121.9990 153.4811 122.4963 C.ar           1 RES1               0.0000
      8 N8         121.2338 153.5375 127.1246 N.am           1 RES1               0.0000
      9 O9         119.6113 153.6168 125.5632 O.2            1 RES1               0.0000
     10 N10        123.3024 154.5668 126.8226 N.am           1 RES1               0.0000
     11 O11        124.0117 155.3021 124.8202 O.2            1 RES1               0.0000
     12 C12        120.7415 156.7329 125.2274 C.3            1 RES1               0.0000
     13 C13        122.7017 150.9823 123.4285 C.ar           1 RES1               0.0000
     14 C14        122.2675 152.4548 121.6057 C.ar           1 RES1               0.0000
     15 C15        122.4348 153.9238 127.6630 C.2            1 RES1               0.0000
     16 C16        122.6183 151.2052 122.0706 C.ar           1 RES1               0.0000
     17 O17        122.6991 153.7000 128.8408 O.2            1 RES1               0.0000
     18 H18        121.8833 156.1004 123.5287 H              1 RES1               0.0000
     19 H19        120.2732 155.3680 123.6441 H              1 RES1               0.0000
     20 H20        122.5070 151.8136 125.3857 H              1 RES1               0.0000
     21 H21        121.7259 154.4564 122.1078 H              1 RES1               0.0000
     22 H22        120.6279 152.9739 127.7125 H              1 RES1               0.0000
     23 H23        124.1704 154.9014 127.2287 H              1 RES1               0.0000
     24 H24        120.3132 157.5947 124.7198 H              1 RES1               0.0000
     25 H25        119.9983 156.3436 125.9201 H              1 RES1               0.0000
     26 H26        121.5989 157.0717 125.8054 H              1 RES1               0.0000
     27 H27        122.9787 150.0010 123.7994 H              1 RES1               0.0000
     28 H28        122.2012 152.6349 120.5378 H              1 RES1               0.0000
     29 H29        122.8278 150.4020 121.3718 H              1 RES1               0.0000
@<TRIPOS>BOND
    1    1    2 1     
    2    1    3 1     
    3    1    4 1     
    4    1    5 1     
    5    2    6 ar    
    6    2    7 ar    
    7    3    8 1     
    8    3    9 2     
    9    4   10 1     
   10    4   11 2     
   11    5   12 1     
   12    5   18 1     
   13    5   19 1     
   14    6   13 ar    
   15    6   20 1     
   16    7   14 ar    
   17    7   21 1     
   18    8   15 1     
   19    8   22 1     
   20   10   15 1     
   21   10   23 1     
   22   12   24 1     
   23   12   25 1     
   24   12   26 1     
   25   13   16 ar    
   26   13   27 1     
   27   14   16 ar    
   28   14   28 1     
   29   15   17 2     
   30   16   29 1     
@<TRIPOS>SUBSTRUCTURE
      1 RES1           1
@<TRIPOS>SET
DONOR_HYDROGENS      STATIC     ATOMS    <user>   **** ""
2 22 23
ATOM$RED        STATIC     ATOMS    COLORGROUP SYSTEM
2 22 23
@<TRIPOS>COMMENT
> <Gold.Version>
2022.3.0

> <Gold.Id.Protein>
unknown|7xmr_cavity_clean|pdb

> <Gold.Protein.RotatedTorsions>
[ 5212 5207 5206 5203 ] final    6.43 input   60.02 | X-H torsion
[ 3657 3648 3647 3646 ] final   55.41 input   60.03 | X-H torsion
[ 4825 4820 4819 4816 ] final  106.93 input   60.00 | X-H torsion
[ 1545 1538 1536 1533 ] final  -82.39 input   60.02 | X-H torsion
[ 4846 4837 4836 4834 ] final  137.78 input   59.98 | X-H torsion
[ 2091 2080 2079 2078 ] final  153.09 input   59.99 | X-H torsion
[ 4874 4867 4865 4862 ] final  112.55 input   60.01 | X-H torsion
[ 3728 3717 3716 3715 ] final  150.00 input   59.98 | X-H torsion
[ 2151 2144 2142 2139 ] final   97.99 input   60.03 | X-H torsion
[ 2175 2168 2166 2163 ] final -170.58 input   60.03 | X-H torsion
[ 8230 8219 8218 8215 ] final  120.56 input   60.01 | X-H torsion
[ 8231 8220 8221 8222 ] final   69.82 input  100.72 | X-H torsion
[ 8235 8225 8224 8221 ] final   96.52 input   60.01 | X-H torsion
[ 3801 3791 3782 3781 ] final -119.97 input   60.03 | X-H torsion
[ 2186 2181 2180 2177 ] final  136.02 input   60.01 | X-H torsion
[ 3142 3136 3134 3131 ] final  -91.92 input   60.00 | X-H torsion
[ 1102 1093 1092 1091 ] final   80.71 input   60.00 | X-H torsion
[ 3163 3152 3151 3150 ] final   80.65 input   59.99 | X-H torsion
[ 8437 8432 8431 8428 ] final   58.99 input   59.99 | X-H torsion
[ 3220 3211 3210 3208 ] final   85.27 input   60.01 | X-H torsion
[ 5037 5032 5031 5028 ] final -121.48 input   60.02 | X-H torsion
[  498  487  486  485 ] final -161.39 input   60.00 | X-H torsion
[ 4492 4485 4483 4480 ] final  -76.82 input   60.02 | X-H torsion
[ 5177 5168 5167 5165 ] final   16.03 input   59.98 | X-H torsion
[ 13102 8223 8222 8221 ] final  -62.62 input   -0.00 | X-H torsion

> <Gold.Protein.ActiveResidues>
 ASP20   ARG21   LEU23   ARG24   ASP26   GLY27   GLU28   ALA30   ALA31   ARG32  
 GLU33   VAL34   LYS35   GLU186  ASP193  LEU194  HIS195  LYS197  HIS213  CYS214 
 PHE215  GLU216  GLY217  VAL218  THR219  LYS257  TRP258  PHE259  THR260  ASP261 
 THR262  SER263  ARG313  ASP315  THR316  LYS317  GLU318  TYR320  ASP341  VAL342 
 ILE343  LYS345  ASN346  ASN347  LYS349  ASP350  CYS351  PHE354  MET61   HIS62  
 TRP63   GLY64   THR65   ASP66   ARG68   SER84   TYR85   THR87   SER98   TYR105 
 PRO107  SER108  ASN293  ASN295  ARG314  VAL315  SER316  TRP332  ASP333  SER334 
 PHE335 

> <Gold.Protein.RotatedAtoms>
  125.1740  156.6987  121.9061 H   0  0  0  0  0  0  0  0  0  0  0  0  # atno 498  bound_to 487 
  125.9163  157.6405  123.0508 H   0  0  0  0  0  0  0  0  0  0  0  0  # atno 499  bound_to 487 
  124.8602  156.4493  123.5138 H   0  0  0  0  0  0  0  0  0  0  0  0  # atno 500  bound_to 487 
  124.1427  159.5637  119.1026 H   0  0  0  0  0  0  0  0  0  0  0  0  # atno 1102 bound_to 1093
  123.1398  160.0876  120.3139 H   0  0  0  0  0  0  0  0  0  0  0  0  # atno 1103 bound_to 1093
  123.3104  160.9859  118.9314 H   0  0  0  0  0  0  0  0  0  0  0  0  # atno 1104 bound_to 1093
  129.3827  157.9292  128.0154 H   0  0  0  0  0  0  0  0  0  0  0  0  # atno 1545 bound_to 1538
  110.7517  159.5094  140.9565 H   0  0  0  0  0  0  0  0  0  0  0  0  # atno 2091 bound_to 2080
  110.9619  159.0201  142.5262 H   0  0  0  0  0  0  0  0  0  0  0  0  # atno 2092 bound_to 2080
  112.2626  159.5379  141.6381 H   0  0  0  0  0  0  0  0  0  0  0  0  # atno 2093 bound_to 2080
  122.2167  155.6132  140.7379 H   0  0  0  0  0  0  0  0  0  0  0  0  # atno 2151 bound_to 2144
  123.1217  161.4482  135.3795 H   0  0  0  0  0  0  0  0  0  0  0  0  # atno 2175 bound_to 2168
  131.1478  162.9674  135.5555 H   0  0  0  0  0  0  0  0  0  0  0  0  # atno 2186 bound_to 2181
  126.2352  157.7683  144.9174 H   0  0  0  0  0  0  0  0  0  0  0  0  # atno 3142 bound_to 3136
  123.8094  165.1580  141.1753 H   0  0  0  0  0  0  0  0  0  0  0  0  # atno 3163 bound_to 3152
  123.6683  164.9234  139.5405 H   0  0  0  0  0  0  0  0  0  0  0  0  # atno 3164 bound_to 3152
  122.8184  163.9637  140.5922 H   0  0  0  0  0  0  0  0  0  0  0  0  # atno 3165 bound_to 3152
  133.9658  162.2472  138.4623 H   0  0  0  0  0  0  0  0  0  0  0  0  # atno 3220 bound_to 3211
  137.9670  157.3861  139.8992 H   0  0  0  0  0  0  0  0  0  0  0  0  # atno 3657 bound_to 3648
  138.4426  158.6227  140.8948 H   0  0  0  0  0  0  0  0  0  0  0  0  # atno 3658 bound_to 3648
  136.9875  157.8692  141.1469 H   0  0  0  0  0  0  0  0  0  0  0  0  # atno 3659 bound_to 3648
  128.7167  152.4495  141.1786 H   0  0  0  0  0  0  0  0  0  0  0  0  # atno 3728 bound_to 3717
  129.8931  151.3494  140.7874 H   0  0  0  0  0  0  0  0  0  0  0  0  # atno 3729 bound_to 3717
  130.3154  152.8589  141.3273 H   0  0  0  0  0  0  0  0  0  0  0  0  # atno 3730 bound_to 3717
  133.8696  150.2081  143.9962 H   0  0  0  0  0  0  0  0  0  0  0  0  # atno 3801 bound_to 3791
   95.0550  146.9070  111.7790 H   0  0  0  0  0  0  0  0  0  0  0  0  # atno 4492 bound_to 4485
  102.4119  138.0701  118.6314 H   0  0  0  0  0  0  0  0  0  0  0  0  # atno 4825 bound_to 4820
   97.9695  136.7277  115.2550 H   0  0  0  0  0  0  0  0  0  0  0  0  # atno 4846 bound_to 4837
  108.8322  133.9387  118.7822 H   0  0  0  0  0  0  0  0  0  0  0  0  # atno 4874 bound_to 4867
  120.0575  160.1952  119.6204 H   0  0  0  0  0  0  0  0  0  0  0  0  # atno 5037 bound_to 5032
  103.4339  146.6865  110.6831 H   0  0  0  0  0  0  0  0  0  0  0  0  # atno 5177 bound_to 5168
   96.6481  151.4513  108.1436 H   0  0  0  0  0  0  0  0  0  0  0  0  # atno 5212 bound_to 5207
  108.3925  151.4427  127.7971 H   0  0  0  0  0  0  0  0  0  0  0  0  # atno 8230 bound_to 8219
  132.2558  142.2678  143.6053 H   0  0  0  0  0  0  0  0  0  0  0  0  # atno 8231 bound_to 8220
  131.9768  144.3105  139.4347 H   0  0  0  0  0  0  0  0  0  0  0  0  # atno 8235 bound_to 8225
  117.7221  145.1664  126.9589 H   0  0  0  0  0  0  0  0  0  0  0  0  # atno 8437 bound_to 8432
   95.4271  152.2511  107.4235 LP  0  0  0  0  0  0  0  0  0  0  0  0  # atno 13008 bound_to 5207
   96.7027  151.7382  106.5424 LP  0  0  0  0  0  0  0  0  0  0  0  0  # atno 13009 bound_to 5207
  103.0752  138.7688  117.3199 LP  0  0  0  0  0  0  0  0  0  0  0  0  # atno 13018 bound_to 4820
  102.6262  139.6829  118.5964 LP  0  0  0  0  0  0  0  0  0  0  0  0  # atno 13019 bound_to 4820
  129.2307  158.9403  126.7495 LP  0  0  0  0  0  0  0  0  0  0  0  0  # atno 13022 bound_to 1538
  127.9175  158.5190  127.6240 LP  0  0  0  0  0  0  0  0  0  0  0  0  # atno 13023 bound_to 1538
   98.1952  136.5119  116.8521 LP  0  0  0  0  0  0  0  0  0  0  0  0  # atno 13035 bound_to 4837
   97.6832  135.2712  115.9221 LP  0  0  0  0  0  0  0  0  0  0  0  0  # atno 13036 bound_to 4837
  108.3940  135.4812  118.5038 LP  0  0  0  0  0  0  0  0  0  0  0  0  # atno 13051 bound_to 4867
  109.3065  135.1112  119.8065 LP  0  0  0  0  0  0  0  0  0  0  0  0  # atno 13052 bound_to 4867
  121.5569  156.5875  139.6142 LP  0  0  0  0  0  0  0  0  0  0  0  0  # atno 13069 bound_to 2144
  120.6035  155.8202  140.6953 LP  0  0  0  0  0  0  0  0  0  0  0  0  # atno 13070 bound_to 2144
  124.1636  161.9939  136.5044 LP  0  0  0  0  0  0  0  0  0  0  0  0  # atno 13095 bound_to 2168
  123.4887  160.5153  136.6616 LP  0  0  0  0  0  0  0  0  0  0  0  0  # atno 13096 bound_to 2168
  107.8729  150.2189  128.7354 LP  0  0  0  0  0  0  0  0  0  0  0  0  # atno 13099 bound_to 8219
  109.4134  150.7471  128.8563 LP  0  0  0  0  0  0  0  0  0  0  0  0  # atno 13100 bound_to 8219
  133.6528  143.2691  143.9217 LP  0  0  0  0  0  0  0  0  0  0  0  0  # atno 13101 bound_to 8220
  129.9160  143.4772  143.3847 LP  0  0  0  0  0  0  0  0  0  0  0  0  # atno 13102 bound_to 8223
  130.2417  144.8992  144.3184 LP  0  0  0  0  0  0  0  0  0  0  0  0  # atno 13103 bound_to 8223
  130.8498  144.5078  140.5918 LP  0  0  0  0  0  0  0  0  0  0  0  0  # atno 13104 bound_to 8225
  130.8059  143.1959  139.6204 LP  0  0  0  0  0  0  0  0  0  0  0  0  # atno 13105 bound_to 8225
  134.7697  151.4916  144.0805 LP  0  0  0  0  0  0  0  0  0  0  0  0  # atno 13110 bound_to 3791
  129.6020  162.8181  135.0706 LP  0  0  0  0  0  0  0  0  0  0  0  0  # atno 13119 bound_to 2181
  130.4768  161.4897  135.4400 LP  0  0  0  0  0  0  0  0  0  0  0  0  # atno 13120 bound_to 2181
  125.4289  158.0356  143.5294 LP  0  0  0  0  0  0  0  0  0  0  0  0  # atno 13129 bound_to 3136
  126.6507  159.0250  143.9708 LP  0  0  0  0  0  0  0  0  0  0  0  0  # atno 13130 bound_to 3136
  117.7440  146.5980  127.7319 LP  0  0  0  0  0  0  0  0  0  0  0  0  # atno 13157 bound_to 8432
  118.7233  146.3437  126.4501 LP  0  0  0  0  0  0  0  0  0  0  0  0  # atno 13158 bound_to 8432
  135.1134  162.1616  137.3118 LP  0  0  0  0  0  0  0  0  0  0  0  0  # atno 13185 bound_to 3211
  133.5342  162.1144  136.8990 LP  0  0  0  0  0  0  0  0  0  0  0  0  # atno 13186 bound_to 3211
  119.5834  159.8827  121.1452 LP  0  0  0  0  0  0  0  0  0  0  0  0  # atno 13193 bound_to 5032
  118.6287  160.7618  120.1541 LP  0  0  0  0  0  0  0  0  0  0  0  0  # atno 13194 bound_to 5032
   93.8967  146.2887  110.8175 LP  0  0  0  0  0  0  0  0  0  0  0  0  # atno 13199 bound_to 4485
   95.0556  145.3168  111.4332 LP  0  0  0  0  0  0  0  0  0  0  0  0  # atno 13200 bound_to 4485
  102.2807  147.3697  109.7601 LP  0  0  0  0  0  0  0  0  0  0  0  0  # atno 13215 bound_to 5168
  101.9468  146.0276  110.6285 LP  0  0  0  0  0  0  0  0  0  0  0  0  # atno 13216 bound_to 5168

> <Gold.Score>
     Fitness  S(hb_ext) S(vdw_ext)  S(hb_int)    S(int)      intcor
     33.53       5.17      20.69       0.00      -0.09      -0.77

> <Gold.Goldscore.Fitness>
33.5334

> <Gold.Goldscore.Internal.Vdw>
-0.4386

> <Gold.Goldscore.Internal.Torsion>
-0.4126

> <Gold.Goldscore.External.Vdw>
20.6922

> <Gold.Goldscore.Internal.HBond>
0.0000

> <Gold.Goldscore.External.HBond>
5.1675

> <Gold.Goldscore.Internal.Correction>
-0.7653

> <Gold.Goldscore.Hbonds>
donor molecule, donor type, donor heavy atom, donor atom, acceptor molecule, acceptor atom, score
      P1  H   487   500       L1    11  0.86

> <Gold.Goldscore.Internal.Vdw.Weighted>
-0.4386

> <Gold.Goldscore.Internal.Torsion.Weighted>
-0.4126

> <Gold.Goldscore.External.Vdw.Weighted>
28.4518

> <Gold.Goldscore.Internal.HBond.Weighted>
0.0000

> <Gold.Goldscore.External.HBond.Weighted>
5.1675

> <Gold.Goldscore.Internal.Correction.Weighted>
-0.7653

> <Gold.Rescore>
     Score     S(PLP)   S(hbond)     S(cho)   S(metal)  DE(clash)   DE(tors)     intcor
     32.60     -29.84       0.99       0.00       0.00       0.00       0.11       ----

> <Gold.PLP.Fitness>
32.6035

> <Gold.PLP.PLP>
-29.8431

> <Gold.PLP.part.hbond>
-1.9365

> <Gold.PLP.part.metal>
0.0000

> <Gold.PLP.part.buried>
-5.1078

> <Gold.PLP.part.nonpolar>
-23.5143

> <Gold.PLP.part.repulsive>
0.2678

> <Gold.PLP.ligand.clash>
0.0000

> <Gold.PLP.ligand.torsion>
0.1067

> <Gold.PLP.Chemscore.Hbond>
0.9913

> <Gold.PLP.Chemscore.CHOScore>
0.0000

> <Gold.PLP.Chemscore.Metal>
0.0000

> <Gold.Chemscore.Hbonds>
donor molecule, donor type, donor heavy atom, donor atom, acceptor molecule, acceptor atom, score
      P1  H   487   500       L1    11  1.00

> <Gold.PLP.Chemscore.Internal.Correction>
   9.000000E+99

