#       Name:                CT1002167954
#       Creating user name   hitesit
#       Creation time:       Sun Apr 16 02:23:03 2023


#       File generated by GOLD software.
#

@<TRIPOS>MOLECULE
CT1002167954|ligand_prepared|mol2|1|dock7
    29    30     1
SMALL
NO_CHARGES


@<TRIPOS>ATOM
      1 C1         106.6900 157.2154 129.9026 C.3            1 RES1               0.0000
      2 C2         105.3131 156.6022 129.5758 C.ar           1 RES1               0.0000
      3 C3         106.8518 158.4208 128.9810 C.2            1 RES1               0.0000
      4 C4         106.6597 157.5661 131.3861 C.2            1 RES1               0.0000
      5 C5         107.8757 156.2518 129.6636 C.3            1 RES1               0.0000
      6 C6         105.2199 155.3605 128.9543 C.ar           1 RES1               0.0000
      7 C7         104.1294 157.2638 129.8916 C.ar           1 RES1               0.0000
      8 N8         106.7299 159.6608 129.5354 N.am           1 RES1               0.0000
      9 O9         107.0440 158.2849 127.7790 O.2            1 RES1               0.0000
     10 N10        106.7245 158.8899 131.7344 N.am           1 RES1               0.0000
     11 O11        106.5634 156.7091 132.2559 O.2            1 RES1               0.0000
     12 C12        109.2219 156.8198 130.0849 C.3            1 RES1               0.0000
     13 C13        103.9879 154.7992 128.6618 C.ar           1 RES1               0.0000
     14 C14        102.8985 156.7008 129.5980 C.ar           1 RES1               0.0000
     15 C15        106.7273 159.9549 130.8753 C.2            1 RES1               0.0000
     16 C16        102.8265 155.4686 128.9838 C.ar           1 RES1               0.0000
     17 O17        106.7316 161.1188 131.2655 O.2            1 RES1               0.0000
     18 H18        107.6943 155.3239 130.2199 H              1 RES1               0.0000
     19 H19        107.9170 156.0005 128.5966 H              1 RES1               0.0000
     20 H20        106.1230 154.8200 128.6912 H              1 RES1               0.0000
     21 H21        104.1618 158.2348 130.3742 H              1 RES1               0.0000
     22 H22        106.6316 160.4418 128.8945 H              1 RES1               0.0000
     23 H23        106.7755 159.1009 132.7259 H              1 RES1               0.0000
     24 H24        110.0189 156.1037 129.8958 H              1 RES1               0.0000
     25 H25        109.4463 157.7302 129.5330 H              1 RES1               0.0000
     26 H26        109.2249 157.0576 131.1467 H              1 RES1               0.0000
     27 H27        103.9368 153.8298 128.1771 H              1 RES1               0.0000
     28 H28        101.9870 157.2315 129.8526 H              1 RES1               0.0000
     29 H29        101.8616 155.0285 128.7548 H              1 RES1               0.0000
@<TRIPOS>BOND
    1    1    2 1     
    2    1    3 1     
    3    1    4 1     
    4    1    5 1     
    5    2    6 ar    
    6    2    7 ar    
    7    3    8 1     
    8    3    9 2     
    9    4   10 1     
   10    4   11 2     
   11    5   12 1     
   12    5   18 1     
   13    5   19 1     
   14    6   13 ar    
   15    6   20 1     
   16    7   14 ar    
   17    7   21 1     
   18    8   15 1     
   19    8   22 1     
   20   10   15 1     
   21   10   23 1     
   22   12   24 1     
   23   12   25 1     
   24   12   26 1     
   25   13   16 ar    
   26   13   27 1     
   27   14   16 ar    
   28   14   28 1     
   29   15   17 2     
   30   16   29 1     
@<TRIPOS>SUBSTRUCTURE
      1 RES1           1
@<TRIPOS>SET
DONOR_HYDROGENS      STATIC     ATOMS    <user>   **** ""
2 22 23
ATOM$RED        STATIC     ATOMS    COLORGROUP SYSTEM
2 22 23
@<TRIPOS>COMMENT
> <Gold.Version>
2022.3.0

> <Gold.Id.Protein>
unknown|7xmr_cavity_clean|pdb

> <Gold.Protein.RotatedTorsions>
[ 5212 5207 5206 5203 ] final -150.13 input   60.02 | X-H torsion
[ 3657 3648 3647 3646 ] final   40.02 input   60.03 | X-H torsion
[ 4825 4820 4819 4816 ] final  -57.38 input   60.00 | X-H torsion
[ 1545 1538 1536 1533 ] final -135.39 input   60.02 | X-H torsion
[ 4846 4837 4836 4834 ] final  -81.94 input   59.98 | X-H torsion
[ 2091 2080 2079 2078 ] final  -20.23 input   59.99 | X-H torsion
[ 4874 4867 4865 4862 ] final -153.47 input   60.01 | X-H torsion
[ 3728 3717 3716 3715 ] final -168.83 input   59.98 | X-H torsion
[ 2151 2144 2142 2139 ] final  -57.93 input   60.03 | X-H torsion
[ 2175 2168 2166 2163 ] final  -58.14 input   60.03 | X-H torsion
[ 8230 8219 8218 8215 ] final  141.44 input   60.01 | X-H torsion
[ 8231 8220 8221 8222 ] final  -15.81 input  100.72 | X-H torsion
[ 8235 8225 8224 8221 ] final  174.17 input   60.01 | X-H torsion
[ 3801 3791 3782 3781 ] final   60.03 input   60.03 | X-H torsion
[ 2186 2181 2180 2177 ] final  -32.77 input   60.01 | X-H torsion
[ 3142 3136 3134 3131 ] final  -93.19 input   60.00 | X-H torsion
[ 1102 1093 1092 1091 ] final -162.36 input   60.00 | X-H torsion
[ 3163 3152 3151 3150 ] final  -37.06 input   59.99 | X-H torsion
[ 8437 8432 8431 8428 ] final  -83.94 input   59.99 | X-H torsion
[ 3220 3211 3210 3208 ] final   -2.48 input   60.01 | X-H torsion
[ 5037 5032 5031 5028 ] final   50.86 input   60.02 | X-H torsion
[  498  487  486  485 ] final  173.68 input   60.00 | X-H torsion
[ 4492 4485 4483 4480 ] final  172.13 input   60.02 | X-H torsion
[ 5177 5168 5167 5165 ] final  175.57 input   59.98 | X-H torsion
[ 13102 8223 8222 8221 ] final  -69.29 input   -0.00 | X-H torsion

> <Gold.Protein.ActiveResidues>
 ASP20   ARG21   LEU23   ARG24   ASP26   GLY27   GLU28   ALA30   ALA31   ARG32  
 GLU33   VAL34   LYS35   GLU186  ASP193  LEU194  HIS195  LYS197  HIS213  CYS214 
 PHE215  GLU216  GLY217  VAL218  THR219  LYS257  TRP258  PHE259  THR260  ASP261 
 THR262  SER263  ARG313  ASP315  THR316  LYS317  GLU318  TYR320  ASP341  VAL342 
 ILE343  LYS345  ASN346  ASN347  LYS349  ASP350  CYS351  PHE354  MET61   HIS62  
 TRP63   GLY64   THR65   ASP66   ARG68   SER84   TYR85   THR87   SER98   TYR105 
 PRO107  SER108  ASN293  ASN295  ARG314  VAL315  SER316  TRP332  ASP333  SER334 
 PHE335 

> <Gold.Protein.RotatedAtoms>
  124.9305  156.4304  122.1045 H   0  0  0  0  0  0  0  0  0  0  0  0  # atno 498  bound_to 487 
  125.9368  157.6350  122.6381 H   0  0  0  0  0  0  0  0  0  0  0  0  # atno 499  bound_to 487 
  125.0831  156.7230  123.7281 H   0  0  0  0  0  0  0  0  0  0  0  0  # atno 500  bound_to 487 
  123.1668  160.0440  120.3174 H   0  0  0  0  0  0  0  0  0  0  0  0  # atno 1102 bound_to 1093
  123.2800  161.0017  118.9692 H   0  0  0  0  0  0  0  0  0  0  0  0  # atno 1103 bound_to 1093
  124.1466  159.5917  119.0602 H   0  0  0  0  0  0  0  0  0  0  0  0  # atno 1104 bound_to 1093
  129.7699  158.3345  127.3960 H   0  0  0  0  0  0  0  0  0  0  0  0  # atno 1545 bound_to 1538
  111.9822  159.2374  142.3929 H   0  0  0  0  0  0  0  0  0  0  0  0  # atno 2091 bound_to 2080
  111.5844  159.6881  140.8481 H   0  0  0  0  0  0  0  0  0  0  0  0  # atno 2092 bound_to 2080
  110.4083  159.1413  141.8809 H   0  0  0  0  0  0  0  0  0  0  0  0  # atno 2093 bound_to 2080
  120.9941  156.5462  139.7450 H   0  0  0  0  0  0  0  0  0  0  0  0  # atno 2151 bound_to 2144
  123.4132  160.4855  136.5678 H   0  0  0  0  0  0  0  0  0  0  0  0  # atno 2175 bound_to 2168
  129.5891  162.0441  135.1222 H   0  0  0  0  0  0  0  0  0  0  0  0  # atno 2186 bound_to 2181
  126.2196  157.7558  144.9115 H   0  0  0  0  0  0  0  0  0  0  0  0  # atno 3142 bound_to 3136
  122.8219  163.9701  140.6296 H   0  0  0  0  0  0  0  0  0  0  0  0  # atno 3163 bound_to 3152
  123.8286  165.1795  141.1507 H   0  0  0  0  0  0  0  0  0  0  0  0  # atno 3164 bound_to 3152
  123.6454  164.8952  139.5274 H   0  0  0  0  0  0  0  0  0  0  0  0  # atno 3165 bound_to 3152
  135.0993  162.2061  137.8315 H   0  0  0  0  0  0  0  0  0  0  0  0  # atno 3220 bound_to 3211
  137.7381  157.2911  139.9645 H   0  0  0  0  0  0  0  0  0  0  0  0  # atno 3657 bound_to 3648
  138.5695  158.5248  140.6947 H   0  0  0  0  0  0  0  0  0  0  0  0  # atno 3658 bound_to 3648
  137.0897  158.0620  141.2815 H   0  0  0  0  0  0  0  0  0  0  0  0  # atno 3659 bound_to 3648
  128.7846  151.8193  140.9537 H   0  0  0  0  0  0  0  0  0  0  0  0  # atno 3728 bound_to 3717
  130.4388  151.7201  140.9206 H   0  0  0  0  0  0  0  0  0  0  0  0  # atno 3729 bound_to 3717
  129.7014  153.1187  141.4192 H   0  0  0  0  0  0  0  0  0  0  0  0  # atno 3730 bound_to 3717
  134.2690  151.9590  143.4680 H   0  0  0  0  0  0  0  0  0  0  0  0  # atno 3801 bound_to 3791
   93.9102  146.4284  110.8604 H   0  0  0  0  0  0  0  0  0  0  0  0  # atno 4492 bound_to 4485
  103.0574  139.4368  117.5560 H   0  0  0  0  0  0  0  0  0  0  0  0  # atno 4825 bound_to 4820
   97.7495  135.2881  116.2458 H   0  0  0  0  0  0  0  0  0  0  0  0  # atno 4846 bound_to 4837
  109.3685  134.6929  119.7920 H   0  0  0  0  0  0  0  0  0  0  0  0  # atno 4874 bound_to 4867
  118.7232  160.4276  120.9065 H   0  0  0  0  0  0  0  0  0  0  0  0  # atno 5037 bound_to 5032
  101.6652  146.4350  110.2301 H   0  0  0  0  0  0  0  0  0  0  0  0  # atno 5177 bound_to 5168
   95.6119  152.2590  106.8639 H   0  0  0  0  0  0  0  0  0  0  0  0  # atno 5212 bound_to 5207
  108.7181  151.5088  127.8655 H   0  0  0  0  0  0  0  0  0  0  0  0  # atno 8230 bound_to 8219
  132.4303  143.2283  144.3060 H   0  0  0  0  0  0  0  0  0  0  0  0  # atno 8231 bound_to 8220
  131.3524  143.3352  139.2427 H   0  0  0  0  0  0  0  0  0  0  0  0  # atno 8235 bound_to 8225
  117.9935  146.8147  127.5581 H   0  0  0  0  0  0  0  0  0  0  0  0  # atno 8437 bound_to 8432
   97.0368  151.4778  106.9551 LP  0  0  0  0  0  0  0  0  0  0  0  0  # atno 13008 bound_to 5207
   96.1361  151.6984  108.2992 LP  0  0  0  0  0  0  0  0  0  0  0  0  # atno 13009 bound_to 5207
  102.3787  139.1590  119.0087 LP  0  0  0  0  0  0  0  0  0  0  0  0  # atno 13018 bound_to 4820
  102.6726  137.9165  117.9905 LP  0  0  0  0  0  0  0  0  0  0  0  0  # atno 13019 bound_to 4820
  128.3998  159.0239  126.8523 LP  0  0  0  0  0  0  0  0  0  0  0  0  # atno 13022 bound_to 1538
  128.3584  158.0272  128.1451 LP  0  0  0  0  0  0  0  0  0  0  0  0  # atno 13023 bound_to 1538
   97.8633  136.4492  115.1112 LP  0  0  0  0  0  0  0  0  0  0  0  0  # atno 13035 bound_to 4837
   98.2366  136.7830  116.6655 LP  0  0  0  0  0  0  0  0  0  0  0  0  # atno 13036 bound_to 4837
  108.6005  134.1182  118.4771 LP  0  0  0  0  0  0  0  0  0  0  0  0  # atno 13051 bound_to 4867
  108.5602  135.7150  118.8167 LP  0  0  0  0  0  0  0  0  0  0  0  0  # atno 13052 bound_to 4867
  120.9919  155.5238  141.0107 LP  0  0  0  0  0  0  0  0  0  0  0  0  # atno 13069 bound_to 2144
  122.4003  155.9439  140.2991 LP  0  0  0  0  0  0  0  0  0  0  0  0  # atno 13070 bound_to 2144
  123.1719  161.5612  135.3706 LP  0  0  0  0  0  0  0  0  0  0  0  0  # atno 13095 bound_to 2168
  124.1869  161.9170  136.5993 LP  0  0  0  0  0  0  0  0  0  0  0  0  # atno 13096 bound_to 2168
  107.7078  150.4011  128.4981 LP  0  0  0  0  0  0  0  0  0  0  0  0  # atno 13099 bound_to 8219
  109.2505  150.4984  129.0247 LP  0  0  0  0  0  0  0  0  0  0  0  0  # atno 13100 bound_to 8219
  133.4823  142.3309  143.2372 LP  0  0  0  0  0  0  0  0  0  0  0  0  # atno 13101 bound_to 8220
  129.8421  143.5300  143.3409 LP  0  0  0  0  0  0  0  0  0  0  0  0  # atno 13102 bound_to 8223
  130.3156  144.8463  144.3622 LP  0  0  0  0  0  0  0  0  0  0  0  0  # atno 13103 bound_to 8223
  131.7969  144.7440  139.9251 LP  0  0  0  0  0  0  0  0  0  0  0  0  # atno 13104 bound_to 8225
  130.4874  143.9417  140.4804 LP  0  0  0  0  0  0  0  0  0  0  0  0  # atno 13105 bound_to 8225
  133.2385  150.7924  143.6727 LP  0  0  0  0  0  0  0  0  0  0  0  0  # atno 13110 bound_to 3791
  131.1284  161.8756  135.6211 LP  0  0  0  0  0  0  0  0  0  0  0  0  # atno 13119 bound_to 2181
  130.5206  163.3623  135.3260 LP  0  0  0  0  0  0  0  0  0  0  0  0  # atno 13120 bound_to 2181
  125.4344  158.0518  143.5173 LP  0  0  0  0  0  0  0  0  0  0  0  0  # atno 13129 bound_to 3136
  126.6609  159.0214  143.9888 LP  0  0  0  0  0  0  0  0  0  0  0  0  # atno 13130 bound_to 3136
  118.6660  145.9956  126.3235 LP  0  0  0  0  0  0  0  0  0  0  0  0  # atno 13157 bound_to 8432
  117.5279  145.2855  127.2547 LP  0  0  0  0  0  0  0  0  0  0  0  0  # atno 13158 bound_to 8432
  133.9914  162.0978  136.6445 LP  0  0  0  0  0  0  0  0  0  0  0  0  # atno 13185 bound_to 3211
  133.5147  162.2197  138.2016 LP  0  0  0  0  0  0  0  0  0  0  0  0  # atno 13186 bound_to 3211
  119.3785  160.6311  119.4313 LP  0  0  0  0  0  0  0  0  0  0  0  0  # atno 13193 bound_to 5032
  120.1775  159.7791  120.5725 LP  0  0  0  0  0  0  0  0  0  0  0  0  # atno 13194 bound_to 5032
   94.9465  145.2712  111.3457 LP  0  0  0  0  0  0  0  0  0  0  0  0  # atno 13199 bound_to 4485
   95.1585  146.8163  111.8298 LP  0  0  0  0  0  0  0  0  0  0  0  0  # atno 13200 bound_to 4485
  103.1155  146.1938  110.9278 LP  0  0  0  0  0  0  0  0  0  0  0  0  # atno 13215 bound_to 5168
  102.8926  147.4567  109.9168 LP  0  0  0  0  0  0  0  0  0  0  0  0  # atno 13216 bound_to 5168

> <Gold.Score>
     Fitness  S(hb_ext) S(vdw_ext)  S(hb_int)    S(int)      intcor
     40.26       3.30      27.40       0.00      -0.72      -0.76

> <Gold.Goldscore.Fitness>
40.2613

> <Gold.Goldscore.Internal.Vdw>
-1.0845

> <Gold.Goldscore.Internal.Torsion>
-0.3957

> <Gold.Goldscore.External.Vdw>
27.3984

> <Gold.Goldscore.Internal.HBond>
0.0000

> <Gold.Goldscore.External.HBond>
3.3036

> <Gold.Goldscore.Internal.Correction>
-0.7650

> <Gold.Goldscore.Hbonds>
donor molecule, donor type, donor heavy atom, donor atom, acceptor molecule, acceptor atom, score
      P1  H  8184  8196       L1    11  0.55

> <Gold.Goldscore.Internal.Vdw.Weighted>
-1.0845

> <Gold.Goldscore.Internal.Torsion.Weighted>
-0.3957

> <Gold.Goldscore.External.Vdw.Weighted>
37.6728

> <Gold.Goldscore.Internal.HBond.Weighted>
0.0000

> <Gold.Goldscore.External.HBond.Weighted>
3.3036

> <Gold.Goldscore.Internal.Correction.Weighted>
-0.7650

> <Gold.Rescore>
     Score     S(PLP)   S(hbond)     S(cho)   S(metal)  DE(clash)   DE(tors)     intcor
     29.30     -29.78       0.00       0.00       0.00       0.00       0.24       ----

> <Gold.PLP.Fitness>
29.2994

> <Gold.PLP.PLP>
-29.7778

> <Gold.PLP.part.hbond>
-2.0000

> <Gold.PLP.part.metal>
0.0000

> <Gold.PLP.part.buried>
-3.0863

> <Gold.PLP.part.nonpolar>
-26.1641

> <Gold.PLP.part.repulsive>
0.5780

> <Gold.PLP.ligand.clash>
0.0000

> <Gold.PLP.ligand.torsion>
0.2392

> <Gold.PLP.Chemscore.Hbond>
0.0000

> <Gold.PLP.Chemscore.CHOScore>
0.0000

> <Gold.PLP.Chemscore.Metal>
0.0000

> <Gold.Chemscore.Hbonds>
donor molecule, donor type, donor heavy atom, donor atom, acceptor molecule, acceptor atom, score
      P1  H  8184  8196       L1    11  1.00

> <Gold.PLP.Chemscore.Internal.Correction>
   9.000000E+99

