#       Name:                CT1002167954
#       Creating user name   hitesit
#       Creation time:       Sun Apr 16 02:22:51 2023


#       File generated by GOLD software.
#

@<TRIPOS>MOLECULE
CT1002167954|ligand_prepared|mol2|1|dock4
    29    30     1
SMALL
NO_CHARGES


@<TRIPOS>ATOM
      1 C1         122.3156 153.4942 124.0507 C.3            1 RES1               0.0000
      2 C2         121.5711 154.7838 124.4525 C.ar           1 RES1               0.0000
      3 C3         123.7835 153.7203 124.4007 C.2            1 RES1               0.0000
      4 C4         121.6576 152.3612 124.8304 C.2            1 RES1               0.0000
      5 C5         122.2158 153.1586 122.5444 C.3            1 RES1               0.0000
      6 C6         121.3472 155.7925 123.5202 C.ar           1 RES1               0.0000
      7 C7         121.1007 154.9777 125.7486 C.ar           1 RES1               0.0000
      8 N8         124.2810 153.0681 125.4902 N.am           1 RES1               0.0000
      9 O9         124.4834 154.4898 123.7539 O.2            1 RES1               0.0000
     10 N10        122.4074 151.7125 125.7762 N.am           1 RES1               0.0000
     11 O11        120.4914 152.0353 124.6457 O.2            1 RES1               0.0000
     12 C12        122.6387 151.7384 122.2033 C.3            1 RES1               0.0000
     13 C13        120.6748 156.9517 123.8701 C.ar           1 RES1               0.0000
     14 C14        120.4288 156.1378 126.0964 C.ar           1 RES1               0.0000
     15 C15        123.6797 152.0348 126.1629 C.2            1 RES1               0.0000
     16 C16        120.2148 157.1250 125.1581 C.ar           1 RES1               0.0000
     17 O17        124.2690 151.4387 127.0598 O.2            1 RES1               0.0000
     18 H18        121.1791 153.3065 122.2177 H              1 RES1               0.0000
     19 H19        122.8471 153.8592 121.9840 H              1 RES1               0.0000
     20 H20        121.7040 155.6749 122.5024 H              1 RES1               0.0000
     21 H21        121.2586 154.2150 126.5036 H              1 RES1               0.0000
     22 H22        125.1836 153.3772 125.8368 H              1 RES1               0.0000
     23 H23        121.9774 150.9153 126.2344 H              1 RES1               0.0000
     24 H24        122.5496 151.5556 121.1345 H              1 RES1               0.0000
     25 H25        123.6732 151.5641 122.4918 H              1 RES1               0.0000
     26 H26        122.0151 151.0147 122.7241 H              1 RES1               0.0000
     27 H27        120.5102 157.7262 123.1282 H              1 RES1               0.0000
     28 H28        120.0690 156.2702 127.1114 H              1 RES1               0.0000
     29 H29        119.6878 158.0330 125.4318 H              1 RES1               0.0000
@<TRIPOS>BOND
    1    1    2 1     
    2    1    3 1     
    3    1    4 1     
    4    1    5 1     
    5    2    6 ar    
    6    2    7 ar    
    7    3    8 1     
    8    3    9 2     
    9    4   10 1     
   10    4   11 2     
   11    5   12 1     
   12    5   18 1     
   13    5   19 1     
   14    6   13 ar    
   15    6   20 1     
   16    7   14 ar    
   17    7   21 1     
   18    8   15 1     
   19    8   22 1     
   20   10   15 1     
   21   10   23 1     
   22   12   24 1     
   23   12   25 1     
   24   12   26 1     
   25   13   16 ar    
   26   13   27 1     
   27   14   16 ar    
   28   14   28 1     
   29   15   17 2     
   30   16   29 1     
@<TRIPOS>SUBSTRUCTURE
      1 RES1           1
@<TRIPOS>SET
DONOR_HYDROGENS      STATIC     ATOMS    <user>   **** ""
2 22 23
ATOM$RED        STATIC     ATOMS    COLORGROUP SYSTEM
2 22 23
@<TRIPOS>COMMENT
> <Gold.Version>
2022.3.0

> <Gold.Id.Protein>
unknown|7xmr_cavity_clean|pdb

> <Gold.Protein.RotatedTorsions>
[ 5212 5207 5206 5203 ] final   13.08 input   60.02 | X-H torsion
[ 3657 3648 3647 3646 ] final  -19.57 input   60.03 | X-H torsion
[ 4825 4820 4819 4816 ] final  -99.66 input   60.00 | X-H torsion
[ 1545 1538 1536 1533 ] final  144.44 input   60.02 | X-H torsion
[ 4846 4837 4836 4834 ] final   24.72 input   59.98 | X-H torsion
[ 2091 2080 2079 2078 ] final  112.40 input   59.99 | X-H torsion
[ 4874 4867 4865 4862 ] final   76.24 input   60.01 | X-H torsion
[ 3728 3717 3716 3715 ] final  -21.02 input   59.98 | X-H torsion
[ 2151 2144 2142 2139 ] final   37.00 input   60.03 | X-H torsion
[ 2175 2168 2166 2163 ] final   61.40 input   60.03 | X-H torsion
[ 8230 8219 8218 8215 ] final   20.02 input   60.01 | X-H torsion
[ 8231 8220 8221 8222 ] final -140.96 input  100.72 | X-H torsion
[ 8235 8225 8224 8221 ] final  133.40 input   60.01 | X-H torsion
[ 3801 3791 3782 3781 ] final   60.03 input   60.03 | X-H torsion
[ 2186 2181 2180 2177 ] final -160.68 input   60.01 | X-H torsion
[ 3142 3136 3134 3131 ] final  116.92 input   60.00 | X-H torsion
[ 1102 1093 1092 1091 ] final  107.53 input   60.00 | X-H torsion
[ 3163 3152 3151 3150 ] final  176.63 input   59.99 | X-H torsion
[ 8437 8432 8431 8428 ] final -163.47 input   59.99 | X-H torsion
[ 3220 3211 3210 3208 ] final  -49.83 input   60.01 | X-H torsion
[ 5037 5032 5031 5028 ] final -158.26 input   60.02 | X-H torsion
[  498  487  486  485 ] final  -18.94 input   60.00 | X-H torsion
[ 4492 4485 4483 4480 ] final -132.99 input   60.02 | X-H torsion
[ 5177 5168 5167 5165 ] final   65.56 input   59.98 | X-H torsion
[ 13102 8223 8222 8221 ] final -123.72 input   -0.00 | X-H torsion

> <Gold.Protein.ActiveResidues>
 ASP20   ARG21   LEU23   ARG24   ASP26   GLY27   GLU28   ALA30   ALA31   ARG32  
 GLU33   VAL34   LYS35   GLU186  ASP193  LEU194  HIS195  LYS197  HIS213  CYS214 
 PHE215  GLU216  GLY217  VAL218  THR219  LYS257  TRP258  PHE259  THR260  ASP261 
 THR262  SER263  ARG313  ASP315  THR316  LYS317  GLU318  TYR320  ASP341  VAL342 
 ILE343  LYS345  ASN346  ASN347  LYS349  ASP350  CYS351  PHE354  MET61   HIS62  
 TRP63   GLY64   THR65   ASP66   ARG68   SER84   TYR85   THR87   SER98   TYR105 
 PRO107  SER108  ASN293  ASN295  ARG314  VAL315  SER316  TRP332  ASP333  SER334 
 PHE335 

> <Gold.Protein.RotatedAtoms>
  125.8012  157.5314  123.3880 H   0  0  0  0  0  0  0  0  0  0  0  0  # atno 498  bound_to 487 
  124.7313  156.2777  123.2098 H   0  0  0  0  0  0  0  0  0  0  0  0  # atno 499  bound_to 487 
  125.4177  156.9793  121.8737 H   0  0  0  0  0  0  0  0  0  0  0  0  # atno 500  bound_to 487 
  124.0326  159.3994  119.4998 H   0  0  0  0  0  0  0  0  0  0  0  0  # atno 1102 bound_to 1093
  122.9651  160.4720  120.1762 H   0  0  0  0  0  0  0  0  0  0  0  0  # atno 1103 bound_to 1093
  123.5952  160.7661  118.6716 H   0  0  0  0  0  0  0  0  0  0  0  0  # atno 1104 bound_to 1093
  129.0264  159.0037  126.7231 H   0  0  0  0  0  0  0  0  0  0  0  0  # atno 1545 bound_to 1538
  111.3798  159.6673  140.8039 H   0  0  0  0  0  0  0  0  0  0  0  0  # atno 2091 bound_to 2080
  110.4812  159.0906  142.0717 H   0  0  0  0  0  0  0  0  0  0  0  0  # atno 2092 bound_to 2080
  112.1154  159.3093  142.2458 H   0  0  0  0  0  0  0  0  0  0  0  0  # atno 2093 bound_to 2080
  122.3055  156.2007  139.9968 H   0  0  0  0  0  0  0  0  0  0  0  0  # atno 2151 bound_to 2144
  124.1860  161.9071  136.6008 H   0  0  0  0  0  0  0  0  0  0  0  0  # atno 2175 bound_to 2168
  131.1895  161.9894  135.6356 H   0  0  0  0  0  0  0  0  0  0  0  0  # atno 2186 bound_to 2181
  125.6562  158.4432  143.3367 H   0  0  0  0  0  0  0  0  0  0  0  0  # atno 3142 bound_to 3136
  123.8806  165.1829  139.7550 H   0  0  0  0  0  0  0  0  0  0  0  0  # atno 3163 bound_to 3152
  122.8382  163.9711  140.1940 H   0  0  0  0  0  0  0  0  0  0  0  0  # atno 3164 bound_to 3152
  123.5775  164.8912  141.3586 H   0  0  0  0  0  0  0  0  0  0  0  0  # atno 3165 bound_to 3152
  135.0116  162.1451  137.0874 H   0  0  0  0  0  0  0  0  0  0  0  0  # atno 3220 bound_to 3211
  137.0316  157.3902  140.5930 H   0  0  0  0  0  0  0  0  0  0  0  0  # atno 3657 bound_to 3648
  138.5116  157.8615  140.0152 H   0  0  0  0  0  0  0  0  0  0  0  0  # atno 3658 bound_to 3648
  137.8546  158.6257  141.3316 H   0  0  0  0  0  0  0  0  0  0  0  0  # atno 3659 bound_to 3648
  130.5932  152.1276  141.0663 H   0  0  0  0  0  0  0  0  0  0  0  0  # atno 3728 bound_to 3717
  129.2489  153.0414  141.3907 H   0  0  0  0  0  0  0  0  0  0  0  0  # atno 3729 bound_to 3717
  129.0820  151.4881  140.8360 H   0  0  0  0  0  0  0  0  0  0  0  0  # atno 3730 bound_to 3717
  134.2690  151.9590  143.4680 H   0  0  0  0  0  0  0  0  0  0  0  0  # atno 3801 bound_to 3791
   94.3319  147.0443  111.2936 H   0  0  0  0  0  0  0  0  0  0  0  0  # atno 4492 bound_to 4485
  102.8525  139.7604  118.1121 H   0  0  0  0  0  0  0  0  0  0  0  0  # atno 4825 bound_to 4820
   98.2141  136.6075  116.7933 H   0  0  0  0  0  0  0  0  0  0  0  0  # atno 4846 bound_to 4837
  108.5249  134.2397  118.3878 H   0  0  0  0  0  0  0  0  0  0  0  0  # atno 4874 bound_to 4867
  120.2590  159.9100  120.0966 H   0  0  0  0  0  0  0  0  0  0  0  0  # atno 5037 bound_to 5032
  102.9800  146.1043  110.9483 H   0  0  0  0  0  0  0  0  0  0  0  0  # atno 5177 bound_to 5168
   96.7303  151.4197  108.0799 H   0  0  0  0  0  0  0  0  0  0  0  0  # atno 5212 bound_to 5207
  107.7210  150.3911  128.5161 H   0  0  0  0  0  0  0  0  0  0  0  0  # atno 8230 bound_to 8219
  133.8135  142.9606  143.6143 H   0  0  0  0  0  0  0  0  0  0  0  0  # atno 8231 bound_to 8220
  131.8090  143.7979  139.1901 H   0  0  0  0  0  0  0  0  0  0  0  0  # atno 8235 bound_to 8225
  118.6903  146.5763  126.6141 H   0  0  0  0  0  0  0  0  0  0  0  0  # atno 8437 bound_to 8432
   95.4293  152.2289  107.5307 LP  0  0  0  0  0  0  0  0  0  0  0  0  # atno 13008 bound_to 5207
   96.6178  151.7922  106.4994 LP  0  0  0  0  0  0  0  0  0  0  0  0  # atno 13009 bound_to 5207
  102.3136  138.4835  118.9649 LP  0  0  0  0  0  0  0  0  0  0  0  0  # atno 13018 bound_to 4820
  102.9442  138.2661  117.4744 LP  0  0  0  0  0  0  0  0  0  0  0  0  # atno 13019 bound_to 4820
  127.9624  158.3837  127.7867 LP  0  0  0  0  0  0  0  0  0  0  0  0  # atno 13022 bound_to 1538
  129.5447  157.9932  127.8885 LP  0  0  0  0  0  0  0  0  0  0  0  0  # atno 13023 bound_to 1538
   97.7011  135.2624  116.0344 LP  0  0  0  0  0  0  0  0  0  0  0  0  # atno 13035 bound_to 4837
   97.9310  136.6417  115.1911 LP  0  0  0  0  0  0  0  0  0  0  0  0  # atno 13036 bound_to 4837
  108.6441  135.7601  118.9564 LP  0  0  0  0  0  0  0  0  0  0  0  0  # atno 13051 bound_to 4867
  109.3657  134.5294  119.7509 LP  0  0  0  0  0  0  0  0  0  0  0  0  # atno 13052 bound_to 4867
  120.6902  156.3946  139.9707 LP  0  0  0  0  0  0  0  0  0  0  0  0  # atno 13069 bound_to 2144
  121.3808  155.4213  141.0854 LP  0  0  0  0  0  0  0  0  0  0  0  0  # atno 13070 bound_to 2144
  123.4054  160.4794  136.5660 LP  0  0  0  0  0  0  0  0  0  0  0  0  # atno 13095 bound_to 2168
  123.1756  161.5680  135.3707 LP  0  0  0  0  0  0  0  0  0  0  0  0  # atno 13096 bound_to 2168
  109.2649  150.5145  129.0153 LP  0  0  0  0  0  0  0  0  0  0  0  0  # atno 13099 bound_to 8219
  108.6977  151.5106  127.8523 LP  0  0  0  0  0  0  0  0  0  0  0  0  # atno 13100 bound_to 8219
  132.1313  142.5924  143.9129 LP  0  0  0  0  0  0  0  0  0  0  0  0  # atno 13101 bound_to 8220
  129.4355  144.2062  143.2721 LP  0  0  0  0  0  0  0  0  0  0  0  0  # atno 13102 bound_to 8223
  130.7222  144.1701  144.4310 LP  0  0  0  0  0  0  0  0  0  0  0  0  # atno 13103 bound_to 8223
  131.3293  144.7948  140.3833 LP  0  0  0  0  0  0  0  0  0  0  0  0  # atno 13104 bound_to 8225
  130.4954  143.4251  140.0752 LP  0  0  0  0  0  0  0  0  0  0  0  0  # atno 13105 bound_to 8225
  133.2385  150.7924  143.6727 LP  0  0  0  0  0  0  0  0  0  0  0  0  # atno 13110 bound_to 3791
  130.3968  163.3665  135.2863 LP  0  0  0  0  0  0  0  0  0  0  0  0  # atno 13119 bound_to 2181
  129.6400  161.9266  135.1436 LP  0  0  0  0  0  0  0  0  0  0  0  0  # atno 13120 bound_to 2181
  126.8123  158.8366  144.4121 LP  0  0  0  0  0  0  0  0  0  0  0  0  # atno 13129 bound_to 3136
  125.8501  157.5446  144.6794 LP  0  0  0  0  0  0  0  0  0  0  0  0  # atno 13130 bound_to 3136
  117.9074  145.1557  126.7406 LP  0  0  0  0  0  0  0  0  0  0  0  0  # atno 13157 bound_to 8432
  117.5844  146.3656  127.7887 LP  0  0  0  0  0  0  0  0  0  0  0  0  # atno 13158 bound_to 8432
  133.3844  162.1290  137.0959 LP  0  0  0  0  0  0  0  0  0  0  0  0  # atno 13185 bound_to 3211
  134.2100  162.2499  138.4996 LP  0  0  0  0  0  0  0  0  0  0  0  0  # atno 13186 bound_to 3211
  119.0560  160.1571  121.1639 LP  0  0  0  0  0  0  0  0  0  0  0  0  # atno 13193 bound_to 5032
  118.9530  160.7745  119.6557 LP  0  0  0  0  0  0  0  0  0  0  0  0  # atno 13194 bound_to 5032
   94.2380  145.4720  110.8844 LP  0  0  0  0  0  0  0  0  0  0  0  0  # atno 13199 bound_to 4485
   95.4424  145.9954  111.8550 LP  0  0  0  0  0  0  0  0  0  0  0  0  # atno 13200 bound_to 4485
  103.0334  147.4213  109.9937 LP  0  0  0  0  0  0  0  0  0  0  0  0  # atno 13215 bound_to 5168
  101.6511  146.5622  110.1279 LP  0  0  0  0  0  0  0  0  0  0  0  0  # atno 13216 bound_to 5168

> <Gold.Score>
     Fitness  S(hb_ext) S(vdw_ext)  S(hb_int)    S(int)      intcor
     31.88       6.00      19.25       0.00      -0.59      -0.76

> <Gold.Goldscore.Fitness>
31.8798

> <Gold.Goldscore.Internal.Vdw>
-0.6736

> <Gold.Goldscore.Internal.Torsion>
-0.6808

> <Gold.Goldscore.External.Vdw>
19.2503

> <Gold.Goldscore.Internal.HBond>
0.0000

> <Gold.Goldscore.External.HBond>
6.0000

> <Gold.Goldscore.Internal.Correction>
-0.7650

> <Gold.Goldscore.Hbonds>
donor molecule, donor type, donor heavy atom, donor atom, acceptor molecule, acceptor atom, score
      P1  H   487   499       L1     9  1.00

> <Gold.Goldscore.Internal.Vdw.Weighted>
-0.6736

> <Gold.Goldscore.Internal.Torsion.Weighted>
-0.6808

> <Gold.Goldscore.External.Vdw.Weighted>
26.4692

> <Gold.Goldscore.Internal.HBond.Weighted>
0.0000

> <Gold.Goldscore.External.HBond.Weighted>
6.0000

> <Gold.Goldscore.Internal.Correction.Weighted>
-0.7650

> <Gold.Rescore>
     Score     S(PLP)   S(hbond)     S(cho)   S(metal)  DE(clash)   DE(tors)     intcor
     32.31     -31.22       0.59       0.00       0.00       0.00       0.34       ----

> <Gold.PLP.Fitness>
32.3139

> <Gold.PLP.PLP>
-31.2174

> <Gold.PLP.part.hbond>
-1.3769

> <Gold.PLP.part.metal>
0.0000

> <Gold.PLP.part.buried>
-3.7817

> <Gold.PLP.part.nonpolar>
-26.6744

> <Gold.PLP.part.repulsive>
0.3923

> <Gold.PLP.ligand.clash>
0.0000

> <Gold.PLP.ligand.torsion>
0.3439

> <Gold.PLP.Chemscore.Hbond>
0.5947

> <Gold.PLP.Chemscore.CHOScore>
0.0000

> <Gold.PLP.Chemscore.Metal>
0.0000

> <Gold.Chemscore.Hbonds>
donor molecule, donor type, donor heavy atom, donor atom, acceptor molecule, acceptor atom, score
      P1  H   487   499       L1     9  1.00

> <Gold.PLP.Chemscore.Internal.Correction>
   9.000000E+99

