#       Name:                CT1002167954
#       Creating user name   hitesit
#       Creation time:       Sun Apr 16 20:20:14 2023


#       File generated by GOLD software.
#

@<TRIPOS>MOLECULE
CT1002167954|ligand_prepared|mol2|1|dock10
    29    30     1
SMALL
NO_CHARGES


@<TRIPOS>ATOM
      1 C1         209.3706  54.1032  67.0673 C.3            1 RES1               0.0000
      2 C2         209.1431  54.7942  65.7073 C.ar           1 RES1               0.0000
      3 C3         210.7064  53.3738  66.9590 C.2            1 RES1               0.0000
      4 C4         209.3489  55.2091  68.1166 C.2            1 RES1               0.0000
      5 C5         208.2772  53.0736  67.4357 C.3            1 RES1               0.0000
      6 C6         209.9875  55.8149  65.2810 C.ar           1 RES1               0.0000
      7 C7         208.0964  54.4208  64.8684 C.ar           1 RES1               0.0000
      8 N8         211.7731  53.9072  67.6205 N.am           1 RES1               0.0000
      9 O9         210.8313  52.3678  66.2715 O.2            1 RES1               0.0000
     10 N10        210.5078  55.4682  68.8005 N.am           1 RES1               0.0000
     11 O11        208.3433  55.8697  68.3456 O.2            1 RES1               0.0000
     12 C12        208.4454  52.4697  68.8210 C.3            1 RES1               0.0000
     13 C13        209.7946  56.4377  64.0590 C.ar           1 RES1               0.0000
     14 C14        207.9051  55.0451  63.6469 C.ar           1 RES1               0.0000
     15 C15        211.7270  54.8881  68.5784 C.2            1 RES1               0.0000
     16 C16        208.7537  56.0530  63.2410 C.ar           1 RES1               0.0000
     17 O17        212.7361  55.2128  69.1975 O.2            1 RES1               0.0000
     18 H18        207.2975  53.5641  67.3809 H              1 RES1               0.0000
     19 H19        208.2893  52.2651  66.6943 H              1 RES1               0.0000
     20 H20        210.8106  56.1328  65.9123 H              1 RES1               0.0000
     21 H21        207.4157  53.6310  65.1676 H              1 RES1               0.0000
     22 H22        212.6898  53.5433  67.3808 H              1 RES1               0.0000
     23 H23        210.4568  56.1571  69.5442 H              1 RES1               0.0000
     24 H24        207.6525  51.7543  69.0288 H              1 RES1               0.0000
     25 H25        209.3989  51.9519  68.9029 H              1 RES1               0.0000
     26 H26        208.4130  53.2432  69.5855 H              1 RES1               0.0000
     27 H27        210.4644  57.2314  63.7448 H              1 RES1               0.0000
     28 H28        207.0842  54.7395  63.0066 H              1 RES1               0.0000
     29 H29        208.6029  56.5408  62.2837 H              1 RES1               0.0000
@<TRIPOS>BOND
    1    1    2 1     
    2    1    3 1     
    3    1    4 1     
    4    1    5 1     
    5    2    6 ar    
    6    2    7 ar    
    7    3    8 1     
    8    3    9 2     
    9    4   10 1     
   10    4   11 2     
   11    5   12 1     
   12    5   18 1     
   13    5   19 1     
   14    6   13 ar    
   15    6   20 1     
   16    7   14 ar    
   17    7   21 1     
   18    8   15 1     
   19    8   22 1     
   20   10   15 1     
   21   10   23 1     
   22   12   24 1     
   23   12   25 1     
   24   12   26 1     
   25   13   16 ar    
   26   13   27 1     
   27   14   16 ar    
   28   14   28 1     
   29   15   17 2     
   30   16   29 1     
@<TRIPOS>SUBSTRUCTURE
      1 RES1           1
@<TRIPOS>SET
DONOR_HYDROGENS      STATIC     ATOMS    <user>   **** ""
2 22 23
ATOM$RED        STATIC     ATOMS    COLORGROUP SYSTEM
2 22 23
@<TRIPOS>COMMENT
> <Gold.Version>
2022.3.0

> <Gold.Id.Protein>
unknown|4d1n_clean|pdb

> <Gold.Protein.RotatedTorsions>
[ 9562 9508 9507 9505 ] final   83.97 input   60.00 | X-H torsion
[ 7906 7874 7873 7870 ] final    8.93 input   60.00 | X-H torsion

> <Gold.Protein.ActiveResidues>
 ASP403  THR404  ILE407  TYR408  ALA410  LYS411  TRP414  GLN425  TRP426  SER427 
 LYS428  LEU429  GLN430  VAL431  PHE432  ASP433  TYR453  SER462  ALA463  ILE464 

> <Gold.Protein.RotatedAtoms>
  204.8035   50.5692   61.8708 H   0  0  0  0  0  0  0  0  0  0  0  0  # atno 7906 bound_to 7874
  209.1495   52.1456   72.7552 H   0  0  0  0  0  0  0  0  0  0  0  0  # atno 9562 bound_to 9508
  207.9431   52.4833   73.7937 LP  0  0  0  0  0  0  0  0  0  0  0  0  # atno 27207 bound_to 9508
  207.9451   51.0729   72.9707 LP  0  0  0  0  0  0  0  0  0  0  0  0  # atno 27208 bound_to 9508
  204.6324   50.5463   60.2530 LP  0  0  0  0  0  0  0  0  0  0  0  0  # atno 27219 bound_to 7874
  205.0649   51.9260   61.0118 LP  0  0  0  0  0  0  0  0  0  0  0  0  # atno 27220 bound_to 7874

> <Gold.Score>
     Fitness  S(hb_ext) S(vdw_ext)  S(hb_int)    S(int)      intcor
     19.86       0.00      14.48       0.00      -0.05      -0.76

> <Gold.Goldscore.Fitness>
19.8613

> <Gold.Goldscore.Internal.Vdw>
-0.4171

> <Gold.Goldscore.Internal.Torsion>
-0.3959

> <Gold.Goldscore.External.Vdw>
14.4842

> <Gold.Goldscore.Internal.HBond>
0.0000

> <Gold.Goldscore.External.HBond>
0.0000

> <Gold.Goldscore.Internal.Correction>
-0.7585

> <Gold.Goldscore.Internal.Vdw.Weighted>
-0.4171

> <Gold.Goldscore.Internal.Torsion.Weighted>
-0.3959

> <Gold.Goldscore.External.Vdw.Weighted>
19.9158

> <Gold.Goldscore.Internal.HBond.Weighted>
0.0000

> <Gold.Goldscore.External.HBond.Weighted>
0.0000

> <Gold.Goldscore.Internal.Correction.Weighted>
-0.7585

> <Gold.Rescore>
     Score     S(PLP)   S(hbond)     S(cho)   S(metal)  DE(clash)   DE(tors)     intcor
     22.28     -14.77       2.53       0.00       0.00       0.00       0.04       ----

> <Gold.PLP.Fitness>
22.2766

> <Gold.PLP.PLP>
-14.7714

> <Gold.PLP.part.hbond>
-3.0000

> <Gold.PLP.part.metal>
0.0000

> <Gold.PLP.part.buried>
-4.4163

> <Gold.PLP.part.nonpolar>
-9.7435

> <Gold.PLP.part.repulsive>
1.0783

> <Gold.PLP.ligand.clash>
0.0000

> <Gold.PLP.ligand.torsion>
0.0394

> <Gold.PLP.Chemscore.Hbond>
2.5280

> <Gold.PLP.Chemscore.CHOScore>
0.0000

> <Gold.PLP.Chemscore.Metal>
0.0000

> <Gold.Chemscore.Hbonds>
donor molecule, donor type, donor heavy atom, donor atom, acceptor molecule, acceptor atom, score
      P1  H  6785  6837       L1     9  0.26

> <Gold.PLP.Chemscore.Internal.Correction>
   9.000000E+99

