#       Name:                CT1002167954
#       Creating user name   hitesit
#       Creation time:       Sun Apr 16 20:20:14 2023


#       File generated by GOLD software.
#

@<TRIPOS>MOLECULE
CT1002167954|ligand_prepared|mol2|1|dock9
    29    30     1
SMALL
NO_CHARGES


@<TRIPOS>ATOM
      1 C1         208.3663  53.1858  67.3953 C.3            1 RES1               0.0000
      2 C2         209.7466  53.8683  67.3083 C.ar           1 RES1               0.0000
      3 C3         207.3580  54.2938  67.6853 C.2            1 RES1               0.0000
      4 C4         208.1523  52.4842  66.0586 C.2            1 RES1               0.0000
      5 C5         208.2640  52.1233  68.5143 C.3            1 RES1               0.0000
      6 C6         209.9133  55.0392  66.5748 C.ar           1 RES1               0.0000
      7 C7         210.8601  53.3413  67.9571 C.ar           1 RES1               0.0000
      8 N8         206.5396  54.6856  66.6672 N.am           1 RES1               0.0000
      9 O9         207.3087  54.8426  68.7792 O.2            1 RES1               0.0000
     10 N10        207.1425  52.9367  65.2504 N.am           1 RES1               0.0000
     11 O11        208.8597  51.5544  65.6907 O.2            1 RES1               0.0000
     12 C12        206.8717  51.5333  68.6742 C.3            1 RES1               0.0000
     13 C13        211.1476  55.6623  66.4952 C.ar           1 RES1               0.0000
     14 C14        212.0937  53.9660  67.8761 C.ar           1 RES1               0.0000
     15 C15        206.3462  54.0253  65.4805 C.2            1 RES1               0.0000
     16 C16        212.2384  55.1265  67.1461 C.ar           1 RES1               0.0000
     17 O17        205.4953  54.4029  64.6801 O.2            1 RES1               0.0000
     18 H18        208.9686  51.3114  68.2958 H              1 RES1               0.0000
     19 H19        208.5646  52.5814  69.4647 H              1 RES1               0.0000
     20 H20        209.0668  55.4742  66.0539 H              1 RES1               0.0000
     21 H21        210.7700  52.4286  68.5363 H              1 RES1               0.0000
     22 H22        206.0237  55.5496  66.8005 H              1 RES1               0.0000
     23 H23        206.9681  52.4134  64.3982 H              1 RES1               0.0000
     24 H24        206.8554  50.7938  69.4720 H              1 RES1               0.0000
     25 H25        206.1492  52.3098  68.9170 H              1 RES1               0.0000
     26 H26        206.5508  51.0474  67.7551 H              1 RES1               0.0000
     27 H27        211.2566  56.5748  65.9183 H              1 RES1               0.0000
     28 H28        212.9496  53.5404  68.3894 H              1 RES1               0.0000
     29 H29        213.2052  55.6151  67.0839 H              1 RES1               0.0000
@<TRIPOS>BOND
    1    1    2 1     
    2    1    3 1     
    3    1    4 1     
    4    1    5 1     
    5    2    6 ar    
    6    2    7 ar    
    7    3    8 1     
    8    3    9 2     
    9    4   10 1     
   10    4   11 2     
   11    5   12 1     
   12    5   18 1     
   13    5   19 1     
   14    6   13 ar    
   15    6   20 1     
   16    7   14 ar    
   17    7   21 1     
   18    8   15 1     
   19    8   22 1     
   20   10   15 1     
   21   10   23 1     
   22   12   24 1     
   23   12   25 1     
   24   12   26 1     
   25   13   16 ar    
   26   13   27 1     
   27   14   16 ar    
   28   14   28 1     
   29   15   17 2     
   30   16   29 1     
@<TRIPOS>SUBSTRUCTURE
      1 RES1           1
@<TRIPOS>SET
DONOR_HYDROGENS      STATIC     ATOMS    <user>   **** ""
2 22 23
ATOM$RED        STATIC     ATOMS    COLORGROUP SYSTEM
2 22 23
@<TRIPOS>COMMENT
> <Gold.Version>
2022.3.0

> <Gold.Id.Protein>
unknown|4d1n_clean|pdb

> <Gold.Protein.RotatedTorsions>
[ 9562 9508 9507 9505 ] final   69.11 input   60.00 | X-H torsion
[ 7906 7874 7873 7870 ] final   65.73 input   60.00 | X-H torsion

> <Gold.Protein.ActiveResidues>
 ASP403  THR404  ILE407  TYR408  ALA410  LYS411  TRP414  GLN425  TRP426  SER427 
 LYS428  LEU429  GLN430  VAL431  PHE432  ASP433  TYR453  SER462  ALA463  ILE464 

> <Gold.Protein.RotatedAtoms>
  205.0252   51.4315   61.8620 H   0  0  0  0  0  0  0  0  0  0  0  0  # atno 7906 bound_to 7874
  209.1225   52.3448   72.8902 H   0  0  0  0  0  0  0  0  0  0  0  0  # atno 9562 bound_to 9508
  207.7776   52.3046   73.8055 LP  0  0  0  0  0  0  0  0  0  0  0  0  # atno 27207 bound_to 9508
  208.1378   51.0510   72.8229 LP  0  0  0  0  0  0  0  0  0  0  0  0  # atno 27208 bound_to 9508
  204.5956   50.1006   61.0305 LP  0  0  0  0  0  0  0  0  0  0  0  0  # atno 27219 bound_to 7874
  204.8784   51.5030   60.2432 LP  0  0  0  0  0  0  0  0  0  0  0  0  # atno 27220 bound_to 7874

> <Gold.Score>
     Fitness  S(hb_ext) S(vdw_ext)  S(hb_int)    S(int)      intcor
     27.09       0.74      19.37       0.00      -0.29      -0.76

> <Gold.Goldscore.Fitness>
27.0902

> <Gold.Goldscore.Internal.Vdw>
-0.6395

> <Gold.Goldscore.Internal.Torsion>
-0.4048

> <Gold.Goldscore.External.Vdw>
19.3747

> <Gold.Goldscore.Internal.HBond>
0.0000

> <Gold.Goldscore.External.HBond>
0.7358

> <Gold.Goldscore.Internal.Correction>
-0.7585

> <Gold.Goldscore.Hbonds>
donor molecule, donor type, donor heavy atom, donor atom, acceptor molecule, acceptor atom, score
      P1  H  8001  8055       L1    11  0.21
      L1  H    10    23       P1  7872  0.15

> <Gold.Goldscore.Internal.Vdw.Weighted>
-0.6395

> <Gold.Goldscore.Internal.Torsion.Weighted>
-0.4048

> <Gold.Goldscore.External.Vdw.Weighted>
26.6402

> <Gold.Goldscore.Internal.HBond.Weighted>
0.0000

> <Gold.Goldscore.External.HBond.Weighted>
0.7358

> <Gold.Goldscore.Internal.Correction.Weighted>
-0.7585

> <Gold.Rescore>
     Score     S(PLP)   S(hbond)     S(cho)   S(metal)  DE(clash)   DE(tors)     intcor
     21.68     -17.67       2.00       0.00       0.00       0.00       0.99       ----

> <Gold.PLP.Fitness>
21.6803

> <Gold.PLP.PLP>
-17.6692

> <Gold.PLP.part.hbond>
-2.7151

> <Gold.PLP.part.metal>
0.0000

> <Gold.PLP.part.buried>
-3.7629

> <Gold.PLP.part.nonpolar>
-14.0659

> <Gold.PLP.part.repulsive>
2.5441

> <Gold.PLP.ligand.clash>
0.0000

> <Gold.PLP.ligand.torsion>
0.9945

> <Gold.PLP.Chemscore.Hbond>
2.0000

> <Gold.PLP.Chemscore.CHOScore>
0.0000

> <Gold.PLP.Chemscore.Metal>
0.0000

> <Gold.Chemscore.Hbonds>
donor molecule, donor type, donor heavy atom, donor atom, acceptor molecule, acceptor atom, score
      L1  H    10    23       P1  7872  0.69
      P1  H  8001  8055       L1    11  0.26

> <Gold.PLP.Chemscore.Internal.Correction>
   9.000000E+99

