#       Name:                CT1002167954
#       Creating user name   hitesit
#       Creation time:       Sun Apr 16 20:20:13 2023


#       File generated by GOLD software.
#

@<TRIPOS>MOLECULE
CT1002167954|ligand_prepared|mol2|1|dock8
    29    30     1
SMALL
NO_CHARGES


@<TRIPOS>ATOM
      1 C1         215.2825  55.4676  71.8104 C.3            1 RES1               0.0000
      2 C2         214.6647  55.1920  73.1965 C.ar           1 RES1               0.0000
      3 C3         215.8357  54.1345  71.3153 C.2            1 RES1               0.0000
      4 C4         214.1600  56.0341  70.9481 C.2            1 RES1               0.0000
      5 C5         216.4343  56.4992  71.8336 C.3            1 RES1               0.0000
      6 C6         215.4739  55.0788  74.3231 C.ar           1 RES1               0.0000
      7 C7         213.2897  55.0516  73.3645 C.ar           1 RES1               0.0000
      8 N8         215.1507  53.4949  70.3246 N.am           1 RES1               0.0000
      9 O9         216.8359  53.6330  71.8138 O.2            1 RES1               0.0000
     10 N10        213.7344  55.2907  69.8785 N.am           1 RES1               0.0000
     11 O11        213.6289  57.1099  71.1950 O.2            1 RES1               0.0000
     12 C12        216.8661  56.9672  70.4528 C.3            1 RES1               0.0000
     13 C13        214.9280  54.8369  75.5729 C.ar           1 RES1               0.0000
     14 C14        212.7459  54.8095  74.6152 C.ar           1 RES1               0.0000
     15 C15        214.1578  54.0329  69.5457 C.2            1 RES1               0.0000
     16 C16        213.5639  54.7025  75.7198 C.ar           1 RES1               0.0000
     17 O17        213.6882  53.4058  68.6006 O.2            1 RES1               0.0000
     18 H18        216.1157  57.3711  72.4183 H              1 RES1               0.0000
     19 H19        217.2982  56.0527  72.3412 H              1 RES1               0.0000
     20 H20        216.5498  55.1792  74.2265 H              1 RES1               0.0000
     21 H21        212.6270  55.1308  72.5094 H              1 RES1               0.0000
     22 H22        215.3995  52.5271  70.1464 H              1 RES1               0.0000
     23 H23        213.0374  55.7144  69.2743 H              1 RES1               0.0000
     24 H24        217.6764  57.6896  70.5263 H              1 RES1               0.0000
     25 H25        217.2131  56.1288  69.8524 H              1 RES1               0.0000
     26 H26        216.0376  57.4393  69.9289 H              1 RES1               0.0000
     27 H27        215.5762  54.7522  76.4389 H              1 RES1               0.0000
     28 H28        211.6718  54.7038  74.7261 H              1 RES1               0.0000
     29 H29        213.1365  54.5134  76.6990 H              1 RES1               0.0000
@<TRIPOS>BOND
    1    1    2 1     
    2    1    3 1     
    3    1    4 1     
    4    1    5 1     
    5    2    6 ar    
    6    2    7 ar    
    7    3    8 1     
    8    3    9 2     
    9    4   10 1     
   10    4   11 2     
   11    5   12 1     
   12    5   18 1     
   13    5   19 1     
   14    6   13 ar    
   15    6   20 1     
   16    7   14 ar    
   17    7   21 1     
   18    8   15 1     
   19    8   22 1     
   20   10   15 1     
   21   10   23 1     
   22   12   24 1     
   23   12   25 1     
   24   12   26 1     
   25   13   16 ar    
   26   13   27 1     
   27   14   16 ar    
   28   14   28 1     
   29   15   17 2     
   30   16   29 1     
@<TRIPOS>SUBSTRUCTURE
      1 RES1           1
@<TRIPOS>SET
DONOR_HYDROGENS      STATIC     ATOMS    <user>   **** ""
2 22 23
ATOM$RED        STATIC     ATOMS    COLORGROUP SYSTEM
2 22 23
@<TRIPOS>COMMENT
> <Gold.Version>
2022.3.0

> <Gold.Id.Protein>
unknown|4d1n_clean|pdb

> <Gold.Protein.RotatedTorsions>
[ 9562 9508 9507 9505 ] final  -48.01 input   60.00 | X-H torsion
[ 7906 7874 7873 7870 ] final    2.25 input   60.00 | X-H torsion

> <Gold.Protein.ActiveResidues>
 ASP403  THR404  ILE407  TYR408  ALA410  LYS411  TRP414  GLN425  TRP426  SER427 
 LYS428  LEU429  GLN430  VAL431  PHE432  ASP433  TYR453  SER462  ALA463  ILE464 

> <Gold.Protein.RotatedAtoms>
  204.7749   50.4803   61.8147 H   0  0  0  0  0  0  0  0  0  0  0  0  # atno 7906 bound_to 7874
  207.8122   52.3375   73.8042 H   0  0  0  0  0  0  0  0  0  0  0  0  # atno 9562 bound_to 9508
  208.0989   51.0508   72.8501 LP  0  0  0  0  0  0  0  0  0  0  0  0  # atno 27207 bound_to 9508
  209.1359   52.3122   72.8581 LP  0  0  0  0  0  0  0  0  0  0  0  0  # atno 27208 bound_to 9508
  204.6515   50.6406   60.2003 LP  0  0  0  0  0  0  0  0  0  0  0  0  # atno 27219 bound_to 7874
  205.0747   51.9212   61.1210 LP  0  0  0  0  0  0  0  0  0  0  0  0  # atno 27220 bound_to 7874

> <Gold.Score>
     Fitness  S(hb_ext) S(vdw_ext)  S(hb_int)    S(int)      intcor
     18.45       2.54      12.31       0.00      -1.02      -0.76

> <Gold.Goldscore.Fitness>
18.4477

> <Gold.Goldscore.Internal.Vdw>
-1.2263

> <Gold.Goldscore.Internal.Torsion>
-0.5492

> <Gold.Goldscore.External.Vdw>
12.3062

> <Gold.Goldscore.Internal.HBond>
0.0000

> <Gold.Goldscore.External.HBond>
2.5436

> <Gold.Goldscore.Internal.Correction>
-0.7585

> <Gold.Goldscore.Hbonds>
donor molecule, donor type, donor heavy atom, donor atom, acceptor molecule, acceptor atom, score
      P1  H  8145  8191       L1    17  0.88
      L1  H     8    22       P1  8148  0.39

> <Gold.Goldscore.Internal.Vdw.Weighted>
-1.2263

> <Gold.Goldscore.Internal.Torsion.Weighted>
-0.5492

> <Gold.Goldscore.External.Vdw.Weighted>
16.9210

> <Gold.Goldscore.Internal.HBond.Weighted>
0.0000

> <Gold.Goldscore.External.HBond.Weighted>
2.5436

> <Gold.Goldscore.Internal.Correction.Weighted>
-0.7585

> <Gold.Rescore>
     Score     S(PLP)   S(hbond)     S(cho)   S(metal)  DE(clash)   DE(tors)     intcor
     19.30     -15.04       1.93       0.00       0.00       1.21       0.16       ----

> <Gold.PLP.Fitness>
19.2980

> <Gold.PLP.PLP>
-15.0385

> <Gold.PLP.part.hbond>
-3.0000

> <Gold.PLP.part.metal>
0.0000

> <Gold.PLP.part.buried>
-3.7637

> <Gold.PLP.part.nonpolar>
-9.5759

> <Gold.PLP.part.repulsive>
0.6765

> <Gold.PLP.ligand.clash>
1.2068

> <Gold.PLP.ligand.torsion>
0.1588

> <Gold.PLP.Chemscore.Hbond>
1.9280

> <Gold.PLP.Chemscore.CHOScore>
0.0000

> <Gold.PLP.Chemscore.Metal>
0.0000

> <Gold.Chemscore.Hbonds>
donor molecule, donor type, donor heavy atom, donor atom, acceptor molecule, acceptor atom, score
      L1  H     8    22       P1  8148  0.71
      P1  H  8145  8191       L1    17  1.00

> <Gold.PLP.Chemscore.Internal.Correction>
   9.000000E+99

