#       Name:                CT1002167954
#       Creating user name   hitesit
#       Creation time:       Sun Apr 16 20:20:11 2023


#       File generated by GOLD software.
#

@<TRIPOS>MOLECULE
CT1002167954|ligand_prepared|mol2|1|dock2
    29    30     1
SMALL
NO_CHARGES


@<TRIPOS>ATOM
      1 C1         209.6370  54.2817  68.0512 C.3            1 RES1               0.0000
      2 C2         208.7620  53.5894  69.1160 C.ar           1 RES1               0.0000
      3 C3         210.8986  54.7490  68.7711 C.2            1 RES1               0.0000
      4 C4         209.8896  53.2420  66.9649 C.2            1 RES1               0.0000
      5 C5         208.9650  55.5083  67.3914 C.3            1 RES1               0.0000
      6 C6         208.0511  54.3411  70.0468 C.ar           1 RES1               0.0000
      7 C7         208.6538  52.2027  69.1783 C.ar           1 RES1               0.0000
      8 N8         212.0507  54.0564  68.5410 N.am           1 RES1               0.0000
      9 O9         210.8745  55.6864  69.5592 O.2            1 RES1               0.0000
     10 N10        211.1748  52.8030  66.7827 N.am           1 RES1               0.0000
     11 O11        208.9847  52.7867  66.2764 O.2            1 RES1               0.0000
     12 C12        209.7118  56.0373  66.1770 C.3            1 RES1               0.0000
     13 C13        207.2584  53.7288  71.0034 C.ar           1 RES1               0.0000
     14 C14        207.8607  51.5924  70.1359 C.ar           1 RES1               0.0000
     15 C15        212.2620  53.1404  67.5420 C.2            1 RES1               0.0000
     16 C16        207.1623  52.3543  71.0483 C.ar           1 RES1               0.0000
     17 O17        213.3761  52.6616  67.3507 O.2            1 RES1               0.0000
     18 H18        207.9475  55.2328  67.0879 H              1 RES1               0.0000
     19 H19        208.8873  56.3109  68.1352 H              1 RES1               0.0000
     20 H20        208.1163  55.4239  70.0285 H              1 RES1               0.0000
     21 H21        209.1952  51.5832  68.4713 H              1 RES1               0.0000
     22 H22        212.8269  54.2362  69.1698 H              1 RES1               0.0000
     23 H23        211.3361  52.1658  66.0092 H              1 RES1               0.0000
     24 H24        209.1980  56.8973  65.7527 H              1 RES1               0.0000
     25 H25        210.7199  56.3443  66.4477 H              1 RES1               0.0000
     26 H26        209.7858  55.2726  65.4065 H              1 RES1               0.0000
     27 H27        206.7118  54.3328  71.7201 H              1 RES1               0.0000
     28 H28        207.7885  50.5103  70.1679 H              1 RES1               0.0000
     29 H29        206.5409  51.8749  71.7975 H              1 RES1               0.0000
@<TRIPOS>BOND
    1    1    2 1     
    2    1    3 1     
    3    1    4 1     
    4    1    5 1     
    5    2    6 ar    
    6    2    7 ar    
    7    3    8 1     
    8    3    9 2     
    9    4   10 1     
   10    4   11 2     
   11    5   12 1     
   12    5   18 1     
   13    5   19 1     
   14    6   13 ar    
   15    6   20 1     
   16    7   14 ar    
   17    7   21 1     
   18    8   15 1     
   19    8   22 1     
   20   10   15 1     
   21   10   23 1     
   22   12   24 1     
   23   12   25 1     
   24   12   26 1     
   25   13   16 ar    
   26   13   27 1     
   27   14   16 ar    
   28   14   28 1     
   29   15   17 2     
   30   16   29 1     
@<TRIPOS>SUBSTRUCTURE
      1 RES1           1
@<TRIPOS>SET
DONOR_HYDROGENS      STATIC     ATOMS    <user>   **** ""
2 22 23
ATOM$RED        STATIC     ATOMS    COLORGROUP SYSTEM
2 22 23
@<TRIPOS>COMMENT
> <Gold.Version>
2022.3.0

> <Gold.Id.Protein>
unknown|4d1n_clean|pdb

> <Gold.Protein.RotatedTorsions>
[ 9562 9508 9507 9505 ] final   32.43 input   60.00 | X-H torsion
[ 7906 7874 7873 7870 ] final   -5.13 input   60.00 | X-H torsion

> <Gold.Protein.ActiveResidues>
 ASP403  THR404  ILE407  TYR408  ALA410  LYS411  TRP414  GLN425  TRP426  SER427 
 LYS428  LEU429  GLN430  VAL431  PHE432  ASP433  TYR453  SER462  ALA463  ILE464 

> <Gold.Protein.RotatedAtoms>
  204.7442   50.3904   61.7404 H   0  0  0  0  0  0  0  0  0  0  0  0  # atno 7906 bound_to 7874
  208.8459   52.6861   73.2828 H   0  0  0  0  0  0  0  0  0  0  0  0  # atno 9562 bound_to 9508
  207.5495   51.7771   73.6582 LP  0  0  0  0  0  0  0  0  0  0  0  0  # atno 27207 bound_to 9508
  208.6445   51.2348   72.5749 LP  0  0  0  0  0  0  0  0  0  0  0  0  # atno 27208 bound_to 9508
  204.6754   50.7510   60.1554 LP  0  0  0  0  0  0  0  0  0  0  0  0  # atno 27219 bound_to 7874
  205.0816   51.9015   61.2407 LP  0  0  0  0  0  0  0  0  0  0  0  0  # atno 27220 bound_to 7874

> <Gold.Score>
     Fitness  S(hb_ext) S(vdw_ext)  S(hb_int)    S(int)      intcor
     25.84       0.32      19.43       0.00      -1.19      -0.79

> <Gold.Goldscore.Fitness>
25.8407

> <Gold.Goldscore.Internal.Vdw>
-1.4457

> <Gold.Goldscore.Internal.Torsion>
-0.5337

> <Gold.Goldscore.External.Vdw>
19.4305

> <Gold.Goldscore.Internal.HBond>
0.0000

> <Gold.Goldscore.External.HBond>
0.3183

> <Gold.Goldscore.Internal.Correction>
-0.7850

> <Gold.Goldscore.Hbonds>
donor molecule, donor type, donor heavy atom, donor atom, acceptor molecule, acceptor atom, score
      P1  H  8001  8055       L1    11  0.02
      P1  H  8084  8134       L1     9  0.08
      P1  H  8145  8191       L1    17  0.06

> <Gold.Goldscore.Internal.Vdw.Weighted>
-1.4457

> <Gold.Goldscore.Internal.Torsion.Weighted>
-0.5337

> <Gold.Goldscore.External.Vdw.Weighted>
26.7169

> <Gold.Goldscore.Internal.HBond.Weighted>
0.0000

> <Gold.Goldscore.External.HBond.Weighted>
0.3183

> <Gold.Goldscore.Internal.Correction.Weighted>
-0.7850

> <Gold.Rescore>
     Score     S(PLP)   S(hbond)     S(cho)   S(metal)  DE(clash)   DE(tors)     intcor
     24.85     -20.30       2.10       0.00       0.00       1.14       0.30       ----

> <Gold.PLP.Fitness>
24.8488

> <Gold.PLP.PLP>
-20.3039

> <Gold.PLP.part.hbond>
-3.8748

> <Gold.PLP.part.metal>
0.0000

> <Gold.PLP.part.buried>
-0.6660

> <Gold.PLP.part.nonpolar>
-17.7592

> <Gold.PLP.part.repulsive>
2.4902

> <Gold.PLP.ligand.clash>
1.1424

> <Gold.PLP.ligand.torsion>
0.3004

> <Gold.PLP.Chemscore.Hbond>
2.0960

> <Gold.PLP.Chemscore.CHOScore>
0.0000

> <Gold.PLP.Chemscore.Metal>
0.0000

> <Gold.Chemscore.Hbonds>
donor molecule, donor type, donor heavy atom, donor atom, acceptor molecule, acceptor atom, score
      P1  H  8001  8055       L1    11  0.10
      P1  H  8084  8134       L1     9  0.29
      P1  H  8145  8191       L1    17  0.85

> <Gold.PLP.Chemscore.Internal.Correction>
   9.000000E+99

