#       Name:                CT1002167954
#       Creating user name   hitesit
#       Creation time:       Sun Apr 16 20:20:12 2023


#       File generated by GOLD software.
#

@<TRIPOS>MOLECULE
CT1002167954|ligand_prepared|mol2|1|dock5
    29    30     1
SMALL
NO_CHARGES


@<TRIPOS>ATOM
      1 C1         206.6140  53.8226  69.9274 C.3            1 RES1               0.0000
      2 C2         205.5250  52.9964  70.6418 C.ar           1 RES1               0.0000
      3 C3         207.8882  52.9845  69.9756 C.2            1 RES1               0.0000
      4 C4         206.0948  54.0847  68.5181 C.2            1 RES1               0.0000
      5 C5         206.8993  55.1889  70.5933 C.3            1 RES1               0.0000
      6 C6         205.3796  53.0608  72.0244 C.ar           1 RES1               0.0000
      7 C7         204.6583  52.1690  69.9328 C.ar           1 RES1               0.0000
      8 N8         208.2947  52.3857  68.8197 N.am           1 RES1               0.0000
      9 O9         208.5052  52.8192  71.0208 O.2            1 RES1               0.0000
     10 N10        206.7694  53.5168  67.4692 N.am           1 RES1               0.0000
     11 O11        205.0977  54.7643  68.3074 O.2            1 RES1               0.0000
     12 C12        207.6156  56.1759  69.6852 C.3            1 RES1               0.0000
     13 C13        204.4012  52.3269  72.6743 C.ar           1 RES1               0.0000
     14 C14        203.6807  51.4357  70.5848 C.ar           1 RES1               0.0000
     15 C15        207.8278  52.6541  67.5581 C.2            1 RES1               0.0000
     16 C16        203.5509  51.5143  71.9551 C.ar           1 RES1               0.0000
     17 O17        208.3472  52.1413  66.5711 O.2            1 RES1               0.0000
     18 H18        205.9479  55.6307  70.9143 H              1 RES1               0.0000
     19 H19        207.5115  55.0244  71.4886 H              1 RES1               0.0000
     20 H20        206.0411  53.6929  72.6073 H              1 RES1               0.0000
     21 H21        204.7426  52.0907  68.8542 H              1 RES1               0.0000
     22 H22        209.0123  51.6724  68.9009 H              1 RES1               0.0000
     23 H23        206.4536  53.7598  66.5357 H              1 RES1               0.0000
     24 H24        207.7912  57.1175  70.2013 H              1 RES1               0.0000
     25 H25        208.5776  55.7793  69.3671 H              1 RES1               0.0000
     26 H26        207.0232  56.3821  68.7962 H              1 RES1               0.0000
     27 H27        204.3041  52.3912  73.7531 H              1 RES1               0.0000
     28 H28        203.0141  50.7970  70.0148 H              1 RES1               0.0000
     29 H29        202.7843  50.9398  72.4645 H              1 RES1               0.0000
@<TRIPOS>BOND
    1    1    2 1     
    2    1    3 1     
    3    1    4 1     
    4    1    5 1     
    5    2    6 ar    
    6    2    7 ar    
    7    3    8 1     
    8    3    9 2     
    9    4   10 1     
   10    4   11 2     
   11    5   12 1     
   12    5   18 1     
   13    5   19 1     
   14    6   13 ar    
   15    6   20 1     
   16    7   14 ar    
   17    7   21 1     
   18    8   15 1     
   19    8   22 1     
   20   10   15 1     
   21   10   23 1     
   22   12   24 1     
   23   12   25 1     
   24   12   26 1     
   25   13   16 ar    
   26   13   27 1     
   27   14   16 ar    
   28   14   28 1     
   29   15   17 2     
   30   16   29 1     
@<TRIPOS>SUBSTRUCTURE
      1 RES1           1
@<TRIPOS>SET
DONOR_HYDROGENS      STATIC     ATOMS    <user>   **** ""
2 22 23
ATOM$RED        STATIC     ATOMS    COLORGROUP SYSTEM
2 22 23
@<TRIPOS>COMMENT
> <Gold.Version>
2022.3.0

> <Gold.Id.Protein>
unknown|4d1n_clean|pdb

> <Gold.Protein.RotatedTorsions>
[ 9562 9508 9507 9505 ] final  -13.59 input   60.00 | X-H torsion
[ 7906 7874 7873 7870 ] final  -26.54 input   60.00 | X-H torsion

> <Gold.Protein.ActiveResidues>
 ASP403  THR404  ILE407  TYR408  ALA410  LYS411  TRP414  GLN425  TRP426  SER427 
 LYS428  LEU429  GLN430  VAL431  PHE432  ASP433  TYR453  SER462  ALA463  ILE464 

> <Gold.Protein.RotatedAtoms>
  204.6655   50.1926   61.4656 H   0  0  0  0  0  0  0  0  0  0  0  0  # atno 7906 bound_to 7874
  208.2421   52.6697   73.6964 H   0  0  0  0  0  0  0  0  0  0  0  0  # atno 9562 bound_to 9508
  207.7088   51.2094   73.2159 LP  0  0  0  0  0  0  0  0  0  0  0  0  # atno 27207 bound_to 9508
  209.0932   51.8191   72.6008 LP  0  0  0  0  0  0  0  0  0  0  0  0  # atno 27208 bound_to 9508
  204.7580   51.0883   60.1105 LP  0  0  0  0  0  0  0  0  0  0  0  0  # atno 27219 bound_to 7874
  205.0783   51.7634   61.5625 LP  0  0  0  0  0  0  0  0  0  0  0  0  # atno 27220 bound_to 7874

> <Gold.Score>
     Fitness  S(hb_ext) S(vdw_ext)  S(hb_int)    S(int)      intcor
     19.11       0.22      14.54       0.00      -1.10      -0.76

> <Gold.Goldscore.Fitness>
19.1095

> <Gold.Goldscore.Internal.Vdw>
-0.9871

> <Gold.Goldscore.Internal.Torsion>
-0.8676

> <Gold.Goldscore.External.Vdw>
14.5363

> <Gold.Goldscore.Internal.HBond>
0.0000

> <Gold.Goldscore.External.HBond>
0.2184

> <Gold.Goldscore.Internal.Correction>
-0.7585

> <Gold.Goldscore.Hbonds>
donor molecule, donor type, donor heavy atom, donor atom, acceptor molecule, acceptor atom, score
      P1  H  8001  8055       L1    17  0.04
      P1  H  8084  8135       L1     9  0.07

> <Gold.Goldscore.Internal.Vdw.Weighted>
-0.9871

> <Gold.Goldscore.Internal.Torsion.Weighted>
-0.8676

> <Gold.Goldscore.External.Vdw.Weighted>
19.9874

> <Gold.Goldscore.Internal.HBond.Weighted>
0.0000

> <Gold.Goldscore.External.HBond.Weighted>
0.2184

> <Gold.Goldscore.Internal.Correction.Weighted>
-0.7585

> <Gold.Rescore>
     Score     S(PLP)   S(hbond)     S(cho)   S(metal)  DE(clash)   DE(tors)     intcor
     20.26     -18.23       1.00       0.00       0.00       0.00       0.49       ----

> <Gold.PLP.Fitness>
20.2561

> <Gold.PLP.PLP>
-18.2349

> <Gold.PLP.part.hbond>
-2.0000

> <Gold.PLP.part.metal>
0.0000

> <Gold.PLP.part.buried>
-2.7421

> <Gold.PLP.part.nonpolar>
-14.0711

> <Gold.PLP.part.repulsive>
0.3809

> <Gold.PLP.ligand.clash>
0.0000

> <Gold.PLP.ligand.torsion>
0.4894

> <Gold.PLP.Chemscore.Hbond>
1.0000

> <Gold.PLP.Chemscore.CHOScore>
0.0000

> <Gold.PLP.Chemscore.Metal>
0.0000

> <Gold.Chemscore.Hbonds>
donor molecule, donor type, donor heavy atom, donor atom, acceptor molecule, acceptor atom, score
      P1  H  8001  8055       L1    17  0.70
      P1  H  8084  8135       L1     9  1.00

> <Gold.PLP.Chemscore.Internal.Correction>
   9.000000E+99

