#       Name:                CT1002167954
#       Creating user name   hitesit
#       Creation time:       Sun Apr 16 20:20:11 2023


#       File generated by GOLD software.
#

@<TRIPOS>MOLECULE
CT1002167954|ligand_prepared|mol2|1|dock4
    29    30     1
SMALL
NO_CHARGES


@<TRIPOS>ATOM
      1 C1         206.6840  52.8177  69.4342 C.3            1 RES1               0.0000
      2 C2         205.8932  51.5315  69.7489 C.ar           1 RES1               0.0000
      3 C3         208.1314  52.3877  69.2142 C.2            1 RES1               0.0000
      4 C4         206.0246  53.4341  68.2055 C.2            1 RES1               0.0000
      5 C5         206.6503  53.8658  70.5709 C.3            1 RES1               0.0000
      6 C6         206.4245  50.2813  69.4468 C.ar           1 RES1               0.0000
      7 C7         204.6347  51.5791  70.3426 C.ar           1 RES1               0.0000
      8 N8         208.6026  52.3864  67.9345 N.am           1 RES1               0.0000
      9 O9         208.8365  52.0176  70.1449 O.2            1 RES1               0.0000
     10 N10        206.7533  53.4915  67.0464 N.am           1 RES1               0.0000
     11 O11        204.8747  53.8555  68.2261 O.2            1 RES1               0.0000
     12 C12        207.5522  55.0653  70.3258 C.3            1 RES1               0.0000
     13 C13        205.7243  49.1204  69.7305 C.ar           1 RES1               0.0000
     14 C14        203.9361  50.4170  70.6253 C.ar           1 RES1               0.0000
     15 C15        208.0015  52.9677  66.8470 C.2            1 RES1               0.0000
     16 C16        204.4800  49.1874  70.3203 C.ar           1 RES1               0.0000
     17 O17        208.5705  53.0106  65.7600 O.2            1 RES1               0.0000
     18 H18        205.6192  54.2189  70.6951 H              1 RES1               0.0000
     19 H19        206.9540  53.3813  71.5071 H              1 RES1               0.0000
     20 H20        207.4013  50.2088  68.9802 H              1 RES1               0.0000
     21 H21        204.1867  52.5354  70.5904 H              1 RES1               0.0000
     22 H22        209.4834  51.9091  67.7708 H              1 RES1               0.0000
     23 H23        206.3257  53.9690  66.2593 H              1 RES1               0.0000
     24 H24        207.4909  55.7694  71.1530 H              1 RES1               0.0000
     25 H25        208.5894  54.7533  70.2225 H              1 RES1               0.0000
     26 H26        207.2626  55.5860  69.4154 H              1 RES1               0.0000
     27 H27        206.1562  48.1552  69.4872 H              1 RES1               0.0000
     28 H28        202.9568  50.4745  71.0890 H              1 RES1               0.0000
     29 H29        203.9319  48.2779  70.5428 H              1 RES1               0.0000
@<TRIPOS>BOND
    1    1    2 1     
    2    1    3 1     
    3    1    4 1     
    4    1    5 1     
    5    2    6 ar    
    6    2    7 ar    
    7    3    8 1     
    8    3    9 2     
    9    4   10 1     
   10    4   11 2     
   11    5   12 1     
   12    5   18 1     
   13    5   19 1     
   14    6   13 ar    
   15    6   20 1     
   16    7   14 ar    
   17    7   21 1     
   18    8   15 1     
   19    8   22 1     
   20   10   15 1     
   21   10   23 1     
   22   12   24 1     
   23   12   25 1     
   24   12   26 1     
   25   13   16 ar    
   26   13   27 1     
   27   14   16 ar    
   28   14   28 1     
   29   15   17 2     
   30   16   29 1     
@<TRIPOS>SUBSTRUCTURE
      1 RES1           1
@<TRIPOS>SET
DONOR_HYDROGENS      STATIC     ATOMS    <user>   **** ""
2 22 23
ATOM$RED        STATIC     ATOMS    COLORGROUP SYSTEM
2 22 23
@<TRIPOS>COMMENT
> <Gold.Version>
2022.3.0

> <Gold.Id.Protein>
unknown|4d1n_clean|pdb

> <Gold.Protein.RotatedTorsions>
[ 9562 9508 9507 9505 ] final  123.15 input   60.00 | X-H torsion
[ 7906 7874 7873 7870 ] final -143.75 input   60.00 | X-H torsion

> <Gold.Protein.ActiveResidues>
 ASP403  THR404  ILE407  TYR408  ALA410  LYS411  TRP414  GLN425  TRP426  SER427 
 LYS428  LEU429  GLN430  VAL431  PHE432  ASP433  TYR453  SER462  ALA463  ILE464 

> <Gold.Protein.RotatedAtoms>
  204.7492   51.0431   60.1157 H   0  0  0  0  0  0  0  0  0  0  0  0  # atno 7906 bound_to 7874
  208.9702   51.5796   72.5512 H   0  0  0  0  0  0  0  0  0  0  0  0  # atno 9562 bound_to 9508
  208.4749   52.7448   73.5734 LP  0  0  0  0  0  0  0  0  0  0  0  0  # atno 27207 bound_to 9508
  207.5939   51.3813   73.3965 LP  0  0  0  0  0  0  0  0  0  0  0  0  # atno 27208 bound_to 9508
  205.0807   51.7878   61.5237 LP  0  0  0  0  0  0  0  0  0  0  0  0  # atno 27219 bound_to 7874
  204.6712   50.2071   61.5093 LP  0  0  0  0  0  0  0  0  0  0  0  0  # atno 27220 bound_to 7874

> <Gold.Score>
     Fitness  S(hb_ext) S(vdw_ext)  S(hb_int)    S(int)      intcor
     31.38       0.81      23.26       0.00      -1.42      -0.76

> <Gold.Goldscore.Fitness>
31.3793

> <Gold.Goldscore.Internal.Vdw>
-1.7397

> <Gold.Goldscore.Internal.Torsion>
-0.4339

> <Gold.Goldscore.External.Vdw>
23.2605

> <Gold.Goldscore.Internal.HBond>
0.0000

> <Gold.Goldscore.External.HBond>
0.8111

> <Gold.Goldscore.Internal.Correction>
-0.7585

> <Gold.Goldscore.Hbonds>
donor molecule, donor type, donor heavy atom, donor atom, acceptor molecule, acceptor atom, score
      P1  H  8001  8055       L1    17  0.10
      P1  H  8084  8135       L1     9  0.16
      P1  H  9508  9562       L1     9  0.13
      L1  H     8    22       P1  8004  0.03

> <Gold.Goldscore.Internal.Vdw.Weighted>
-1.7397

> <Gold.Goldscore.Internal.Torsion.Weighted>
-0.4339

> <Gold.Goldscore.External.Vdw.Weighted>
31.9832

> <Gold.Goldscore.Internal.HBond.Weighted>
0.0000

> <Gold.Goldscore.External.HBond.Weighted>
0.8111

> <Gold.Goldscore.Internal.Correction.Weighted>
-0.7585

> <Gold.Rescore>
     Score     S(PLP)   S(hbond)     S(cho)   S(metal)  DE(clash)   DE(tors)     intcor
     35.51     -31.65       2.04       0.00       0.00       2.06       0.10       ----

> <Gold.PLP.Fitness>
35.5131

> <Gold.PLP.PLP>
-31.6495

> <Gold.PLP.part.hbond>
-3.9496

> <Gold.PLP.part.metal>
0.0000

> <Gold.PLP.part.buried>
-0.1096

> <Gold.PLP.part.nonpolar>
-28.5385

> <Gold.PLP.part.repulsive>
0.5279

> <Gold.PLP.ligand.clash>
2.0635

> <Gold.PLP.ligand.torsion>
0.1026

> <Gold.PLP.Chemscore.Hbond>
2.0441

> <Gold.PLP.Chemscore.CHOScore>
0.0000

> <Gold.PLP.Chemscore.Metal>
0.0000

> <Gold.Chemscore.Hbonds>
donor molecule, donor type, donor heavy atom, donor atom, acceptor molecule, acceptor atom, score
      L1  H     8    22       P1  8004  0.55
      P1  H  6785  6836       L1    17  0.01
      P1  H  8084  8135       L1     9  0.94
      P1  H  9508  9562       L1     9  0.11

> <Gold.PLP.Chemscore.Internal.Correction>
   9.000000E+99

