#       Name:                CT1002167954
#       Creating user name   hitesit
#       Creation time:       Sun Apr 16 02:21:50 2023


#       File generated by GOLD software.
#

@<TRIPOS>MOLECULE
CT1002167954|ligand_prepared|mol2|1|dock7
    29    30     1
SMALL
NO_CHARGES


@<TRIPOS>ATOM
      1 C1          25.0160  17.2385  39.8034 C.3            1 RES1               0.0000
      2 C2          24.6885  18.3415  40.8304 C.ar           1 RES1               0.0000
      3 C3          26.3703  16.6642  40.2086 C.2            1 RES1               0.0000
      4 C4          23.8691  16.2362  39.8735 C.2            1 RES1               0.0000
      5 C5          25.1151  17.7499  38.3473 C.3            1 RES1               0.0000
      6 C6          23.9772  18.0428  41.9887 C.ar           1 RES1               0.0000
      7 C7          25.0926  19.6596  40.6350 C.ar           1 RES1               0.0000
      8 N8          26.3854  15.4290  40.7867 N.am           1 RES1               0.0000
      9 O9          27.4053  17.3019  40.0594 O.2            1 RES1               0.0000
     10 N10         24.1463  14.9741  40.3295 N.am           1 RES1               0.0000
     11 O11         22.7246  16.5331  39.5538 O.2            1 RES1               0.0000
     12 C12         25.1344  16.6404  37.3077 C.3            1 RES1               0.0000
     13 C13         23.6831  19.0254  42.9194 C.ar           1 RES1               0.0000
     14 C14         24.7972  20.6407  41.5670 C.ar           1 RES1               0.0000
     15 C15         25.3462  14.5342  40.8182 C.2            1 RES1               0.0000
     16 C16         24.0932  20.3248  42.7095 C.ar           1 RES1               0.0000
     17 O17         25.5037  13.4002  41.2615 O.2            1 RES1               0.0000
     18 H18         24.2612  18.4082  38.1454 H              1 RES1               0.0000
     19 H19         26.0300  18.3464  38.2441 H              1 RES1               0.0000
     20 H20         23.6441  17.0263  42.1698 H              1 RES1               0.0000
     21 H21         25.6466  19.9314  39.7430 H              1 RES1               0.0000
     22 H22         27.2493  15.1444  41.2373 H              1 RES1               0.0000
     23 H23         23.3879  14.3000  40.3018 H              1 RES1               0.0000
     24 H24         25.2049  17.0537  36.3038 H              1 RES1               0.0000
     25 H25         25.9857  15.9809  37.4632 H              1 RES1               0.0000
     26 H26         24.2273  16.0423  37.3651 H              1 RES1               0.0000
     27 H27         23.1276  18.7719  43.8163 H              1 RES1               0.0000
     28 H28         25.1213  21.6622  41.3974 H              1 RES1               0.0000
     29 H29         23.8630  21.0943  43.4389 H              1 RES1               0.0000
@<TRIPOS>BOND
    1    1    2 1     
    2    1    3 1     
    3    1    4 1     
    4    1    5 1     
    5    2    6 ar    
    6    2    7 ar    
    7    3    8 1     
    8    3    9 2     
    9    4   10 1     
   10    4   11 2     
   11    5   12 1     
   12    5   18 1     
   13    5   19 1     
   14    6   13 ar    
   15    6   20 1     
   16    7   14 ar    
   17    7   21 1     
   18    8   15 1     
   19    8   22 1     
   20   10   15 1     
   21   10   23 1     
   22   12   24 1     
   23   12   25 1     
   24   12   26 1     
   25   13   16 ar    
   26   13   27 1     
   27   14   16 ar    
   28   14   28 1     
   29   15   17 2     
   30   16   29 1     
@<TRIPOS>SUBSTRUCTURE
      1 RES1           1
@<TRIPOS>SET
DONOR_HYDROGENS      STATIC     ATOMS    <user>   **** ""
2 22 23
ATOM$RED        STATIC     ATOMS    COLORGROUP SYSTEM
2 22 23
@<TRIPOS>COMMENT
> <Gold.Version>
2022.3.0

> <Gold.Id.Protein>
unknown|1wbs_clean|pdb

> <Gold.Protein.RotatedTorsions>
[ 1074 1065 1064 1062 ] final  163.52 input   60.04 | X-H torsion
[ 5197 5192 5191 5188 ] final  168.70 input   60.02 | X-H torsion

> <Gold.Protein.ActiveResidues>
 TYR69   ARG73   ASP324  GLN325  SER326  PHE327  GLU328  ARG330  LEU332  TRP337 
 LEU340  ASP343  GLU344 

> <Gold.Protein.RotatedAtoms>
   22.2736   19.8335   39.2152 H   0  0  0  0  0  0  0  0  0  0  0  0  # atno 1074 bound_to 1065
   24.5048   22.6917   45.0357 H   0  0  0  0  0  0  0  0  0  0  0  0  # atno 5197 bound_to 5192
   23.0397   18.9596   38.0759 LP  0  0  0  0  0  0  0  0  0  0  0  0  # atno 5659 bound_to 1065
   21.8330   18.2896   38.9486 LP  0  0  0  0  0  0  0  0  0  0  0  0  # atno 5660 bound_to 1065
   23.2972   22.9832   43.9852 LP  0  0  0  0  0  0  0  0  0  0  0  0  # atno 5669 bound_to 5192
   23.1397   21.8098   45.1099 LP  0  0  0  0  0  0  0  0  0  0  0  0  # atno 5670 bound_to 5192

> <Gold.Score>
     Fitness  S(hb_ext) S(vdw_ext)  S(hb_int)    S(int)      intcor
     20.72       0.00      15.43       0.00      -0.49      -0.76

> <Gold.Goldscore.Fitness>
20.7246

> <Gold.Goldscore.Internal.Vdw>
-0.6406

> <Gold.Goldscore.Internal.Torsion>
-0.6110

> <Gold.Goldscore.External.Vdw>
15.4263

> <Gold.Goldscore.Internal.HBond>
0.0000

> <Gold.Goldscore.External.HBond>
0.0000

> <Gold.Goldscore.Internal.Correction>
-0.7650

> <Gold.Goldscore.Internal.Vdw.Weighted>
-0.6406

> <Gold.Goldscore.Internal.Torsion.Weighted>
-0.6110

> <Gold.Goldscore.External.Vdw.Weighted>
21.2112

> <Gold.Goldscore.Internal.HBond.Weighted>
0.0000

> <Gold.Goldscore.External.HBond.Weighted>
0.0000

> <Gold.Goldscore.Internal.Correction.Weighted>
-0.7650

> <Gold.Rescore>
     Score     S(PLP)   S(hbond)     S(cho)   S(metal)  DE(clash)   DE(tors)     intcor
     15.60     -15.85       0.25       0.00       0.00       0.00       0.50       ----

> <Gold.PLP.Fitness>
15.5966

> <Gold.PLP.PLP>
-15.8533

> <Gold.PLP.part.hbond>
-2.5543

> <Gold.PLP.part.metal>
0.0000

> <Gold.PLP.part.buried>
-2.3865

> <Gold.PLP.part.nonpolar>
-11.0076

> <Gold.PLP.part.repulsive>
0.1682

> <Gold.PLP.ligand.clash>
0.0000

> <Gold.PLP.ligand.torsion>
0.4961

> <Gold.PLP.Chemscore.Hbond>
0.2452

> <Gold.PLP.Chemscore.CHOScore>
0.0000

> <Gold.PLP.Chemscore.Metal>
0.0000

> <Gold.PLP.Chemscore.Internal.Correction>
   9.000000E+99

