#       Name:                CT1002167954
#       Creating user name   hitesit
#       Creation time:       Sun Apr 16 02:21:51 2023


#       File generated by GOLD software.
#

@<TRIPOS>MOLECULE
CT1002167954|ligand_prepared|mol2|1|dock8
    29    30     1
SMALL
NO_CHARGES


@<TRIPOS>ATOM
      1 C1          25.4235  17.5920  39.6851 C.3            1 RES1               0.0000
      2 C2          24.7051  18.3456  40.8230 C.ar           1 RES1               0.0000
      3 C3          26.8888  18.0123  39.7512 C.2            1 RES1               0.0000
      4 C4          25.1898  16.1075  39.9424 C.2            1 RES1               0.0000
      5 C5          24.8804  17.9239  38.2756 C.3            1 RES1               0.0000
      6 C6          24.6594  17.8124  42.1077 C.ar           1 RES1               0.0000
      7 C7          24.0870  19.5739  40.6045 C.ar           1 RES1               0.0000
      8 N8          27.7847  17.1060  40.2369 N.am           1 RES1               0.0000
      9 O9          27.2471  19.1355  39.4192 O.2            1 RES1               0.0000
     10 N10         26.2757  15.3305  40.2506 N.am           1 RES1               0.0000
     11 O11         24.0728  15.6068  39.8974 O.2            1 RES1               0.0000
     12 C12         25.4720  17.0614  37.1719 C.3            1 RES1               0.0000
     13 C13         24.0214  18.4841  43.1373 C.ar           1 RES1               0.0000
     14 C14         23.4493  20.2439  41.6355 C.ar           1 RES1               0.0000
     15 C15         27.5581  15.7684  40.4397 C.2            1 RES1               0.0000
     16 C16         23.4164  19.7003  42.9021 C.ar           1 RES1               0.0000
     17 O17         28.4713  15.0169  40.7692 O.2            1 RES1               0.0000
     18 H18         23.7909  17.7961  38.2779 H              1 RES1               0.0000
     19 H19         25.0941  18.9768  38.0538 H              1 RES1               0.0000
     20 H20         25.1278  16.8552  42.3112 H              1 RES1               0.0000
     21 H21         24.0993  20.0200  39.6158 H              1 RES1               0.0000
     22 H22         28.7086  17.4551  40.4712 H              1 RES1               0.0000
     23 H23         26.1129  14.3334  40.3480 H              1 RES1               0.0000
     24 H24         25.0573  17.3355  36.2041 H              1 RES1               0.0000
     25 H25         26.5522  17.1830  37.1244 H              1 RES1               0.0000
     26 H26         25.2568  16.0094  37.3472 H              1 RES1               0.0000
     27 H27         23.9972  18.0514  44.1320 H              1 RES1               0.0000
     28 H28         22.9740  21.2005  41.4457 H              1 RES1               0.0000
     29 H29         22.9170  20.2265  43.7089 H              1 RES1               0.0000
@<TRIPOS>BOND
    1    1    2 1     
    2    1    3 1     
    3    1    4 1     
    4    1    5 1     
    5    2    6 ar    
    6    2    7 ar    
    7    3    8 1     
    8    3    9 2     
    9    4   10 1     
   10    4   11 2     
   11    5   12 1     
   12    5   18 1     
   13    5   19 1     
   14    6   13 ar    
   15    6   20 1     
   16    7   14 ar    
   17    7   21 1     
   18    8   15 1     
   19    8   22 1     
   20   10   15 1     
   21   10   23 1     
   22   12   24 1     
   23   12   25 1     
   24   12   26 1     
   25   13   16 ar    
   26   13   27 1     
   27   14   16 ar    
   28   14   28 1     
   29   15   17 2     
   30   16   29 1     
@<TRIPOS>SUBSTRUCTURE
      1 RES1           1
@<TRIPOS>SET
DONOR_HYDROGENS      STATIC     ATOMS    <user>   **** ""
2 22 23
ATOM$RED        STATIC     ATOMS    COLORGROUP SYSTEM
2 22 23
@<TRIPOS>COMMENT
> <Gold.Version>
2022.3.0

> <Gold.Id.Protein>
unknown|1wbs_clean|pdb

> <Gold.Protein.RotatedTorsions>
[ 1074 1065 1064 1062 ] final -105.09 input   60.04 | X-H torsion
[ 5197 5192 5191 5188 ] final   66.78 input   60.02 | X-H torsion

> <Gold.Protein.ActiveResidues>
 TYR69   ARG73   ASP324  GLN325  SER326  PHE327  GLU328  ARG330  LEU332  TRP337 
 LEU340  ASP343  GLU344 

> <Gold.Protein.RotatedAtoms>
   21.6919   18.6263   39.2358 H   0  0  0  0  0  0  0  0  0  0  0  0  # atno 1074 bound_to 1065
   23.5602   23.1141   44.0147 H   0  0  0  0  0  0  0  0  0  0  0  0  # atno 5197 bound_to 5192
   22.6210   19.9249   38.9207 LP  0  0  0  0  0  0  0  0  0  0  0  0  # atno 5659 bound_to 1065
   22.8375   18.5400   38.0830 LP  0  0  0  0  0  0  0  0  0  0  0  0  # atno 5660 bound_to 1065
   22.9472   21.8959   44.9018 LP  0  0  0  0  0  0  0  0  0  0  0  0  # atno 5669 bound_to 5192
   24.4414   22.4716   45.2220 LP  0  0  0  0  0  0  0  0  0  0  0  0  # atno 5670 bound_to 5192

> <Gold.Score>
     Fitness  S(hb_ext) S(vdw_ext)  S(hb_int)    S(int)      intcor
     21.86       0.00      16.29       0.00      -0.54      -0.76

> <Gold.Goldscore.Fitness>
21.8641

> <Gold.Goldscore.Internal.Vdw>
-0.8626

> <Gold.Goldscore.Internal.Torsion>
-0.4420

> <Gold.Goldscore.External.Vdw>
16.2936

> <Gold.Goldscore.Internal.HBond>
0.0000

> <Gold.Goldscore.External.HBond>
0.0000

> <Gold.Goldscore.Internal.Correction>
-0.7650

> <Gold.Goldscore.Internal.Vdw.Weighted>
-0.8626

> <Gold.Goldscore.Internal.Torsion.Weighted>
-0.4420

> <Gold.Goldscore.External.Vdw.Weighted>
22.4038

> <Gold.Goldscore.Internal.HBond.Weighted>
0.0000

> <Gold.Goldscore.External.HBond.Weighted>
0.0000

> <Gold.Goldscore.Internal.Correction.Weighted>
-0.7650

> <Gold.Rescore>
     Score     S(PLP)   S(hbond)     S(cho)   S(metal)  DE(clash)   DE(tors)     intcor
     16.66     -18.67       0.00       0.00       0.00       0.00       1.00       ----

> <Gold.PLP.Fitness>
16.6577

> <Gold.PLP.PLP>
-18.6666

> <Gold.PLP.part.hbond>
0.0000

> <Gold.PLP.part.metal>
0.0000

> <Gold.PLP.part.buried>
-1.6162

> <Gold.PLP.part.nonpolar>
-18.2512

> <Gold.PLP.part.repulsive>
0.0872

> <Gold.PLP.ligand.clash>
0.0000

> <Gold.PLP.ligand.torsion>
1.0044

> <Gold.PLP.Chemscore.Hbond>
0.0000

> <Gold.PLP.Chemscore.CHOScore>
0.0000

> <Gold.PLP.Chemscore.Metal>
0.0000

> <Gold.PLP.Chemscore.Internal.Correction>
   9.000000E+99

