#       Name:                CT1002167954
#       Creating user name   hitesit
#       Creation time:       Sun Apr 16 02:21:48 2023


#       File generated by GOLD software.
#

@<TRIPOS>MOLECULE
CT1002167954|ligand_prepared|mol2|1|dock4
    29    30     1
SMALL
NO_CHARGES


@<TRIPOS>ATOM
      1 C1          24.7775  16.7245  41.8931 C.3            1 RES1               0.0000
      2 C2          24.2507  18.1406  42.2026 C.ar           1 RES1               0.0000
      3 C3          24.2388  15.8167  42.9949 C.2            1 RES1               0.0000
      4 C4          24.2716  16.3766  40.4975 C.2            1 RES1               0.0000
      5 C5          26.3205  16.6205  41.8816 C.3            1 RES1               0.0000
      6 C6          24.8241  19.2571  41.6013 C.ar           1 RES1               0.0000
      7 C7          23.1922  18.3459  43.0835 C.ar           1 RES1               0.0000
      8 N8          23.2250  14.9638  42.6715 N.am           1 RES1               0.0000
      9 O9          24.6701  15.8762  44.1398 O.2            1 RES1               0.0000
     10 N10         23.3707  15.3509  40.3783 N.am           1 RES1               0.0000
     11 O11         24.6322  16.9923  39.5020 O.2            1 RES1               0.0000
     12 C12         26.8381  15.1970  41.7485 C.3            1 RES1               0.0000
     13 C13         24.3544  20.5323  41.8686 C.ar           1 RES1               0.0000
     14 C14         22.7242  19.6221  43.3496 C.ar           1 RES1               0.0000
     15 C15         22.8011  14.6489  41.4055 C.2            1 RES1               0.0000
     16 C16         23.3040  20.7157  42.7425 C.ar           1 RES1               0.0000
     17 O17         21.9569  13.7767  41.2217 O.2            1 RES1               0.0000
     18 H18         26.7083  17.2168  41.0465 H              1 RES1               0.0000
     19 H19         26.7104  17.0524  42.8116 H              1 RES1               0.0000
     20 H20         25.6532  19.1326  40.9127 H              1 RES1               0.0000
     21 H21         22.7214  17.5004  43.5735 H              1 RES1               0.0000
     22 H22         22.7367  14.5191  43.4423 H              1 RES1               0.0000
     23 H23         23.0998  15.0861  39.4366 H              1 RES1               0.0000
     24 H24         27.9259  15.1808  41.7458 H              1 RES1               0.0000
     25 H25         26.4921  14.5817  42.5765 H              1 RES1               0.0000
     26 H26         26.4900  14.7451  40.8219 H              1 RES1               0.0000
     27 H27         24.8151  21.3898  41.3893 H              1 RES1               0.0000
     28 H28         21.8977  19.7618  44.0385 H              1 RES1               0.0000
     29 H29         22.9360  21.7147  42.9514 H              1 RES1               0.0000
@<TRIPOS>BOND
    1    1    2 1     
    2    1    3 1     
    3    1    4 1     
    4    1    5 1     
    5    2    6 ar    
    6    2    7 ar    
    7    3    8 1     
    8    3    9 2     
    9    4   10 1     
   10    4   11 2     
   11    5   12 1     
   12    5   18 1     
   13    5   19 1     
   14    6   13 ar    
   15    6   20 1     
   16    7   14 ar    
   17    7   21 1     
   18    8   15 1     
   19    8   22 1     
   20   10   15 1     
   21   10   23 1     
   22   12   24 1     
   23   12   25 1     
   24   12   26 1     
   25   13   16 ar    
   26   13   27 1     
   27   14   16 ar    
   28   14   28 1     
   29   15   17 2     
   30   16   29 1     
@<TRIPOS>SUBSTRUCTURE
      1 RES1           1
@<TRIPOS>SET
DONOR_HYDROGENS      STATIC     ATOMS    <user>   **** ""
2 22 23
ATOM$RED        STATIC     ATOMS    COLORGROUP SYSTEM
2 22 23
@<TRIPOS>COMMENT
> <Gold.Version>
2022.3.0

> <Gold.Id.Protein>
unknown|1wbs_clean|pdb

> <Gold.Protein.RotatedTorsions>
[ 1074 1065 1064 1062 ] final -161.41 input   60.04 | X-H torsion
[ 5197 5192 5191 5188 ] final -122.00 input   60.02 | X-H torsion

> <Gold.Protein.ActiveResidues>
 TYR69   ARG73   ASP324  GLN325  SER326  PHE327  GLU328  ARG330  LEU332  TRP337 
 LEU340  ASP343  GLU344 

> <Gold.Protein.RotatedAtoms>
   21.8955   19.4668   39.4177 H   0  0  0  0  0  0  0  0  0  0  0  0  # atno 1074 bound_to 1065
   23.8669   21.9365   45.4294 H   0  0  0  0  0  0  0  0  0  0  0  0  # atno 5197 bound_to 5192
   23.0667   19.4861   38.2878 LP  0  0  0  0  0  0  0  0  0  0  0  0  # atno 5659 bound_to 1065
   22.1868   18.1324   38.5327 LP  0  0  0  0  0  0  0  0  0  0  0  0  # atno 5660 bound_to 1065
   24.2664   23.1437   44.4146 LP  0  0  0  0  0  0  0  0  0  0  0  0  # atno 5669 bound_to 5192
   22.8132   22.4103   44.2839 LP  0  0  0  0  0  0  0  0  0  0  0  0  # atno 5670 bound_to 5192

> <Gold.Score>
     Fitness  S(hb_ext) S(vdw_ext)  S(hb_int)    S(int)      intcor
     24.20       3.66      15.80       0.00      -1.18      -0.76

> <Gold.Goldscore.Fitness>
24.2038

> <Gold.Goldscore.Internal.Vdw>
-1.4885

> <Gold.Goldscore.Internal.Torsion>
-0.4534

> <Gold.Goldscore.External.Vdw>
15.8000

> <Gold.Goldscore.Internal.HBond>
0.0000

> <Gold.Goldscore.External.HBond>
3.6557

> <Gold.Goldscore.Internal.Correction>
-0.7650

> <Gold.Goldscore.Hbonds>
donor molecule, donor type, donor heavy atom, donor atom, acceptor molecule, acceptor atom, score
      L1  H    10    23       P1  5495  0.61

> <Gold.Goldscore.Internal.Vdw.Weighted>
-1.4885

> <Gold.Goldscore.Internal.Torsion.Weighted>
-0.4534

> <Gold.Goldscore.External.Vdw.Weighted>
21.7250

> <Gold.Goldscore.Internal.HBond.Weighted>
0.0000

> <Gold.Goldscore.External.HBond.Weighted>
3.6557

> <Gold.Goldscore.Internal.Correction.Weighted>
-0.7650

> <Gold.Rescore>
     Score     S(PLP)   S(hbond)     S(cho)   S(metal)  DE(clash)   DE(tors)     intcor
     19.93     -18.47       1.00       0.00       0.00       1.30       0.12       ----

> <Gold.PLP.Fitness>
19.9304

> <Gold.PLP.PLP>
-18.4674

> <Gold.PLP.part.hbond>
-1.0000

> <Gold.PLP.part.metal>
0.0000

> <Gold.PLP.part.buried>
-1.4783

> <Gold.PLP.part.nonpolar>
-17.0316

> <Gold.PLP.part.repulsive>
0.6049

> <Gold.PLP.ligand.clash>
1.2960

> <Gold.PLP.ligand.torsion>
0.1205

> <Gold.PLP.Chemscore.Hbond>
1.0000

> <Gold.PLP.Chemscore.CHOScore>
0.0000

> <Gold.PLP.Chemscore.Metal>
0.0000

> <Gold.Chemscore.Hbonds>
donor molecule, donor type, donor heavy atom, donor atom, acceptor molecule, acceptor atom, score
      L1  H    10    23       P1  5495  0.71

> <Gold.PLP.Chemscore.Internal.Correction>
   9.000000E+99

