#       Name:                CT1002167954
#       Creating user name   hitesit
#       Creation time:       Sun Apr 16 02:21:53 2023


#       File generated by GOLD software.
#

@<TRIPOS>MOLECULE
CT1002167954|ligand_prepared|mol2|1|dock10
    29    30     1
SMALL
NO_CHARGES


@<TRIPOS>ATOM
      1 C1          26.6236  20.8860  40.0830 C.3            1 RES1               0.0000
      2 C2          25.3743  20.7476  40.9768 C.ar           1 RES1               0.0000
      3 C3          27.8104  21.0495  41.0280 C.2            1 RES1               0.0000
      4 C4          26.6783  19.6247  39.2281 C.2            1 RES1               0.0000
      5 C5          26.5804  22.1056  39.1332 C.3            1 RES1               0.0000
      6 C6          24.0979  20.8263  40.4277 C.ar           1 RES1               0.0000
      7 C7          25.4819  20.5387  42.3491 C.ar           1 RES1               0.0000
      8 N8          28.6524  19.9867  41.1747 N.am           1 RES1               0.0000
      9 O9          27.9826  22.0814  41.6650 O.2            1 RES1               0.0000
     10 N10         27.7252  18.7621  39.4224 N.am           1 RES1               0.0000
     11 O11         25.8154  19.3619  38.3995 O.2            1 RES1               0.0000
     12 C12         27.8733  22.3307  38.3651 C.3            1 RES1               0.0000
     13 C13         22.9701  20.6978  41.2212 C.ar           1 RES1               0.0000
     14 C14         24.3527  20.4107  43.1409 C.ar           1 RES1               0.0000
     15 C15         28.6981  18.8707  40.3784 C.2            1 RES1               0.0000
     16 C16         23.0966  20.4895  42.5781 C.ar           1 RES1               0.0000
     17 O17         29.5761  18.0256  40.5269 O.2            1 RES1               0.0000
     18 H18         25.7630  21.9651  38.4152 H              1 RES1               0.0000
     19 H19         26.3586  23.0041  39.7221 H              1 RES1               0.0000
     20 H20         23.9786  20.9923  39.3622 H              1 RES1               0.0000
     21 H21         26.4600  20.4743  42.8138 H              1 RES1               0.0000
     22 H22         29.3087  20.0252  41.9481 H              1 RES1               0.0000
     23 H23         27.7847  17.9653  38.7964 H              1 RES1               0.0000
     24 H24         27.7890  23.1982  37.7139 H              1 RES1               0.0000
     25 H25         28.7033  22.4990  39.0481 H              1 RES1               0.0000
     26 H26         28.1113  21.4661  37.7489 H              1 RES1               0.0000
     27 H27         21.9838  20.7620  40.7736 H              1 RES1               0.0000
     28 H28         24.4570  20.2475  44.2085 H              1 RES1               0.0000
     29 H29         22.2129  20.3885  43.1995 H              1 RES1               0.0000
@<TRIPOS>BOND
    1    1    2 1     
    2    1    3 1     
    3    1    4 1     
    4    1    5 1     
    5    2    6 ar    
    6    2    7 ar    
    7    3    8 1     
    8    3    9 2     
    9    4   10 1     
   10    4   11 2     
   11    5   12 1     
   12    5   18 1     
   13    5   19 1     
   14    6   13 ar    
   15    6   20 1     
   16    7   14 ar    
   17    7   21 1     
   18    8   15 1     
   19    8   22 1     
   20   10   15 1     
   21   10   23 1     
   22   12   24 1     
   23   12   25 1     
   24   12   26 1     
   25   13   16 ar    
   26   13   27 1     
   27   14   16 ar    
   28   14   28 1     
   29   15   17 2     
   30   16   29 1     
@<TRIPOS>SUBSTRUCTURE
      1 RES1           1
@<TRIPOS>SET
DONOR_HYDROGENS      STATIC     ATOMS    <user>   **** ""
2 22 23
ATOM$RED        STATIC     ATOMS    COLORGROUP SYSTEM
2 22 23
@<TRIPOS>COMMENT
> <Gold.Version>
2022.3.0

> <Gold.Id.Protein>
unknown|1wbs_clean|pdb

> <Gold.Protein.RotatedTorsions>
[ 1074 1065 1064 1062 ] final    0.68 input   60.04 | X-H torsion
[ 5197 5192 5191 5188 ] final  165.34 input   60.02 | X-H torsion

> <Gold.Protein.ActiveResidues>
 TYR69   ARG73   ASP324  GLN325  SER326  PHE327  GLU328  ARG330  LEU332  TRP337 
 LEU340  ASP343  GLU344 

> <Gold.Protein.RotatedAtoms>
   22.6879   18.3752   38.1517 H   0  0  0  0  0  0  0  0  0  0  0  0  # atno 1074 bound_to 1065
   24.5086   22.7308   44.9974 H   0  0  0  0  0  0  0  0  0  0  0  0  # atno 5197 bound_to 5192
   21.6789   18.8320   39.3442 LP  0  0  0  0  0  0  0  0  0  0  0  0  # atno 5659 bound_to 1065
   22.7766   19.8856   38.7513 LP  0  0  0  0  0  0  0  0  0  0  0  0  # atno 5660 bound_to 1065
   23.2514   22.9526   43.9890 LP  0  0  0  0  0  0  0  0  0  0  0  0  # atno 5669 bound_to 5192
   23.1817   21.8011   45.1448 LP  0  0  0  0  0  0  0  0  0  0  0  0  # atno 5670 bound_to 5192

> <Gold.Score>
     Fitness  S(hb_ext) S(vdw_ext)  S(hb_int)    S(int)      intcor
     21.50       0.00      16.68       0.00      -1.44      -0.76

> <Gold.Goldscore.Fitness>
21.5026

> <Gold.Goldscore.Internal.Vdw>
-1.7665

> <Gold.Goldscore.Internal.Torsion>
-0.4369

> <Gold.Goldscore.External.Vdw>
16.6845

> <Gold.Goldscore.Internal.HBond>
0.0000

> <Gold.Goldscore.External.HBond>
0.0000

> <Gold.Goldscore.Internal.Correction>
-0.7650

> <Gold.Goldscore.Internal.Vdw.Weighted>
-1.7665

> <Gold.Goldscore.Internal.Torsion.Weighted>
-0.4369

> <Gold.Goldscore.External.Vdw.Weighted>
22.9412

> <Gold.Goldscore.Internal.HBond.Weighted>
0.0000

> <Gold.Goldscore.External.HBond.Weighted>
0.0000

> <Gold.Goldscore.Internal.Correction.Weighted>
-0.7650

> <Gold.Rescore>
     Score     S(PLP)   S(hbond)     S(cho)   S(metal)  DE(clash)   DE(tors)     intcor
     17.84     -18.64       0.30       0.00       0.00       0.39       0.66       ----

> <Gold.PLP.Fitness>
17.8435

> <Gold.PLP.PLP>
-18.6439

> <Gold.PLP.part.hbond>
-1.0000

> <Gold.PLP.part.metal>
0.0000

> <Gold.PLP.part.buried>
-0.1128

> <Gold.PLP.part.nonpolar>
-17.8776

> <Gold.PLP.part.repulsive>
0.0213

> <Gold.PLP.ligand.clash>
0.3927

> <Gold.PLP.ligand.torsion>
0.6559

> <Gold.PLP.Chemscore.Hbond>
0.3013

> <Gold.PLP.Chemscore.CHOScore>
0.0000

> <Gold.PLP.Chemscore.Metal>
0.0000

> <Gold.PLP.Chemscore.Internal.Correction>
   9.000000E+99

