#       Name:                CT1002167954
#       Creating user name   hitesit
#       Creation time:       Sun Apr 16 02:21:46 2023


#       File generated by GOLD software.
#

@<TRIPOS>MOLECULE
CT1002167954|ligand_prepared|mol2|1|dock2
    29    30     1
SMALL
NO_CHARGES


@<TRIPOS>ATOM
      1 C1          25.8531  17.8063  40.1618 C.3            1 RES1               0.0000
      2 C2          24.9285  18.6202  41.0900 C.ar           1 RES1               0.0000
      3 C3          25.0270  16.6241  39.6636 C.2            1 RES1               0.0000
      4 C4          26.2996  18.7614  39.0603 C.2            1 RES1               0.0000
      5 C5          27.1187  17.2604  40.8629 C.3            1 RES1               0.0000
      6 C6          24.6442  18.1726  42.3767 C.ar           1 RES1               0.0000
      7 C7          24.3556  19.8195  40.6754 C.ar           1 RES1               0.0000
      8 N8          24.5940  16.6560  38.3707 N.am           1 RES1               0.0000
      9 O9          24.7266  15.6967  40.4052 O.2            1 RES1               0.0000
     10 N10         25.8850  18.5037  37.7799 N.am           1 RES1               0.0000
     11 O11         26.9931  19.7440  39.2923 O.2            1 RES1               0.0000
     12 C12         28.1382  16.6602  39.9076 C.3            1 RES1               0.0000
     13 C13         23.8195  18.8991  43.2195 C.ar           1 RES1               0.0000
     14 C14         23.5310  20.5444  41.5198 C.ar           1 RES1               0.0000
     15 C15         25.0271  17.5116  37.3900 C.2            1 RES1               0.0000
     16 C16         23.2628  20.0856  42.7919 C.ar           1 RES1               0.0000
     17 O17         24.6574  17.3769  36.2271 O.2            1 RES1               0.0000
     18 H18         27.5944  18.0775  41.4192 H              1 RES1               0.0000
     19 H19         26.8182  16.4926  41.5865 H              1 RES1               0.0000
     20 H20         25.0713  17.2399  42.7298 H              1 RES1               0.0000
     21 H21         24.5518  20.1993  39.6784 H              1 RES1               0.0000
     22 H22         23.8823  15.9812  38.1090 H              1 RES1               0.0000
     23 H23         26.2497  19.1073  37.0499 H              1 RES1               0.0000
     24 H24         29.0061  16.2924  40.4510 H              1 RES1               0.0000
     25 H25         27.7063  15.8280  39.3556 H              1 RES1               0.0000
     26 H26         28.4780  17.4034  39.1893 H              1 RES1               0.0000
     27 H27         23.6104  18.5330  44.2192 H              1 RES1               0.0000
     28 H28         23.0945  21.4774  41.1788 H              1 RES1               0.0000
     29 H29         22.6171  20.6547  43.4524 H              1 RES1               0.0000
@<TRIPOS>BOND
    1    1    2 1     
    2    1    3 1     
    3    1    4 1     
    4    1    5 1     
    5    2    6 ar    
    6    2    7 ar    
    7    3    8 1     
    8    3    9 2     
    9    4   10 1     
   10    4   11 2     
   11    5   12 1     
   12    5   18 1     
   13    5   19 1     
   14    6   13 ar    
   15    6   20 1     
   16    7   14 ar    
   17    7   21 1     
   18    8   15 1     
   19    8   22 1     
   20   10   15 1     
   21   10   23 1     
   22   12   24 1     
   23   12   25 1     
   24   12   26 1     
   25   13   16 ar    
   26   13   27 1     
   27   14   16 ar    
   28   14   28 1     
   29   15   17 2     
   30   16   29 1     
@<TRIPOS>SUBSTRUCTURE
      1 RES1           1
@<TRIPOS>SET
DONOR_HYDROGENS      STATIC     ATOMS    <user>   **** ""
2 22 23
ATOM$RED        STATIC     ATOMS    COLORGROUP SYSTEM
2 22 23
@<TRIPOS>COMMENT
> <Gold.Version>
2022.3.0

> <Gold.Id.Protein>
unknown|1wbs_clean|pdb

> <Gold.Protein.RotatedTorsions>
[ 1074 1065 1064 1062 ] final   56.60 input   60.04 | X-H torsion
[ 5197 5192 5191 5188 ] final   66.77 input   60.02 | X-H torsion

> <Gold.Protein.ActiveResidues>
 TYR69   ARG73   ASP324  GLN325  SER326  PHE327  GLU328  ARG330  LEU332  TRP337 
 LEU340  ASP343  GLU344 

> <Gold.Protein.RotatedAtoms>
   23.0743   19.1634   38.1317 H   0  0  0  0  0  0  0  0  0  0  0  0  # atno 1074 bound_to 1065
   23.5601   23.1141   44.0147 H   0  0  0  0  0  0  0  0  0  0  0  0  # atno 5197 bound_to 5192
   21.9472   18.1941   38.7940 LP  0  0  0  0  0  0  0  0  0  0  0  0  # atno 5659 bound_to 1065
   22.1192   19.7299   39.3215 LP  0  0  0  0  0  0  0  0  0  0  0  0  # atno 5660 bound_to 1065
   22.9472   21.8959   44.9019 LP  0  0  0  0  0  0  0  0  0  0  0  0  # atno 5669 bound_to 5192
   24.4415   22.4716   45.2219 LP  0  0  0  0  0  0  0  0  0  0  0  0  # atno 5670 bound_to 5192

> <Gold.Score>
     Fitness  S(hb_ext) S(vdw_ext)  S(hb_int)    S(int)      intcor
     26.38       4.59      16.71       0.00      -1.19      -0.77

> <Gold.Goldscore.Fitness>
26.3777

> <Gold.Goldscore.Internal.Vdw>
-1.4553

> <Gold.Goldscore.Internal.Torsion>
-0.5078

> <Gold.Goldscore.External.Vdw>
16.7125

> <Gold.Goldscore.Internal.HBond>
0.0000

> <Gold.Goldscore.External.HBond>
4.5918

> <Gold.Goldscore.Internal.Correction>
-0.7693

> <Gold.Goldscore.Hbonds>
donor molecule, donor type, donor heavy atom, donor atom, acceptor molecule, acceptor atom, score
      L1  H     8    22       P1  5495  0.77

> <Gold.Goldscore.Internal.Vdw.Weighted>
-1.4553

> <Gold.Goldscore.Internal.Torsion.Weighted>
-0.5078

> <Gold.Goldscore.External.Vdw.Weighted>
22.9797

> <Gold.Goldscore.Internal.HBond.Weighted>
0.0000

> <Gold.Goldscore.External.HBond.Weighted>
4.5918

> <Gold.Goldscore.Internal.Correction.Weighted>
-0.7693

> <Gold.Rescore>
     Score     S(PLP)   S(hbond)     S(cho)   S(metal)  DE(clash)   DE(tors)     intcor
     22.25     -21.07       1.00       0.00       0.00       0.49       0.66       ----

> <Gold.PLP.Fitness>
22.2527

> <Gold.PLP.PLP>
-21.0714

> <Gold.PLP.part.hbond>
-1.0405

> <Gold.PLP.part.metal>
0.0000

> <Gold.PLP.part.buried>
-1.1780

> <Gold.PLP.part.nonpolar>
-19.3170

> <Gold.PLP.part.repulsive>
0.4683

> <Gold.PLP.ligand.clash>
0.4909

> <Gold.PLP.ligand.torsion>
0.6639

> <Gold.PLP.Chemscore.Hbond>
1.0000

> <Gold.PLP.Chemscore.CHOScore>
0.0000

> <Gold.PLP.Chemscore.Metal>
0.0000

> <Gold.Chemscore.Hbonds>
donor molecule, donor type, donor heavy atom, donor atom, acceptor molecule, acceptor atom, score
      L1  H     8    22       P1  5495  0.91

> <Gold.PLP.Chemscore.Internal.Correction>
   9.000000E+99

