@<TRIPOS>MOLECULE
B:THR5
   297   299    20     0     1
SMALL
NO_CHARGES
****
Generated from the CSD

@<TRIPOS>ATOM
     1 N      -10.2740 -13.1720  19.0030   N.3       1 THR5   0.0000
     2 CA     -11.4440 -13.4390  18.1300   C.3       1 THR5   0.0000
     3 C      -11.4280 -12.4770  16.9450   C.2       1 THR5   0.0000
     4 O      -10.8890 -11.3580  17.0320   O.2       1 THR5   0.0000
     5 CB     -12.8120 -13.2880  18.8620   C.3       1 THR5   0.0000
     6 CG2    -12.8220 -14.0380  20.1990   C.3       1 THR5   0.0000
     7 OG1    -13.1120 -11.8960  19.0670   O.3       1 THR5   0.0000
     8 N      -12.0310 -12.9040  15.8470   N.am      2 THR6   0.0000
     9 CA     -12.0760 -12.0590  14.6450   C.3       2 THR6   0.0000
    10 C      -12.8990 -10.7940  14.8960   C.2       2 THR6   0.0000
    11 O      -12.5270  -9.7010  14.4650   O.2       2 THR6   0.0000
    12 CB     -12.5890 -12.8510  13.4510   C.3       2 THR6   0.0000
    13 CG2    -12.5080 -12.0140  12.1840   C.3       2 THR6   0.0000
    14 OG1    -11.7670 -14.0240  13.3130   O.3       2 THR6   0.0000
    15 N      -13.9820 -10.9410  15.6460   N.am      3 TYR7   0.0000
    16 CA     -14.7890  -9.7880  16.0520   C.3       3 TYR7   0.0000
    17 C      -13.9280  -8.7600  16.8230   C.2       3 TYR7   0.0000
    18 O      -13.9500  -7.5540  16.5250   O.2       3 TYR7   0.0000
    19 CB     -15.9920 -10.2530  16.8920   C.3       3 TYR7   0.0000
    20 CG     -16.6380  -9.1370  17.6900   C.ar      3 TYR7   0.0000
    21 CD1    -17.4980  -8.2430  17.0830   C.ar      3 TYR7   0.0000
    22 CD2    -16.3680  -8.9800  19.0560   C.ar      3 TYR7   0.0000
    23 CE1    -18.0920  -7.2060  17.8030   C.ar      3 TYR7   0.0000
    24 CE2    -16.9480  -7.9470  19.7920   C.ar      3 TYR7   0.0000
    25 CZ     -17.8100  -7.0610  19.1530   C.ar      3 TYR7   0.0000
    26 OH     -18.3980  -6.0450  19.8770   O.3       3 TYR7   0.0000
    27 N      -13.1620  -9.2290  17.8030   N.am      4 ALA8   0.0000
    28 CA     -12.3330  -8.3220  18.6130   C.3       4 ALA8   0.0000
    29 C      -11.3010  -7.6200  17.7290   C.2       4 ALA8   0.0000
    30 O      -10.9990  -6.4260  17.9120   O.2       4 ALA8   0.0000
    31 CB     -11.6420  -9.0810  19.7770   C.3       4 ALA8   0.0000
    32 N      -10.7660  -8.3680  16.7670   N.am      5 ASP9   0.0000
    33 CA      -9.8220  -7.8130  15.8080   C.3       5 ASP9   0.0000
    34 C      -10.4670  -6.7060  14.9920   C.2       5 ASP9   0.0000
    35 O       -9.8650  -5.6330  14.7970   O.2       5 ASP9   0.0000
    36 CB      -9.2590  -8.9090  14.8970   C.3       5 ASP9   0.0000
    37 CG      -8.2600  -9.7970  15.6040   C.ar      5 ASP9   0.0000
    38 OD1     -7.7310  -9.3910  16.6610   O.co2     5 ASP9   0.0000
    39 OD2     -7.9720 -10.8980  15.0860   O.co2     5 ASP9   0.0000
    40 N      -11.6980  -6.9450  14.5440   N.am      6 PHE10   0.0000
    41 CA     -12.4130  -5.9250  13.7870   C.3       6 PHE10   0.0000
    42 C      -12.6850  -4.6610  14.6220   C.2       6 PHE10   0.0000
    43 O      -12.3830  -3.5410  14.1840   O.2       6 PHE10   0.0000
    44 CB     -13.7070  -6.4860  13.2060   C.3       6 PHE10   0.0000
    45 CG     -14.5140  -5.4640  12.4550   C.ar      6 PHE10   0.0000
    46 CD1    -14.0260  -4.9250  11.2640   C.ar      6 PHE10   0.0000
    47 CD2    -15.7310  -5.0290  12.9460   C.ar      6 PHE10   0.0000
    48 CE1    -14.7670  -3.9720  10.5580   C.ar      6 PHE10   0.0000
    49 CE2    -16.4820  -4.0710  12.2490   C.ar      6 PHE10   0.0000
    50 CZ     -15.9880  -3.5510  11.0550   C.ar      6 PHE10   0.0000
    51 N      -13.2240  -4.8460  15.8250   N.am      7 ILE11   0.0000
    52 CA     -13.5770  -3.7220  16.7160   C.3       7 ILE11   0.0000
    53 C      -12.3740  -2.8420  17.0630   C.2       7 ILE11   0.0000
    54 O      -12.5270  -1.6310  17.2790   O.2       7 ILE11   0.0000
    55 CB     -14.2730  -4.2320  18.0200   C.3       7 ILE11   0.0000
    56 CG1    -15.5950  -4.9280  17.6710   C.3       7 ILE11   0.0000
    57 CG2    -14.5550  -3.0920  18.9970   C.3       7 ILE11   0.0000
    58 CD1    -16.5830  -4.0980  16.8620   C.3       7 ILE11   0.0000
    59 N      -11.1890  -3.4530  17.1180   N.am      8 ALA12   0.0000
    60 CA      -9.9470  -2.7390  17.4330   C.3       8 ALA12   0.0000
    61 C       -9.3030  -2.1180  16.1830   C.2       8 ALA12   0.0000
    62 O       -8.3160  -1.3850  16.2850   O.2       8 ALA12   0.0000
    63 CB      -8.9750  -3.6580  18.1350   C.3       8 ALA12   0.0000
    64 N       -9.8620  -2.4150  15.0100   N.am      9 SER13   0.0000
    65 CA      -9.3090  -1.8930  13.7430   C.3       9 SER13   0.0000
    66 C       -9.7200  -0.4440  13.5090   C.2       9 SER13   0.0000
    67 O      -10.6330   0.0700  14.1610   O.2       9 SER13   0.0000
    68 CB      -9.7650  -2.7540  12.5470   C.3       9 SER13   0.0000
    69 OG     -11.0610  -2.3770  12.1000   O.3       9 SER13   0.0000
    70 N       -9.0710   0.2020  12.5470   N.am     10 GLY14   0.0000
    71 CA      -9.3770   1.5890  12.2230   C.3      10 GLY14   0.0000
    72 C      -10.4960   1.7060  11.1960   C.2      10 GLY14   0.0000
    73 O      -10.8010   2.8060  10.7480   O.2      10 GLY14   0.0000
    74 N      -11.1290   0.5890  10.8410   N.am     11 ARG15   0.0000
    75 CA     -12.1600   0.6130   9.7900   C.3      11 ARG15   0.0000
    76 C      -13.5740   0.2090  10.2440   C.2      11 ARG15   0.0000
    77 O      -14.3070  -0.4520   9.5060   O.2      11 ARG15   0.0000
    78 CB     -11.6950  -0.2010   8.5590   C.3      11 ARG15   0.0000
    79 CG     -10.6150   0.5040   7.7260   C.3      11 ARG15   0.0000
    80 CD     -10.7020   0.1170   6.2270   C.3      11 ARG15   0.0000
    81 NE     -10.1860   1.2080   5.4140   N.2      11 ARG15   0.0000
    82 CZ     -10.8040   1.7880   4.3960   C.ar     11 ARG15   0.0000
    83 NH1    -11.9990   1.3830   3.9570   N.2      11 ARG15   0.0000
    84 NH2    -10.1860   2.7720   3.7800   N.2      11 ARG15   0.0000
    85 N      -13.9670   0.6230  11.4490   N.am     12 THR16   0.0000
    86 CA     -15.2950   0.2950  11.9640   C.3      12 THR16   0.0000
    87 C      -16.2850   1.4310  11.8080   C.2      12 THR16   0.0000
    88 O      -17.4680   1.2550  12.0720   O.2      12 THR16   0.0000
    89 CB     -15.2720  -0.1160  13.4540   C.3      12 THR16   0.0000
    90 CG2    -14.2650  -1.2290  13.6630   C.3      12 THR16   0.0000
    91 OG1    -14.9200   1.0160  14.2570   O.3      12 THR16   0.0000
    92 N      -15.7840   2.5990  11.4150   N.am     13 GLY17   0.0000
    93 CA     -16.6270   3.7730  11.1580   C.3      13 GLY17   0.0000
    94 C      -17.1180   3.7740   9.7230   C.2      13 GLY17   0.0000
    95 O      -16.8650   2.8190   8.9640   O.2      13 GLY17   0.0000
    96 N      -17.8450   4.8210   9.3330   N.am     14 ARG18   0.0000
    97 CA     -18.3670   4.8510   7.9580   C.3      14 ARG18   0.0000
    98 C      -17.1930   4.8740   7.0000   C.2      14 ARG18   0.0000
    99 O      -16.1970   5.5730   7.2440   O.2      14 ARG18   0.0000
   100 CB     -19.2880   6.0530   7.7290   C.3      14 ARG18   0.0000
   101 CG     -20.5670   6.0000   8.5480   C.3      14 ARG18   0.0000
   102 CD     -21.3420   7.3070   8.4410   C.3      14 ARG18   0.0000
   103 NE     -22.6410   7.2490   9.1220   N.2      14 ARG18   0.0000
   104 CZ     -22.8250   7.4030  10.4340   C.ar     14 ARG18   0.0000
   105 NH1    -21.7910   7.6140  11.2450   N.2      14 ARG18   0.0000
   106 NH2    -24.0510   7.3390  10.9420   N.2      14 ARG18   0.0000
   107 N      -17.3160   4.1120   5.9180   N.am     15 ARG19   0.0000
   108 CA     -16.2170   3.9110   4.9770   C.3      15 ARG19   0.0000
   109 C      -16.4620   4.7200   3.7220   C.2      15 ARG19   0.0000
   110 O      -17.5150   4.6120   3.1040   O.2      15 ARG19   0.0000
   111 CB     -16.0780   2.4290   4.6260   C.3      15 ARG19   0.0000
   112 CG     -15.7380   1.5870   5.8440   C.3      15 ARG19   0.0000
   113 CD     -16.1100   0.1090   5.6750   C.3      15 ARG19   0.0000
   114 NE     -17.5620  -0.0990   5.6890   N.2      15 ARG19   0.0000
   115 CZ     -18.1310  -1.2790   5.9170   C.ar     15 ARG19   0.0000
   116 NH1    -17.3690  -2.3460   6.1510   N.2      15 ARG19   0.0000
   117 NH2    -19.4560  -1.4010   5.8960   N.2      15 ARG19   0.0000
   118 N      -15.4710   5.5210   3.3630   N.am     16 ASN20   0.0000
   119 CA     -15.5330   6.3510   2.1830   C.3      16 ASN20   0.0000
   120 C      -15.3490   5.5130   0.9430   C.2      16 ASN20   0.0000
   121 O      -14.6150   4.5190   0.9560   O.2      16 ASN20   0.0000
   122 CB     -14.4260   7.4000   2.2310   C.3      16 ASN20   0.0000
   123 CG     -14.6380   8.4170   3.3310   C.2      16 ASN20   0.0000
   124 ND2    -13.5510   8.8500   3.9560   N.am     16 ASN20   0.0000
   125 OD1    -15.7710   8.8200   3.6040   O.2      16 ASN20   0.0000
   126 N      -16.0440   5.9160  -0.1100   N.am     17 ALA21   0.0000
   127 CA     -15.8240   5.4010  -1.4430   C.3      17 ALA21   0.0000
   128 C      -14.4360   5.8160  -1.9310   C.2      17 ALA21   0.0000
   129 O      -13.8330   6.7620  -1.4120   O.2      17 ALA21   0.0000
   130 CB     -16.8880   5.9380  -2.3850   C.3      17 ALA21   0.0000
   131 N      -13.9230   5.0770  -2.9070   N.am     18 ILE22   0.0000
   132 CA     -12.7320   5.4940  -3.6220   C.3      18 ILE22   0.0000
   133 C      -13.1970   6.2210  -4.8800   C.2      18 ILE22   0.0000
   134 O      -13.9990   5.6900  -5.6600   O.2      18 ILE22   0.0000
   135 CB     -11.7750   4.3070  -3.9430   C.3      18 ILE22   0.0000
   136 CG1    -12.4420   3.2740  -4.8630   C.3      18 ILE22   0.0000
   137 CG2    -11.2830   3.6560  -2.6620   C.3      18 ILE22   0.0000
   138 CD1    -11.5250   2.1570  -5.3110   C.3      18 ILE22   0.0000
   139 N      -12.7400   7.4600  -5.0340   N.am     19 HIS23   0.0000
   140 CA     -13.0040   8.2570  -6.2360   C.3      19 HIS23   0.0000
   141 C      -11.7690   8.2070  -7.1380   C.2      19 HIS23   0.0000
   142 O      -11.5530   9.0890  -7.9720   O.2      19 HIS23   0.0000
   143 CB     -13.3470   9.7090  -5.8650   C.3      19 HIS23   0.0000
   144 CG     -14.4940   9.8430  -4.9080   C.2      19 HIS23   0.0000
   145 CD2    -14.5180  10.0590  -3.5720   C.2      19 HIS23   0.0000
   146 ND1    -15.8110   9.7680  -5.3060   N.pl3    19 HIS23   0.0000
   147 CE1    -16.5990   9.9260  -4.2570   C.2      19 HIS23   0.0000
   148 NE2    -15.8390  10.1020  -3.1910   N.2      19 HIS23   0.0000
   149 N      -10.9740   7.1520  -6.9460   N.am     20 ASP24   0.0000
   150 CA      -9.7170   6.9000  -7.6590   C.3      20 ASP24   0.0000
   151 C       -8.7060   8.0520  -7.5520   C.2      20 ASP24   0.0000
   152 O       -8.0030   8.1590  -6.5410   O.2      20 ASP24   0.0000
   153 CB      -9.9660   6.5030  -9.1240   C.3      20 ASP24   0.0000
   154 CG      -8.7750   5.7940  -9.7450   C.ar     20 ASP24   0.0000
   155 OD1     -7.9780   5.1950  -8.9870   O.co2    20 ASP24   0.0000
   156 OD2     -8.6370   5.8270 -10.9870   O.co2    20 ASP24   0.0000
   157 OXT     -8.5630   8.8870  -8.4520   O.3      20 ASP24   0.0000
   158 H1     -17.7168  -8.3496  16.0215   H         3 TYR7   0.0000
   159 H2     -12.1396  -7.8398  14.7301   H         6 PHE10   0.0000
   160 H3     -15.1690  -9.3059  15.1525   H         3 TYR7   0.0000
   161 H4     -11.7787  -5.6340  12.9510   H         6 PHE10   0.0000
   162 H5     -13.6173  -4.9531  18.5058   H         7 ILE11   0.0000
   163 H6     -15.6524 -11.0210  17.5854   H         3 TYR7   0.0000
   164 H7     -16.7390 -10.6744  16.2210   H         3 TYR7   0.0000
   165 H8     -15.6935  -9.6767  19.5516   H         3 TYR7   0.0000
   166 H9     -12.4654 -13.8213  15.8348   H         2 THR6   0.0000
   167 H10    -16.1277  -3.8135  15.9145   H         7 ILE11   0.0000
   168 H11    -17.4802  -4.6852  16.6718   H         7 ILE11   0.0000
   169 H12    -16.8476  -3.2018  17.4212   H         7 ILE11   0.0000
   170 H13    -12.5583  -0.3822   7.9204   H        11 ARG15   0.0000
   171 H14    -11.2948  -1.1522   8.9068   H        11 ARG15   0.0000
   172 H15     -9.6349   0.2210   8.1071   H        11 ARG15   0.0000
   173 H16    -10.7440   1.5812   7.8203   H        11 ARG15   0.0000
   174 H17    -11.7406  -0.0742   5.9611   H        11 ARG15   0.0000
   175 H18    -10.1106  -0.7799   6.0487   H        11 ARG15   0.0000
   176 H19    -11.0041  -9.8648  19.3712   H         4 ALA8   0.0000
   177 H20    -11.0376  -8.3846  20.3563   H         4 ALA8   0.0000
   178 H21    -12.3995  -9.5263  20.4203   H         4 ALA8   0.0000
   179 H22    -11.4725 -11.7299  12.0022   H         2 THR6   0.0000
   180 H23    -12.8784 -12.5951  11.3408   H         2 THR6   0.0000
   181 H24    -13.1150 -11.1176  12.3017   H         2 THR6   0.0000
   182 H25    -16.8381   7.0256  -2.4067   H        17 ALA21   0.0000
   183 H26    -16.7169   5.5467  -3.3868   H        17 ALA21   0.0000
   184 H27    -17.8717   5.6266  -2.0368   H        17 ALA21   0.0000
   185 H28    -14.3732   4.2026  -3.1580   H        18 ILE22   0.0000
   186 H29    -12.1931   6.2056  -2.9982   H        18 ILE22   0.0000
   187 H30    -12.4385   1.8551   3.1733   H        11 ARG15   0.0000
   188 H31    -10.6306   3.2387   2.9960   H        11 ARG15   0.0000
   189 H32    -13.3334   1.1751  12.0181   H        12 THR16   0.0000
   190 H33    -15.6713  -0.5524  11.3929   H        12 THR16   0.0000
   191 H34    -16.2609  -0.4679  13.7442   H        12 THR16   0.0000
   192 H35    -13.2751  -0.8828  13.3693   H        12 THR16   0.0000
   193 H36    -14.2527  -1.5148  14.7138   H        12 THR16   0.0000
   194 H37    -14.5436  -2.0892  13.0561   H        12 THR16   0.0000
   195 H38    -15.5890   1.7375  14.1233   H        12 THR16   0.0000
   196 H39    -14.7804   2.6816  11.2880   H        13 GLY17   0.0000
   197 H40    -16.0466   4.6767  11.3383   H        13 GLY17   0.0000
   198 H41    -17.4841   3.7520  11.8295   H        13 GLY17   0.0000
   199 H42    -18.0352   5.5847   9.9740   H        14 ARG18   0.0000
   200 H43    -18.9375   3.9398   7.7844   H        14 ARG18   0.0000
   201 H44    -19.5553   6.0866   6.6738   H        14 ARG18   0.0000
   202 H45    -18.7454   6.9589   7.9951   H        14 ARG18   0.0000
   203 H46    -20.3136   5.8214   9.5919   H        14 ARG18   0.0000
   204 H47    -21.1905   5.1859   8.1814   H        14 ARG18   0.0000
   205 H48    -21.5096   7.5282   7.3879   H        14 ARG18   0.0000
   206 H49    -20.7483   8.1025   8.8890   H        14 ARG18   0.0000
   207 H50    -21.9432   7.7298  12.2418   H        14 ARG18   0.0000
   208 H51    -24.1935   7.4559  11.9401   H        14 ARG18   0.0000
   209 H52    -13.6000  10.2446  -6.7788   H        19 HIS23   0.0000
   210 H53    -12.4676  10.1624  -5.4101   H        19 HIS23   0.0000
   211 H54    -13.6533  10.1767  -2.9206   H        19 HIS23   0.0000
   212 H55    -16.1272   9.6150  -6.2583   H        19 HIS23   0.0000
   213 H56    -17.6879   9.9133  -4.2693   H        19 HIS23   0.0000
   214 H57    -11.2621   6.4701  -6.2516   H        20 ASP24   0.0000
   215 H58     -9.2561   6.0381  -7.1788   H        20 ASP24   0.0000
   216 H59    -10.1751   7.4037  -9.6992   H        20 ASP24   0.0000
   217 H60    -10.8278   5.8385  -9.1641   H        20 ASP24   0.0000
   218 H61     -9.4222   9.3613  -8.6031   H        20 ASP24   0.0000
   219 H62    -18.2040   3.6540   5.7394   H        15 ARG19   0.0000
   220 H63    -15.2916   4.2511   5.4394   H        15 ARG19   0.0000
   221 H64    -15.2861   2.3151   3.8872   H        15 ARG19   0.0000
   222 H65    -17.0192   2.0769   4.2064   H        15 ARG19   0.0000
   223 H66    -16.2779   1.9846   6.7021   H        15 ARG19   0.0000
   224 H67    -14.6665   1.6564   6.0254   H        15 ARG19   0.0000
   225 H68    -15.6657  -0.4605   6.4900   H        15 ARG19   0.0000
   226 H69    -15.7133  -0.2467   4.7252   H        15 ARG19   0.0000
   227 H70    -17.7993  -3.2485   6.3255   H        15 ARG19   0.0000
   228 H71    -19.8853  -2.3040   6.0707   H        15 ARG19   0.0000
   229 H72    -14.6359   5.5529   3.9391   H        16 ASN20   0.0000
   230 H73    -16.5007   6.8488   2.1421   H        16 ASN20   0.0000
   231 H74    -14.3968   7.9207   1.2750   H        16 ASN20   0.0000
   232 H75    -13.4751   6.8966   2.3994   H        16 ASN20   0.0000
   233 H76    -13.6329   9.5328   4.7025   H        16 ASN20   0.0000
   234 H77    -12.6374   8.4985   3.6877   H        16 ASN20   0.0000
   235 H78    -16.7640   6.6185   0.0250   H        17 ALA21   0.0000
   236 H79    -15.8838   4.3139  -1.4198   H        17 ALA21   0.0000
   237 H80    -10.9089   4.7093  -4.4664   H        18 ILE22   0.0000
   238 H81    -12.8075   3.7915  -5.7487   H        18 ILE22   0.0000
   239 H82    -13.2816   2.8325  -4.3282   H        18 ILE22   0.0000
   240 H83    -12.1339   3.2801  -2.0958   H        18 ILE22   0.0000
   241 H84    -10.6167   2.8302  -2.9072   H        18 ILE22   0.0000
   242 H85    -10.7456   4.3909  -2.0645   H        18 ILE22   0.0000
   243 H86    -11.1574   1.6175  -4.4394   H        18 ILE22   0.0000
   244 H87    -12.0744   1.4730  -5.9561   H        18 ILE22   0.0000
   245 H88    -10.6832   2.5765  -5.8599   H        18 ILE22   0.0000
   246 H89    -12.1859   7.8708  -4.2893   H        19 HIS23   0.0000
   247 H90    -13.8475   7.8211  -6.7693   H        19 HIS23   0.0000
   248 H91    -12.2319   1.6481   9.4594   H        11 ARG15   0.0000
   249 H92    -12.0408 -13.6395  20.8446   H         1 THR5   0.0000
   250 H93    -13.7907 -13.9099  20.6798   H         1 THR5   0.0000
   251 H94    -12.6417 -15.0973  20.0223   H         1 THR5   0.0000
   252 H95     -8.2224  -1.9355  13.8007   H         9 SER13   0.0000
   253 H96    -11.3662 -14.4565  17.7499   H         1 THR5   0.0000
   254 H97    -10.1932  -1.9290  18.1179   H         8 ALA12   0.0000
   255 H98    -10.3168 -12.2167  19.3433   H         1 THR5   0.0000
   256 H99    -10.2862 -13.8125  19.7903   H         1 THR5   0.0000
   257 H100   -16.7291  -7.8353  20.8529   H         3 TYR7   0.0000
   258 H101   -18.7727  -6.5149  17.3080   H         3 TYR7   0.0000
   259 H102   -14.2576 -11.8710  15.9449   H         3 TYR7   0.0000
   260 H103   -11.0561 -11.7495  14.4215   H         2 THR6   0.0000
   261 H104    -8.4816   2.0612  11.8215   H        10 GLY14   0.0000
   262 H105    -9.6813   2.1030  13.1335   H        10 GLY14   0.0000
   263 H106   -10.8985  -0.2868  11.2993   H        11 ARG15   0.0000
   264 H107   -13.3989  -5.7943  16.1417   H         7 ILE11   0.0000
   265 H108   -17.4427  -3.7368  12.6379   H         6 PHE10   0.0000
   266 H109    -9.7853  -3.7996  12.8506   H         9 SER13   0.0000
   267 H110    -9.0574  -2.6272  11.7290   H         9 SER13   0.0000
   268 H111   -15.2098  -2.3619  18.5237   H         7 ILE11   0.0000
   269 H112   -15.0384  -3.4891  19.8884   H         7 ILE11   0.0000
   270 H113   -13.6178  -2.6124  19.2754   H         7 ILE11   0.0000
   271 H114    -8.7667  -8.4377  14.0476   H         5 ASP9   0.0000
   272 H115   -10.0837  -9.5254  14.5424   H         5 ASP9   0.0000
   273 H116   -16.1103  -5.4341  13.8830   H         6 PHE10   0.0000
   274 H117   -16.5668  -2.8078  10.5086   H         6 PHE10   0.0000
   275 H118   -13.0596  -5.2493  10.8809   H         6 PHE10   0.0000
   276 H119   -13.5873 -13.7137  18.2267   H         1 THR5   0.0000
   277 H120   -14.3857  -3.5638   9.6232   H         6 PHE10   0.0000
   278 H121   -10.6832  -3.0111  14.9866   H         9 SER13   0.0000
   279 H122   -14.2951  -3.0984  16.1855   H         7 ILE11   0.0000
   280 H123   -13.1487 -10.2256  17.9951   H         4 ALA8   0.0000
   281 H124   -11.0496  -1.4253  11.8167   H         9 SER13   0.0000
   282 H125   -14.3137  -6.8728  14.0234   H         6 PHE10   0.0000
   283 H126   -13.4565  -7.2975  12.5243   H         6 PHE10   0.0000
   284 H127   -11.8282 -14.5702  14.1400   H         2 THR6   0.0000
   285 H128   -16.0806  -5.2115  18.6036   H         7 ILE11   0.0000
   286 H129   -15.3608  -5.8233  17.0969   H         7 ILE11   0.0000
   287 H130   -12.9835  -7.5620  19.0432   H         4 ALA8   0.0000
   288 H131    -8.3460  -0.2812  12.0262   H        10 GLY14   0.0000
   289 H132   -11.1454  -4.4504  16.9348   H         8 ALA12   0.0000
   290 H133    -8.7439  -4.5037  17.4890   H         8 ALA12   0.0000
   291 H134    -8.0596  -3.1134  18.3615   H         8 ALA12   0.0000
   292 H135    -9.4209  -4.0193  19.0605   H         8 ALA12   0.0000
   293 H136    -8.9924  -7.3801  16.3651   H         5 ASP9   0.0000
   294 H137   -11.0221  -9.3479  16.7005   H         5 ASP9   0.0000
   295 H138   -13.1597 -11.4349  18.1889   H         1 THR5   0.0000
   296 H139   -13.6219 -13.1479  13.6267   H         2 THR6   0.0000
   297 H140   -19.3854  -6.1469  19.8486   H         3 TYR7   0.0000
@<TRIPOS>BOND
     1     1     2    1
     2     2     3    1
     3     3     4    2
     4     2     5    1
     5     5     6    1
     6     5     7    1
     7     3     8   am
     8     8     9    1
     9     9    10    1
    10    10    11    2
    11     9    12    1
    12    12    13    1
    13    12    14    1
    14    10    15   am
    15    15    16    1
    16    16    17    1
    17    17    18    2
    18    16    19    1
    19    19    20    1
    20    20    21   ar
    21    20    22   ar
    22    21    23   ar
    23    22    24   ar
    24    23    25   ar
    25    24    25   ar
    26    25    26    1
    27    17    27   am
    28    27    28    1
    29    28    29    1
    30    29    30    2
    31    28    31    1
    32    29    32   am
    33    32    33    1
    34    33    34    1
    35    34    35    2
    36    33    36    1
    37    36    37    1
    38    37    38   ar
    39    37    39   ar
    40    34    40   am
    41    40    41    1
    42    41    42    1
    43    42    43    2
    44    41    44    1
    45    44    45    1
    46    45    46   ar
    47    45    47   ar
    48    46    48   ar
    49    47    49   ar
    50    48    50   ar
    51    49    50   ar
    52    42    51   am
    53    51    52    1
    54    52    53    1
    55    53    54    2
    56    52    55    1
    57    55    56    1
    58    55    57    1
    59    56    58    1
    60    53    59   am
    61    59    60    1
    62    60    61    1
    63    61    62    2
    64    60    63    1
    65    61    64   am
    66    64    65    1
    67    65    66    1
    68    66    67    2
    69    65    68    1
    70    68    69    1
    71    66    70   am
    72    70    71    1
    73    71    72    1
    74    72    73    2
    75    72    74   am
    76    74    75    1
    77    75    76    1
    78    76    77    2
    79    75    78    1
    80    78    79    1
    81    79    80    1
    82    80    81    1
    83    81    82   ar
    84    82    83   ar
    85    82    84   ar
    86    76    85   am
    87    85    86    1
    88    86    87    1
    89    87    88    2
    90    86    89    1
    91    89    90    1
    92    89    91    1
    93    87    92   am
    94    92    93    1
    95    93    94    1
    96    94    95    2
    97    94    96   am
    98    96    97    1
    99    97    98    1
   100    98    99    2
   101    97   100    1
   102   100   101    1
   103   101   102    1
   104   102   103    1
   105   103   104   ar
   106   104   105   ar
   107   104   106   ar
   108    98   107   am
   109   107   108    1
   110   108   109    1
   111   109   110    2
   112   108   111    1
   113   111   112    1
   114   112   113    1
   115   113   114    1
   116   114   115   ar
   117   115   116   ar
   118   115   117   ar
   119   109   118   am
   120   118   119    1
   121   119   120    1
   122   120   121    2
   123   119   122    1
   124   122   123    1
   125   123   124   am
   126   123   125    2
   127   120   126   am
   128   126   127    1
   129   127   128    1
   130   128   129    2
   131   127   130    1
   132   128   131   am
   133   131   132    1
   134   132   133    1
   135   133   134    2
   136   132   135    1
   137   135   136    1
   138   135   137    1
   139   136   138    1
   140   133   139   am
   141   139   140    1
   142   140   141    1
   143   141   142    2
   144   140   143    1
   145   143   144    1
   146   144   145    2
   147   144   146    1
   148   146   147    1
   149   145   148    1
   150   147   148    2
   151   141   149   am
   152   149   150    1
   153   150   151    1
   154   151   152    2
   155   150   153    1
   156   153   154    1
   157   154   155   ar
   158   154   156   ar
   159   151   157    1
   160    21   158    1
   161    40   159    1
   162    16   160    1
   163    41   161    1
   164    55   162    1
   165    19   163    1
   166    19   164    1
   167    22   165    1
   168     8   166    1
   169    58   167    1
   170    58   168    1
   171    58   169    1
   172    78   170    1
   173    78   171    1
   174    79   172    1
   175    79   173    1
   176    80   174    1
   177    80   175    1
   178    31   176    1
   179    31   177    1
   180    31   178    1
   181    13   179    1
   182    13   180    1
   183    13   181    1
   184   130   182    1
   185   130   183    1
   186   130   184    1
   187   131   185    1
   188   132   186    1
   189    83   187    1
   190    84   188    1
   191    85   189    1
   192    86   190    1
   193    89   191    1
   194    90   192    1
   195    90   193    1
   196    90   194    1
   197    91   195    1
   198    92   196    1
   199    93   197    1
   200    93   198    1
   201    96   199    1
   202    97   200    1
   203   100   201    1
   204   100   202    1
   205   101   203    1
   206   101   204    1
   207   102   205    1
   208   102   206    1
   209   105   207    1
   210   106   208    1
   211   143   209    1
   212   143   210    1
   213   145   211    1
   214   146   212    1
   215   147   213    1
   216   149   214    1
   217   150   215    1
   218   153   216    1
   219   153   217    1
   220   157   218    1
   221   107   219    1
   222   108   220    1
   223   111   221    1
   224   111   222    1
   225   112   223    1
   226   112   224    1
   227   113   225    1
   228   113   226    1
   229   116   227    1
   230   117   228    1
   231   118   229    1
   232   119   230    1
   233   122   231    1
   234   122   232    1
   235   124   233    1
   236   124   234    1
   237   126   235    1
   238   127   236    1
   239   135   237    1
   240   136   238    1
   241   136   239    1
   242   137   240    1
   243   137   241    1
   244   137   242    1
   245   138   243    1
   246   138   244    1
   247   138   245    1
   248   139   246    1
   249   140   247    1
   250    75   248    1
   251     6   249    1
   252     6   250    1
   253     6   251    1
   254    65   252    1
   255     2   253    1
   256    60   254    1
   257     1   255    1
   258     1   256    1
   259    24   257    1
   260    23   258    1
   261    15   259    1
   262     9   260    1
   263    71   261    1
   264    71   262    1
   265    74   263    1
   266    51   264    1
   267    49   265    1
   268    68   266    1
   269    68   267    1
   270    57   268    1
   271    57   269    1
   272    57   270    1
   273    36   271    1
   274    36   272    1
   275    47   273    1
   276    50   274    1
   277    46   275    1
   278     5   276    1
   279    48   277    1
   280    64   278    1
   281    52   279    1
   282    27   280    1
   283    69   281    1
   284    44   282    1
   285    44   283    1
   286    14   284    1
   287    56   285    1
   288    56   286    1
   289    28   287    1
   290    70   288    1
   291    59   289    1
   292    63   290    1
   293    63   291    1
   294    63   292    1
   295    33   293    1
   296    32   294    1
   297     7   295    1
   298    12   296    1
   299    26   297    1
@<TRIPOS>SUBSTRUCTURE
     1 THR5        1 GROUP             0 B     THR     0  
     2 THR6        8 GROUP             0 B     THR     0  
     3 TYR7       15 GROUP             0 B     TYR     0  
     4 ALA8       27 GROUP             0 B     ALA     0  
     5 ASP9       32 GROUP             0 B     ASP     0  
     6 PHE10      40 GROUP             0 B     PHE     0  
     7 ILE11      51 GROUP             0 B     ILE     0  
     8 ALA12      59 GROUP             0 B     ALA     0  
     9 SER13      64 GROUP             0 B     SER     0  
    10 GLY14      70 GROUP             0 B     GLY     0  
    11 ARG15      74 GROUP             0 B     ARG     0  
    12 THR16      85 GROUP             0 B     THR     0  
    13 GLY17      92 GROUP             0 B     GLY     0  
    14 ARG18      96 GROUP             0 B     ARG     0  
    15 ARG19     107 GROUP             0 B     ARG     0  
    16 ASN20     118 GROUP             0 B     ASN     0  
    17 ALA21     126 GROUP             0 B     ALA     0  
    18 ILE22     131 GROUP             0 B     ILE     0  
    19 HIS23     139 GROUP             0 B     HIS     0  
    20 ASP24     149 GROUP             0 B     ASP     0  
@<TRIPOS>SET
CCDC_LIGAND STATIC ATOMS
297 1 2 3 4 5 6 7 8 9 \
10 11 12 13 14 15 16 17 18 19 \
20 21 22 23 24 25 26 27 28 29 \
30 31 32 33 34 35 36 37 38 39 \
40 41 42 43 44 45 46 47 48 49 \
50 51 52 53 54 55 56 57 58 59 \
60 61 62 63 64 65 66 67 68 69 \
70 71 72 73 74 75 76 77 78 79 \
80 81 82 83 84 85 86 87 88 89 \
90 91 92 93 94 95 96 97 98 99 \
100 101 102 103 104 105 106 107 108 109 \
110 111 112 113 114 115 116 117 118 119 \
120 121 122 123 124 125 126 127 128 129 \
130 131 132 133 134 135 136 137 138 139 \
140 141 142 143 144 145 146 147 148 149 \
150 151 152 153 154 155 156 157 158 159 \
160 161 162 163 164 165 166 167 168 169 \
170 171 172 173 174 175 176 177 178 179 \
180 181 182 183 184 185 186 187 188 189 \
190 191 192 193 194 195 196 197 198 199 \
200 201 202 203 204 205 206 207 208 209 \
210 211 212 213 214 215 216 217 218 219 \
220 221 222 223 224 225 226 227 228 229 \
230 231 232 233 234 235 236 237 238 239 \
240 241 242 243 244 245 246 247 248 249 \
250 251 252 253 254 255 256 257 258 259 \
260 261 262 263 264 265 266 267 268 269 \
270 271 272 273 274 275 276 277 278 279 \
280 281 282 283 284 285 286 287 288 289 \
290 291 292 293 294 295 296 297 
