#       Name:                00000001
#       Creating user name   hitesit
#       Creation time:       Thu Mar  2 16:48:41 2023


#       File generated by GOLD software.
#

@<TRIPOS>MOLECULE
00000001|prep_VS_1|mol2|1|dock3
    49    52     1
SMALL
USER_CHARGES


@<TRIPOS>ATOM
      1 C1         -39.5723 -41.1712   3.8587 C.2            1 noname            -0.0806
      2 C2         -38.2840 -41.1003   4.1366 C.2            1 noname            -0.0779
      3 N1         -37.3707 -41.4774   3.1596 N.am           1 noname             0.0248
      4 C3         -37.7915 -41.3802   1.7680 C.3            1 noname             0.1485
      5 C4         -39.1804 -42.0063   1.6142 C.2            1 noname             0.0779
      6 N2         -40.0180 -41.7555   2.6613 N.am           1 noname             0.0223
      7 C5         -41.4454 -42.0969   2.5441 C.3            1 noname             0.0144
      8 O1         -39.4991 -42.7062   0.6716 O.2            1 noname            -0.2820
      9 C6         -38.0103 -39.9101   1.3514 C.ar           1 noname             0.0167
     10 C7         -38.9358 -39.5560   0.3815 C.ar           1 noname            -0.0133
     11 C8         -39.0769 -38.2157   0.0647 C.ar           1 noname            -0.0379
     12 C9         -38.3033 -37.2772   0.7142 C.ar           1 noname            -0.0260
     13 C10        -37.4103 -37.7202   1.6651 C.ar           1 noname             0.0003
     14 N3         -37.2543 -39.0103   1.9905 N.ar           1 noname            -0.2412
     15 C11        -42.3612 -40.9487   2.9518 C.3            1 noname            -0.0142
     16 C12        -43.8190 -41.3159   2.8083 C.ar           1 noname            -0.0544
     17 C13        -44.1929 -42.5694   2.3476 C.ar           1 noname            -0.0569
     18 C14        -45.5299 -42.9054   2.2131 C.ar           1 noname            -0.0605
     19 C15        -46.5101 -41.9911   2.5372 C.ar           1 noname            -0.0616
     20 C16        -46.1519 -40.7407   2.9953 C.ar           1 noname            -0.0605
     21 C17        -44.8147 -40.4054   3.1295 C.ar           1 noname            -0.0569
     22 C18        -36.1884 -42.1495   3.3326 C.2            1 noname             0.0696
     23 O2         -35.7952 -42.5549   4.4268 O.2            1 noname            -0.2901
     24 C19        -36.6466 -42.0640   0.9970 C.3            1 noname            -0.0112
     25 C20        -35.7962 -42.7576   2.0256 C.3            1 noname             0.0244
     26 H1         -42.1464 -40.0742   2.3252 H              1 noname            -0.0142
     27 H2         -42.1629 -40.6699   3.9937 H              1 noname            -0.0142
     28 H3         -43.4291 -43.2955   2.0894 H              1 noname            -0.0569
     29 H4         -45.8068 -43.8904   1.8519 H              1 noname            -0.0605
     30 H5         -47.5575 -42.2541   2.4321 H              1 noname            -0.0616
     31 H6         -46.9194 -40.0177   3.2513 H              1 noname            -0.0605
     32 H7         -44.5429 -39.4189   3.4903 H              1 noname            -0.0569
     33 H8         -41.6585 -42.9670   3.1771 H              1 noname             0.0144
     34 H9         -41.6820 -42.3757   1.5104 H              1 noname             0.0144
     35 H10        -39.5348 -40.3109  -0.1170 H              1 noname            -0.0133
     36 H11        -36.0580 -41.3214   0.4604 H              1 noname            -0.0112
     37 H12        -37.0487 -42.7884   0.2903 H              1 noname            -0.0112
     38 H13        -35.9957 -43.8281   2.0272 H              1 noname             0.0244
     39 H14        -34.7395 -42.5857   1.8262 H              1 noname             0.0244
     40 H15        -40.2981 -40.7722   4.5657 H              1 noname            -0.0806
     41 H16        -37.9439 -40.7537   5.1113 H              1 noname            -0.0779
     42 H17        -39.7919 -37.9057  -0.6902 H              1 noname            -0.0379
     43 H18        -38.3953 -36.2211   0.4834 H              1 noname            -0.0260
     44 H19        -36.8002 -36.9841   2.1782 H              1 noname             0.0003
     45 ****       -38.8387 -42.8984  -0.0543 LP             1 noname             0.0000
     46 ****       -40.4215 -43.0894   0.6227 LP             1 noname             0.0000
     47 ****       -36.5949 -39.2913   2.6878 LP             1 noname             0.0000
     48 ****       -36.3474 -42.3989   5.2457 LP             1 noname             0.0000
     49 ****       -34.9236 -43.0401   4.4964 LP             1 noname             0.0000
@<TRIPOS>BOND
    1    1    2 2     
    2    6    1 1     
    3    2    3 1     
    4    3    4 1     
    5    3   22 am    
    6    4    5 1     
    7    4    9 1     
    8    4   24 1     
    9    5    6 am    
   10    5    8 2     
   11    6    7 1     
   12    7   15 1     
   13    9   10 ar    
   14   14    9 ar    
   15   10   11 ar    
   16   11   12 ar    
   17   12   13 ar    
   18   13   14 ar    
   19   15   16 1     
   20   16   17 ar    
   21   21   16 ar    
   22   17   18 ar    
   23   18   19 ar    
   24   19   20 ar    
   25   20   21 ar    
   26   22   23 2     
   27   25   22 1     
   28   24   25 1     
   29   15   26 1     
   30   15   27 1     
   31   17   28 1     
   32   18   29 1     
   33   19   30 1     
   34   20   31 1     
   35   21   32 1     
   36    7   33 1     
   37    7   34 1     
   38   10   35 1     
   39   24   36 1     
   40   24   37 1     
   41   25   38 1     
   42   25   39 1     
   43    1   40 1     
   44    2   41 1     
   45   11   42 1     
   46   12   43 1     
   47   13   44 1     
   48    8   45 1     
   49    8   46 1     
   50   14   47 1     
   51   23   48 1     
   52   23   49 1     
@<TRIPOS>SUBSTRUCTURE
      1 noname         1
@<TRIPOS>SET
LONE_PAIRS      STATIC     ATOMS    <user>   **** ""
5 45 46 47 48 49
ATOM$BLUE        STATIC     ATOMS    COLORGROUP SYSTEM
5 45 46 47 48 49
@<TRIPOS>COMMENT
> <Gold.Version>
2022.3.0

> <Gold.Id.Protein>
unknown|6c5f_clean|pdb

> <Gold.Protein.ActiveResidues>
 LEU49   SER50   GLN58   ILE95   LEU96   ILE97   ARG98   PRO1    PHE2    LEU3   
 LEU30   LYS32   PRO33   ASP35   ARG36   VAL37   ASN38   ILE61   SER62   SER63  
 ILE64   GLY65   VAL66   VAL67   PHE100  LEU102  GLU103  SER104  TRP105  GLN106 
 ILE107  GLY108  LYS109  ILE110  THR112  VAL113  PRO1    GLN58   PHE2    LEU96  
 LEU30   LYS32   PRO33   PHE2    PRO1    PRO101  LEU102  GLU103  VAL37   ASN38  
 LEU49   SER50   ILE61   SER62   SER63   ILE64   ILE64   GLY65   VAL66   VAL67  
 PRO33   ARG36   VAL37   PRO1    SER104  TRP105  GLN106  ILE107  GLY108  LYS109 
 ILE110  PRO1    PHE2    LEU3    ILE110  VAL113  LEU96   ILE97   ARG98   PHE2   
 PRO1   

> <Gold.Score>
     Score     S(PLP)   S(hbond)     S(cho)   S(metal)  DE(clash)   DE(tors)     intcor
     58.03     -54.40       0.00       2.00       0.00       0.00       1.21       0.05

> <Gold.PLP.Fitness>
58.0324

> <Gold.PLP.PLP>
-54.4025

> <Gold.PLP.part.hbond>
0.0000

> <Gold.PLP.part.metal>
0.0000

> <Gold.PLP.part.buried>
1.6851

> <Gold.PLP.part.nonpolar>
-56.2580

> <Gold.PLP.part.repulsive>
0.4430

> <Gold.PLP.ligand.clash>
0.0000

> <Gold.PLP.ligand.torsion>
1.2110

> <Gold.PLP.Chemscore.Hbond>
0.0000

> <Gold.PLP.Chemscore.CHOScore>
2.0000

> <Gold.PLP.Chemscore.Metal>
0.0000

> <Gold.Chemscore.Hbonds>
donor molecule, donor type, donor heavy atom, donor atom, acceptor molecule, acceptor atom, score
      L1  C    13    44       P1  2116  1.00
      L1  C    13    44       P1  2115  1.00

> <Gold.PLP.Chemscore.Internal.Correction>
0.0520

> <Gold.PLP.Reference.RMSD>
4.8907

> <Gold.Rescore>
     Score         DG    S(hbond)    S(metal)    S(lipo)     H(rot)  DE(clash)    DE(int)     intcor
     23.94     -24.89       0.00        0.00     195.79       1.37       0.05       0.89       ----

> <Gold.Chemscore.Fitness>
23.9428

> <Gold.Chemscore.DG>
-24.8855

> <Gold.Chemscore.ZeroCoef>
-5.4800

> <Gold.Chemscore.Hbond>
0.0000

> <Gold.Chemscore.Metal>
0.0000

> <Gold.Chemscore.Lipo>
195.7902

> <Gold.Chemscore.Internal_Hbond>
0.0000

> <Gold.Chemscore.DEClash>
0.0530

> <Gold.Chemscore.DEInternal>
0.8897

> <Gold.Chemscore.Rot>
1.3679

> <Gold.Chemscore.Internal.Correction>
   9.000000E+99

> <Gold.Chemscore.Reference.RMSD>
0.0000

> <Gold.Chemscore.Hbond.Weighted>
-0.0000

> <Gold.Chemscore.Metal.Weighted>
-0.0000

> <Gold.Chemscore.Lipo.Weighted>
-22.9075

> <Gold.Chemscore.Internal_Hbond.Weighted>
0.0000

> <Gold.Chemscore.DEClash.Weighted>
0.0530

> <Gold.Chemscore.DEInternal.Weighted>
0.8897

> <Gold.Chemscore.Rot.Weighted>
3.5019

> <Gold.Chemscore.Internal.Correction.Weighted>
   9.000000E+99

> <Gold.Reference.RMSD>
4.8907

