#       Name:                00000001
#       Creating user name   hitesit
#       Creation time:       Thu Mar  2 16:48:43 2023


#       File generated by GOLD software.
#

@<TRIPOS>MOLECULE
00000001|prep_VS_1|mol2|1|dock5
    49    52     1
SMALL
USER_CHARGES


@<TRIPOS>ATOM
      1 C1         -39.1507 -40.9226   4.3373 C.2            1 noname            -0.0806
      2 C2         -37.8344 -41.0170   4.3300 C.2            1 noname            -0.0779
      3 N1         -37.2127 -41.5657   3.2150 N.am           1 noname             0.0248
      4 C3         -37.9140 -41.4812   1.9407 C.3            1 noname             0.1485
      5 C4         -39.3696 -41.9157   2.1341 C.2            1 noname             0.0779
      6 N2         -39.9182 -41.4989   3.3114 N.am           1 noname             0.0223
      7 C5         -41.3676 -41.6446   3.5261 C.3            1 noname             0.0144
      8 O1         -39.9725 -42.6112   1.3386 O.2            1 noname            -0.2820
      9 C6         -38.0346 -40.0178   1.4647 C.ar           1 noname             0.0167
     10 C7         -38.8530 -39.6599   0.4041 C.ar           1 noname            -0.0133
     11 C8         -38.9105 -38.3260   0.0383 C.ar           1 noname            -0.0379
     12 C9         -38.1620 -37.3972   0.7298 C.ar           1 noname            -0.0260
     13 C10        -37.3777 -37.8432   1.7709 C.ar           1 noname             0.0003
     14 N3         -37.3042 -39.1274   2.1453 N.ar           1 noname            -0.2412
     15 C11        -42.1876 -40.6638   2.6961 C.3            1 noname            -0.0142
     16 C12        -43.6629 -40.9824   2.7472 C.ar           1 noname            -0.0544
     17 C13        -44.3483 -40.9785   3.9530 C.ar           1 noname            -0.0569
     18 C14        -45.7008 -41.2735   4.0005 C.ar           1 noname            -0.0605
     19 C15        -46.3848 -41.5770   2.8421 C.ar           1 noname            -0.0616
     20 C16        -45.7151 -41.5855   1.6367 C.ar           1 noname            -0.0605
     21 C17        -44.3626 -41.2904   1.5900 C.ar           1 noname            -0.0569
     22 C18        -36.1143 -42.3856   3.1867 C.2            1 noname             0.0696
     23 O2         -35.5434 -42.7861   4.2015 O.2            1 noname            -0.2901
     24 C19        -37.0612 -42.3550   1.0016 C.3            1 noname            -0.0112
     25 C20        -36.0982 -43.1072   1.8786 C.3            1 noname             0.0244
     26 H1         -41.8473 -40.6986   1.6537 H              1 noname            -0.0142
     27 H2         -42.0284 -39.6437   3.0655 H              1 noname            -0.0142
     28 H3         -43.8187 -40.7416   4.8699 H              1 noname            -0.0569
     29 H4         -46.2233 -41.2659   4.9513 H              1 noname            -0.0605
     30 H5         -47.4444 -41.8079   2.8791 H              1 noname            -0.0616
     31 H6         -46.2488 -41.8239   0.7227 H              1 noname            -0.0605
     32 H7         -43.8443 -41.3003   0.6369 H              1 noname            -0.0569
     33 H8         -41.5896 -41.4874   4.5888 H              1 noname             0.0144
     34 H9         -41.6855 -42.6622   3.2701 H              1 noname             0.0144
     35 H10        -39.4342 -40.4071  -0.1261 H              1 noname            -0.0133
     36 H11        -36.5174 -41.7291   0.2955 H              1 noname            -0.0112
     37 H12        -37.6959 -43.0513   0.4555 H              1 noname            -0.0112
     38 H13        -36.4241 -44.1382   2.0072 H              1 noname             0.0244
     39 H14        -35.0983 -43.0937   1.4473 H              1 noname             0.0244
     40 H15        -39.6477 -40.3918   5.1480 H              1 noname            -0.0806
     41 H16        -37.2476 -40.6723   5.1802 H              1 noname            -0.0779
     42 H17        -39.5408 -38.0132  -0.7876 H              1 noname            -0.0379
     43 H18        -38.1899 -36.3462   0.4620 H              1 noname            -0.0260
     44 H19        -36.7876 -37.1148   2.3172 H              1 noname             0.0003
     45 ****       -39.5172 -42.9293   0.5071 LP             1 noname             0.0000
     46 ****       -40.9233 -42.8647   1.5164 LP             1 noname             0.0000
     47 ****       -36.7227 -39.4108   2.9079 LP             1 noname             0.0000
     48 ****       -35.8781 -42.5141   5.1038 LP             1 noname             0.0000
     49 ****       -34.7452 -43.3833   4.1235 LP             1 noname             0.0000
@<TRIPOS>BOND
    1    1    2 2     
    2    6    1 1     
    3    2    3 1     
    4    3    4 1     
    5    3   22 am    
    6    4    5 1     
    7    4    9 1     
    8    4   24 1     
    9    5    6 am    
   10    5    8 2     
   11    6    7 1     
   12    7   15 1     
   13    9   10 ar    
   14   14    9 ar    
   15   10   11 ar    
   16   11   12 ar    
   17   12   13 ar    
   18   13   14 ar    
   19   15   16 1     
   20   16   17 ar    
   21   21   16 ar    
   22   17   18 ar    
   23   18   19 ar    
   24   19   20 ar    
   25   20   21 ar    
   26   22   23 2     
   27   25   22 1     
   28   24   25 1     
   29   15   26 1     
   30   15   27 1     
   31   17   28 1     
   32   18   29 1     
   33   19   30 1     
   34   20   31 1     
   35   21   32 1     
   36    7   33 1     
   37    7   34 1     
   38   10   35 1     
   39   24   36 1     
   40   24   37 1     
   41   25   38 1     
   42   25   39 1     
   43    1   40 1     
   44    2   41 1     
   45   11   42 1     
   46   12   43 1     
   47   13   44 1     
   48    8   45 1     
   49    8   46 1     
   50   14   47 1     
   51   23   48 1     
   52   23   49 1     
@<TRIPOS>SUBSTRUCTURE
      1 noname         1
@<TRIPOS>SET
LONE_PAIRS      STATIC     ATOMS    <user>   **** ""
5 45 46 47 48 49
ATOM$BLUE        STATIC     ATOMS    COLORGROUP SYSTEM
5 45 46 47 48 49
@<TRIPOS>COMMENT
> <Gold.Version>
2022.3.0

> <Gold.Id.Protein>
unknown|6c5f_clean|pdb

> <Gold.Protein.ActiveResidues>
 LEU49   SER50   GLN58   ILE95   LEU96   ILE97   ARG98   PRO1    PHE2    LEU3   
 LEU30   LYS32   PRO33   ASP35   ARG36   VAL37   ASN38   ILE61   SER62   SER63  
 ILE64   GLY65   VAL66   VAL67   PHE100  LEU102  GLU103  SER104  TRP105  GLN106 
 ILE107  GLY108  LYS109  ILE110  THR112  VAL113  PRO1    GLN58   PHE2    LEU96  
 LEU30   LYS32   PRO33   PHE2    PRO1    PRO101  LEU102  GLU103  VAL37   ASN38  
 LEU49   SER50   ILE61   SER62   SER63   ILE64   ILE64   GLY65   VAL66   VAL67  
 PRO33   ARG36   VAL37   PRO1    SER104  TRP105  GLN106  ILE107  GLY108  LYS109 
 ILE110  PRO1    PHE2    LEU3    ILE110  VAL113  LEU96   ILE97   ARG98   PHE2   
 PRO1   

> <Gold.Score>
     Score     S(PLP)   S(hbond)     S(cho)   S(metal)  DE(clash)   DE(tors)     intcor
     61.46     -56.58       0.00       1.96       0.00       0.00       0.52       0.05

> <Gold.PLP.Fitness>
61.4649

> <Gold.PLP.PLP>
-56.5789

> <Gold.PLP.part.hbond>
0.0000

> <Gold.PLP.part.metal>
0.0000

> <Gold.PLP.part.buried>
-2.8816

> <Gold.PLP.part.nonpolar>
-54.8656

> <Gold.PLP.part.repulsive>
0.3973

> <Gold.PLP.ligand.clash>
0.0000

> <Gold.PLP.ligand.torsion>
0.5250

> <Gold.PLP.Chemscore.Hbond>
0.0000

> <Gold.PLP.Chemscore.CHOScore>
1.9613

> <Gold.PLP.Chemscore.Metal>
0.0000

> <Gold.Chemscore.Hbonds>
donor molecule, donor type, donor heavy atom, donor atom, acceptor molecule, acceptor atom, score
      L1  C    13    44       P1  2116  1.00
      L1  C    13    44       P1  2115  0.96

> <Gold.PLP.Chemscore.Internal.Correction>
0.0520

> <Gold.PLP.Reference.RMSD>
4.9267

> <Gold.Rescore>
     Score         DG    S(hbond)    S(metal)    S(lipo)     H(rot)  DE(clash)    DE(int)     intcor
     23.73     -25.80       0.00        0.00     203.58       1.37       0.45       1.62       ----

> <Gold.Chemscore.Fitness>
23.7250

> <Gold.Chemscore.DG>
-25.7971

> <Gold.Chemscore.ZeroCoef>
-5.4800

> <Gold.Chemscore.Hbond>
0.0000

> <Gold.Chemscore.Metal>
0.0000

> <Gold.Chemscore.Lipo>
203.5817

> <Gold.Chemscore.Internal_Hbond>
0.0000

> <Gold.Chemscore.DEClash>
0.4535

> <Gold.Chemscore.DEInternal>
1.6186

> <Gold.Chemscore.Rot>
1.3679

> <Gold.Chemscore.Internal.Correction>
   9.000000E+99

> <Gold.Chemscore.Reference.RMSD>
0.0000

> <Gold.Chemscore.Hbond.Weighted>
-0.0000

> <Gold.Chemscore.Metal.Weighted>
-0.0000

> <Gold.Chemscore.Lipo.Weighted>
-23.8191

> <Gold.Chemscore.Internal_Hbond.Weighted>
0.0000

> <Gold.Chemscore.DEClash.Weighted>
0.4535

> <Gold.Chemscore.DEInternal.Weighted>
1.6186

> <Gold.Chemscore.Rot.Weighted>
3.5019

> <Gold.Chemscore.Internal.Correction.Weighted>
   9.000000E+99

> <Gold.Reference.RMSD>
4.9267

