#       Name:                00000001
#       Creating user name   hitesit
#       Creation time:       Thu Mar  2 16:48:39 2023


#       File generated by GOLD software.
#

@<TRIPOS>MOLECULE
00000001
    49    52     1
SMALL
USER_CHARGES


@<TRIPOS>ATOM
      1 C1           0.4204   0.3178  -2.0145 C.2            1 noname            -0.0806
      2 C2          -0.5467   0.6867  -2.8333 C.2            1 noname            -0.0779
      3 N1          -1.8543   0.3370  -2.5191 N.am           1 noname             0.0248
      4 C3          -2.1749   0.1128  -1.1156 C.3            1 noname             0.1485
      5 C4          -1.1084  -0.7911  -0.4908 C.2            1 noname             0.0779
      6 N2           0.1575  -0.5366  -0.9307 N.am           1 noname             0.0223
      7 C5           1.3007  -1.1669  -0.2497 C.3            1 noname             0.0144
      8 O1          -1.3644  -1.6891   0.2889 O.2            1 noname            -0.2820
      9 C6          -2.0630   1.4191  -0.3009 C.ar           1 noname             0.0167
     10 C7          -1.8769   2.6486  -0.9143 C.ar           1 noname            -0.0133
     11 C8          -1.7894   3.7760  -0.1156 C.ar           1 noname            -0.0379
     12 C9          -1.8889   3.6499   1.2538 C.ar           1 noname            -0.0260
     13 C10         -2.0745   2.3887   1.7761 C.ar           1 noname             0.0003
     14 N3          -2.1627   1.2822   1.0261 N.ar           1 noname            -0.2412
     15 C11          1.6872  -0.4501   1.0387 C.3            1 noname            -0.0142
     16 C12          2.8608  -1.1136   1.7193 C.ar           1 noname            -0.0544
     17 C13          4.1615  -0.7432   1.4119 C.ar           1 noname            -0.0569
     18 C14          5.2381  -1.3536   2.0339 C.ar           1 noname            -0.0605
     19 C15          5.0271  -2.3431   2.9710 C.ar           1 noname            -0.0616
     20 C16          3.7388  -2.7217   3.2850 C.ar           1 noname            -0.0605
     21 C17          2.6627  -2.1108   2.6626 C.ar           1 noname            -0.0569
     22 C18         -2.8481  -0.0502  -3.3805 C.2            1 noname             0.0696
     23 O2          -2.6790  -0.1794  -4.5933 O.2            1 noname            -0.2901
     24 C19         -3.6070  -0.4527  -1.1592 C.3            1 noname            -0.0112
     25 C20         -3.8907  -0.7814  -2.5993 C.3            1 noname             0.0244
     26 H1           0.8292  -0.4462   1.7223 H              1 noname            -0.0142
     27 H2           1.9437   0.5931   0.8186 H              1 noname            -0.0142
     28 H3           4.3378   0.0339   0.6755 H              1 noname            -0.0569
     29 H4           6.2499  -1.0526   1.7832 H              1 noname            -0.0605
     30 H5           5.8703  -2.8213   3.4585 H              1 noname            -0.0616
     31 H6           3.5676  -3.4999   4.0214 H              1 noname            -0.0605
     32 H7           1.6528  -2.4160   2.9160 H              1 noname            -0.0569
     33 H8           2.1625  -1.1732  -0.9284 H              1 noname             0.0144
     34 H9           1.0654  -2.2098  -0.0063 H              1 noname             0.0144
     35 H10         -1.8018   2.7253  -1.9940 H              1 noname            -0.0133
     36 H11         -4.3161   0.2895  -0.7956 H              1 noname            -0.0112
     37 H12         -3.6759  -1.3509  -0.5473 H              1 noname            -0.0112
     38 H13         -3.8126  -1.8542  -2.7687 H              1 noname             0.0244
     39 H14         -4.8865  -0.4412  -2.8796 H              1 noname             0.0244
     40 H15          1.4339   0.6799  -2.1809 H              1 noname            -0.0806
     41 H16         -0.3245   1.2532  -3.7364 H              1 noname            -0.0779
     42 H17         -1.6433   4.7529  -0.5645 H              1 noname            -0.0379
     43 H18         -1.8232   4.5183   1.9009 H              1 noname            -0.0260
     44 H19         -2.1534   2.2861   2.8534 H              1 noname             0.0003
     45 ****        -2.3125  -1.8676   0.5523 LP             1 noname             0.0000
     46 ****        -0.6268  -2.2489   0.6665 LP             1 noname             0.0000
     47 ****        -2.2986   0.3840   1.4442 LP             1 noname             0.0000
     48 ****        -1.7812   0.0010  -4.9950 LP             1 noname             0.0000
     49 ****        -3.4395  -0.4649  -5.1765 LP             1 noname             0.0000
@<TRIPOS>BOND
    1    1    2 2     
    2    6    1 1     
    3    2    3 1     
    4    3    4 1     
    5    3   22 am    
    6    4    5 1     
    7    4    9 1     
    8    4   24 1     
    9    5    6 am    
   10    5    8 2     
   11    6    7 1     
   12    7   15 1     
   13    9   10 ar    
   14   14    9 ar    
   15   10   11 ar    
   16   11   12 ar    
   17   12   13 ar    
   18   13   14 ar    
   19   15   16 1     
   20   16   17 ar    
   21   21   16 ar    
   22   17   18 ar    
   23   18   19 ar    
   24   19   20 ar    
   25   20   21 ar    
   26   22   23 2     
   27   25   22 1     
   28   24   25 1     
   29   15   26 1     
   30   15   27 1     
   31   17   28 1     
   32   18   29 1     
   33   19   30 1     
   34   20   31 1     
   35   21   32 1     
   36    7   33 1     
   37    7   34 1     
   38   10   35 1     
   39   24   36 1     
   40   24   37 1     
   41   25   38 1     
   42   25   39 1     
   43    1   40 1     
   44    2   41 1     
   45   11   42 1     
   46   12   43 1     
   47   13   44 1     
   48    8   45 1     
   49    8   46 1     
   50   14   47 1     
   51   23   48 1     
   52   23   49 1     
@<TRIPOS>SUBSTRUCTURE
      1 noname         1
@<TRIPOS>SET
LONE_PAIRS      STATIC     ATOMS    <user>   **** ""
5 45 46 47 48 49
ATOM$BLUE        STATIC     ATOMS    COLORGROUP SYSTEM
5 45 46 47 48 49
