#       Name:                00000001
#       Creating user name   hitesit
#       Creation time:       Mon Feb 27 15:35:12 2023


#       File generated by GOLD software.
#

@<TRIPOS>MOLECULE
00000001
    49    52     1
SMALL
USER_CHARGES


@<TRIPOS>ATOM
      1 C1           0.4325  -0.4608  -1.7476 C.2            1 noname            -0.0806
      2 C2          -0.4276  -0.0198  -2.6637 C.2            1 noname            -0.0779
      3 N1          -1.7603   0.1183  -2.3544 N.am           1 noname             0.0248
      4 C3          -2.2180   0.0256  -0.9520 C.3            1 noname             0.1485
      5 C4          -1.2427  -0.7379  -0.0490 C.2            1 noname             0.0779
      6 N2           0.0502  -0.8421  -0.4915 N.am           1 noname             0.0223
      7 C5           1.0627  -1.4372   0.3965 C.3            1 noname             0.0144
      8 O1          -1.6294  -1.1935   1.0098 O.2            1 noname            -0.2820
      9 C6          -2.3339   1.4459  -0.3739 C.ar           1 noname             0.0167
     10 C7          -1.4533   2.4548  -0.7335 C.ar           1 noname            -0.0133
     11 C8          -1.6246   3.7087  -0.1723 C.ar           1 noname            -0.0379
     12 C9          -2.6548   3.9210   0.7190 C.ar           1 noname            -0.0260
     13 C10         -3.4820   2.8606   1.0171 C.ar           1 noname             0.0003
     14 N3          -3.3384   1.6380   0.4883 N.ar           1 noname            -0.2412
     15 C11          2.3534  -0.6280   0.4441 C.3            1 noname            -0.0142
     16 C12          3.3644  -1.2395   1.3848 C.ar           1 noname            -0.0544
     17 C13          3.5283  -2.6150   1.4535 C.ar           1 noname            -0.0569
     18 C14          4.4535  -3.1762   2.3182 C.ar           1 noname            -0.0605
     19 C15          5.2260  -2.3683   3.1259 C.ar           1 noname            -0.0616
     20 C16          5.0721  -0.9991   3.0682 C.ar           1 noname            -0.0605
     21 C17          4.1468  -0.4386   2.2033 C.ar           1 noname            -0.0569
     22 C18         -2.8166   0.3776  -3.2044 C.2            1 noname             0.0696
     23 O2          -2.7321   0.5704  -4.4094 O.2            1 noname            -0.2901
     24 C19         -3.6071  -0.5849  -1.2196 C.3            1 noname            -0.0112
     25 C20         -4.0561   0.3413  -2.3463 C.3            1 noname             0.0244
     26 H1          -4.9250  -0.0598  -2.8826 H              1 noname             0.0244
     27 H2          -4.3171   1.3418  -1.9802 H              1 noname             0.0244
     28 H3          -0.0785   0.2091  -3.6651 H              1 noname            -0.0779
     29 H4           5.6774  -0.3594   3.7019 H              1 noname            -0.0605
     30 H5           4.0327   0.6397   2.1656 H              1 noname            -0.0569
     31 H6           1.2895  -2.4532   0.0503 H              1 noname             0.0144
     32 H7           0.6684  -1.5171   1.4165 H              1 noname             0.0144
     33 H8          -4.2705  -0.5580  -0.3463 H              1 noname            -0.0112
     34 H9          -3.5236  -1.6226  -1.5655 H              1 noname            -0.0112
     35 H10         -0.6495   2.2661  -1.4374 H              1 noname            -0.0133
     36 H11         -0.9521   4.5195  -0.4324 H              1 noname            -0.0379
     37 H12          1.4768  -0.5516  -2.0254 H              1 noname            -0.0806
     38 H13          2.1280   0.3942   0.7724 H              1 noname            -0.0142
     39 H14          2.7892  -0.5678  -0.5603 H              1 noname            -0.0142
     40 H15         -2.8094   4.8946   1.1723 H              1 noname            -0.0260
     41 H16         -4.2939   3.0243   1.7180 H              1 noname             0.0003
     42 H17          4.5706  -4.2540   2.3602 H              1 noname            -0.0605
     43 H18          5.9510  -2.8077   3.8031 H              1 noname            -0.0616
     44 H19          2.9248  -3.2590   0.8224 H              1 noname            -0.0569
     45 ****        -2.5815  -1.0697   1.2895 LP             1 noname             0.0000
     46 ****        -0.9954  -1.6921   1.6010 LP             1 noname             0.0000
     47 ****        -3.9613   0.8940   0.7301 LP             1 noname             0.0000
     48 ****        -1.8388   0.5469  -4.8580 LP             1 noname             0.0000
     49 ****        -3.5564   0.7515  -4.9458 LP             1 noname             0.0000
@<TRIPOS>BOND
    1    1    2 2     
    2    6    1 1     
    3    2    3 1     
    4    3    4 1     
    5    3   22 am    
    6    4    5 1     
    7    4    9 1     
    8    4   24 1     
    9    5    6 am    
   10    5    8 2     
   11    6    7 1     
   12    7   15 1     
   13    9   10 ar    
   14   14    9 ar    
   15   10   11 ar    
   16   11   12 ar    
   17   12   13 ar    
   18   13   14 ar    
   19   15   16 1     
   20   16   17 ar    
   21   21   16 ar    
   22   17   18 ar    
   23   18   19 ar    
   24   19   20 ar    
   25   20   21 ar    
   26   22   23 2     
   27   25   22 1     
   28   24   25 1     
   29   25   26 1     
   30   25   27 1     
   31    2   28 1     
   32   20   29 1     
   33   21   30 1     
   34    7   31 1     
   35    7   32 1     
   36   24   33 1     
   37   24   34 1     
   38   10   35 1     
   39   11   36 1     
   40    1   37 1     
   41   15   38 1     
   42   15   39 1     
   43   12   40 1     
   44   13   41 1     
   45   18   42 1     
   46   19   43 1     
   47   17   44 1     
   48    8   45 1     
   49    8   46 1     
   50   14   47 1     
   51   23   48 1     
   52   23   49 1     
@<TRIPOS>SUBSTRUCTURE
      1 noname         1
@<TRIPOS>SET
LONE_PAIRS      STATIC     ATOMS    <user>   **** ""
5 45 46 47 48 49
ATOM$BLUE        STATIC     ATOMS    COLORGROUP SYSTEM
5 45 46 47 48 49
