#       Name:                00000001
#       Creating user name   hitesit
#       Creation time:       Mon Feb 27 15:35:26 2023


#       File generated by GOLD software.
#

@<TRIPOS>MOLECULE
00000001|prep_VS_1|mol2|1|dock6
    49    52     1
SMALL
USER_CHARGES


@<TRIPOS>ATOM
      1 C1         -41.3429 -40.6497  -0.8071 C.2            1 noname            -0.0806
      2 C2         -40.4708 -39.8529  -1.4222 C.2            1 noname            -0.0779
      3 N1         -39.5871 -39.0955  -0.6900 N.am           1 noname             0.0248
      4 C3         -39.4156 -39.3347   0.7585 C.3            1 noname             0.1485
      5 C4         -40.6167 -40.0392   1.3993 C.2            1 noname             0.0779
      6 N2         -41.4479 -40.7268   0.5539 N.am           1 noname             0.0223
      7 C5         -42.5335 -41.5404   1.1259 C.3            1 noname             0.0144
      8 O1         -40.7768 -39.9867   2.6034 O.2            1 noname            -0.2820
      9 C6         -38.2016 -40.2550   0.9683 C.ar           1 noname             0.0167
     10 C7         -37.3450 -40.5823  -0.0718 C.ar           1 noname            -0.0133
     11 C8         -36.2717 -41.4144   0.1967 C.ar           1 noname            -0.0379
     12 C9         -36.0827 -41.8907   1.4767 C.ar           1 noname            -0.0260
     13 C10        -36.9833 -41.5123   2.4479 C.ar           1 noname             0.0003
     14 N3         -38.0296 -40.7086   2.2149 N.ar           1 noname            -0.2412
     15 C11        -43.4949 -40.7231   1.9807 C.3            1 noname            -0.0142
     16 C12        -44.8015 -41.4469   2.2034 C.ar           1 noname            -0.0544
     17 C13        -45.9565 -41.0431   1.5503 C.ar           1 noname            -0.0569
     18 C14        -47.1556 -41.7051   1.7566 C.ar           1 noname            -0.0605
     19 C15        -47.2146 -42.7792   2.6196 C.ar           1 noname            -0.0616
     20 C16        -46.0737 -43.1901   3.2761 C.ar           1 noname            -0.0605
     21 C17        -44.8750 -42.5277   3.0694 C.ar           1 noname            -0.0569
     22 C18        -38.7495 -38.0898  -1.1288 C.2            1 noname             0.0696
     23 O2         -38.6251 -37.7199  -2.2881 O.2            1 noname            -0.2901
     24 C19        -39.0996 -37.8866   1.1792 C.3            1 noname            -0.0112
     25 C20        -38.0695 -37.5508   0.1045 C.3            1 noname             0.0244
     26 H1         -37.8822 -36.4717   0.0415 H              1 noname             0.0244
     27 H2         -37.1093 -38.0507   0.2811 H              1 noname             0.0244
     28 H3         -40.4740 -39.7841  -2.5049 H              1 noname            -0.0779
     29 H4         -46.1152 -44.0345   3.9562 H              1 noname            -0.0605
     30 H5         -43.9829 -42.8583   3.5911 H              1 noname            -0.0569
     31 H6         -42.0974 -42.3379   1.7403 H              1 noname             0.0144
     32 H7         -43.1077 -42.0192   0.3238 H              1 noname             0.0144
     33 H8         -38.7038 -37.8056   2.1991 H              1 noname            -0.0112
     34 H9         -39.9870 -37.2472   1.0950 H              1 noname            -0.0112
     35 H10        -37.5120 -40.1959  -1.0718 H              1 noname            -0.0133
     36 H11        -35.5833 -41.6900  -0.5954 H              1 noname            -0.0379
     37 H12        -42.0207 -41.2367  -1.4170 H              1 noname            -0.0806
     38 H13        -43.6939 -39.7644   1.4858 H              1 noname            -0.0142
     39 H14        -43.0343 -40.5081   2.9523 H              1 noname            -0.0142
     40 H15        -35.2492 -42.5443   1.7120 H              1 noname            -0.0260
     41 H16        -36.8373 -41.8851   3.4564 H              1 noname             0.0003
     42 H17        -48.0506 -41.3777   1.2380 H              1 noname            -0.0605
     43 H18        -48.1538 -43.2981   2.7810 H              1 noname            -0.0616
     44 H19        -45.9203 -40.1988   0.8698 H              1 noname            -0.0569
     45 ****       -40.1258 -39.4849   3.1729 LP             1 noname             0.0000
     46 ****       -41.5595 -40.4454   3.0242 LP             1 noname             0.0000
     47 ****       -38.6608 -40.4563   2.9483 LP             1 noname             0.0000
     48 ****       -39.1580 -38.1573  -3.0125 LP             1 noname             0.0000
     49 ****       -37.9905 -36.9800  -2.5115 LP             1 noname             0.0000
@<TRIPOS>BOND
    1    1    2 2     
    2    6    1 1     
    3    2    3 1     
    4    3    4 1     
    5    3   22 am    
    6    4    5 1     
    7    4    9 1     
    8    4   24 1     
    9    5    6 am    
   10    5    8 2     
   11    6    7 1     
   12    7   15 1     
   13    9   10 ar    
   14   14    9 ar    
   15   10   11 ar    
   16   11   12 ar    
   17   12   13 ar    
   18   13   14 ar    
   19   15   16 1     
   20   16   17 ar    
   21   21   16 ar    
   22   17   18 ar    
   23   18   19 ar    
   24   19   20 ar    
   25   20   21 ar    
   26   22   23 2     
   27   25   22 1     
   28   24   25 1     
   29   25   26 1     
   30   25   27 1     
   31    2   28 1     
   32   20   29 1     
   33   21   30 1     
   34    7   31 1     
   35    7   32 1     
   36   24   33 1     
   37   24   34 1     
   38   10   35 1     
   39   11   36 1     
   40    1   37 1     
   41   15   38 1     
   42   15   39 1     
   43   12   40 1     
   44   13   41 1     
   45   18   42 1     
   46   19   43 1     
   47   17   44 1     
   48    8   45 1     
   49    8   46 1     
   50   14   47 1     
   51   23   48 1     
   52   23   49 1     
@<TRIPOS>SUBSTRUCTURE
      1 noname         1
@<TRIPOS>SET
LONE_PAIRS      STATIC     ATOMS    <user>   **** ""
5 45 46 47 48 49
ATOM$BLUE        STATIC     ATOMS    COLORGROUP SYSTEM
5 45 46 47 48 49
@<TRIPOS>COMMENT
> <Gold.Version>
2022.3.0

> <Gold.Id.Protein>
unknown|6c5f_clean|pdb

> <Gold.Protein.ActiveResidues>
 LEU49   SER50   GLN58   ILE95   LEU96   ILE97   ARG98   PRO1    PHE2    LEU3   
 LEU30   LYS32   PRO33   ASP35   ARG36   VAL37   ASN38   ILE61   SER62   SER63  
 ILE64   GLY65   VAL66   VAL67   PHE100  LEU102  GLU103  SER104  TRP105  GLN106 
 ILE107  GLY108  LYS109  ILE110  THR112  VAL113  PHE2    ILE61   SER62   SER63  
 ILE64   PHE2    PRO1    PHE2    PRO1    PHE2    LEU3    LEU96   ILE97   ARG98  
 PHE2    ARG36   VAL37   ASN38   PRO1    PRO1    VAL113  PHE2    LEU30   LYS32  
 PRO33   GLN106  ILE107  GLY108  LYS109  ILE110  ILE64   GLY65   VAL66   VAL67  
 GLN58   PRO1    PRO101  LEU102  GLU103  SER104  TRP105  PHE2    LEU49   SER50  
 PHE2   

> <Gold.Score>
     Fitness  S(hb_ext) S(vdw_ext)  S(hb_int)    S(int)      intcor
     48.27       0.00      40.91       0.00      -7.97       3.78

> <Gold.Goldscore.Fitness>
48.2704

> <Gold.Goldscore.Internal.Vdw>
-2.3169

> <Gold.Goldscore.Internal.Torsion>
-1.8779

> <Gold.Goldscore.External.Vdw>
40.9056

> <Gold.Goldscore.Internal.HBond>
0.0000

> <Gold.Goldscore.External.HBond>
0.0000

> <Gold.Goldscore.Internal.Correction>
3.7800

> <Gold.Goldscore.Reference.RMSD>
5.2352

> <Gold.Goldscore.Internal.Vdw.Weighted>
-2.3169

> <Gold.Goldscore.Internal.Torsion.Weighted>
-1.8779

> <Gold.Goldscore.External.Vdw.Weighted>
56.2452

> <Gold.Goldscore.Internal.HBond.Weighted>
0.0000

> <Gold.Goldscore.External.HBond.Weighted>
0.0000

> <Gold.Goldscore.Internal.Correction.Weighted>
3.7800

> <Gold.Rescore>
     Score         DG    S(hbond)    S(metal)    S(lipo)     H(rot)  DE(clash)    DE(int)     intcor
     14.95     -26.87       0.00        0.00     212.71       1.37       8.97       2.95       ----

> <Gold.Chemscore.Fitness>
14.9477

> <Gold.Chemscore.DG>
-26.8651

> <Gold.Chemscore.ZeroCoef>
-5.4800

> <Gold.Chemscore.Hbond>
0.0000

> <Gold.Chemscore.Metal>
0.0000

> <Gold.Chemscore.Lipo>
212.7099

> <Gold.Chemscore.Internal_Hbond>
0.0000

> <Gold.Chemscore.DEClash>
8.9723

> <Gold.Chemscore.DEInternal>
2.9451

> <Gold.Chemscore.Rot>
1.3679

> <Gold.Chemscore.Internal.Correction>
   9.000000E+99

> <Gold.Chemscore.Reference.RMSD>
0.0000

> <Gold.Chemscore.Hbond.Weighted>
-0.0000

> <Gold.Chemscore.Metal.Weighted>
-0.0000

> <Gold.Chemscore.Lipo.Weighted>
-24.8871

> <Gold.Chemscore.Internal_Hbond.Weighted>
0.0000

> <Gold.Chemscore.DEClash.Weighted>
8.9723

> <Gold.Chemscore.DEInternal.Weighted>
2.9451

> <Gold.Chemscore.Rot.Weighted>
3.5019

> <Gold.Chemscore.Internal.Correction.Weighted>
   9.000000E+99

> <Gold.Reference.RMSD>
5.2352

