#       Name:                00000001
#       Creating user name   hitesit
#       Creation time:       Thu Mar  2 16:48:44 2023


#       File generated by GOLD software.
#

@<TRIPOS>MOLECULE
00000001|prep_VS_1|mol2|1|dock7
    49    52     1
SMALL
USER_CHARGES


@<TRIPOS>ATOM
      1 C1         -39.2608 -41.1206   4.0729 C.2            1 noname            -0.0806
      2 C2         -37.9553 -41.1094   4.2661 C.2            1 noname            -0.0779
      3 N1         -37.1243 -41.4878   3.2187 N.am           1 noname             0.0248
      4 C3         -37.6311 -41.3265   1.8622 C.3            1 noname             0.1485
      5 C4         -39.0517 -41.8925   1.7818 C.2            1 noname             0.0779
      6 N2         -39.8077 -41.6455   2.8901 N.am           1 noname             0.0223
      7 C5         -41.2526 -41.9270   2.8579 C.3            1 noname             0.0144
      8 O1         -39.4600 -42.5466   0.8409 O.2            1 noname            -0.2820
      9 C6         -37.8163 -39.8355   1.5081 C.ar           1 noname             0.0167
     10 C7         -36.7830 -38.9202   1.6386 C.ar           1 noname            -0.0133
     11 C8         -37.0258 -37.6005   1.2976 C.ar           1 noname            -0.0379
     12 C9         -38.2741 -37.2336   0.8415 C.ar           1 noname            -0.0260
     13 C10        -39.2403 -38.2106   0.7427 C.ar           1 noname             0.0003
     14 N3         -39.0316 -39.4938   1.0657 N.ar           1 noname            -0.2412
     15 C11        -42.1011 -40.6728   3.0317 C.3            1 noname            -0.0142
     16 C12        -43.5740 -40.9655   2.8718 C.ar           1 noname            -0.0544
     17 C13        -44.4617 -40.7272   3.9105 C.ar           1 noname            -0.0569
     18 C14        -45.8122 -40.9982   3.7650 C.ar           1 noname            -0.0605
     19 C15        -46.2919 -41.5120   2.5786 C.ar           1 noname            -0.0616
     20 C16        -45.4198 -41.7548   1.5382 C.ar           1 noname            -0.0605
     21 C17        -44.0694 -41.4834   1.6845 C.ar           1 noname            -0.0569
     22 C18        -35.9617 -42.2108   3.2907 C.2            1 noname             0.0696
     23 O2         -35.5145 -42.6687   4.3426 O.2            1 noname            -0.2901
     24 C19        -36.5684 -42.0272   0.9949 C.3            1 noname            -0.0112
     25 C20        -35.6814 -42.7884   1.9417 C.3            1 noname             0.0244
     26 H1         -41.7993 -39.9254   2.2876 H              1 noname            -0.0142
     27 H2         -41.9271 -40.2437   4.0257 H              1 noname            -0.0142
     28 H3         -44.0938 -40.3236   4.8481 H              1 noname            -0.0569
     29 H4         -46.4943 -40.8060   4.5865 H              1 noname            -0.0605
     30 H5         -47.3498 -41.7243   2.4643 H              1 noname            -0.0616
     31 H6         -45.7923 -42.1592   0.6029 H              1 noname            -0.0605
     32 H7         -43.3911 -41.6783   0.8603 H              1 noname            -0.0569
     33 H8         -41.4966 -42.6380   3.6568 H              1 noname             0.0144
     34 H9         -41.5234 -42.3966   1.9048 H              1 noname             0.0144
     35 H10        -35.8078 -39.2306   1.9990 H              1 noname            -0.0133
     36 H11        -35.9862 -41.2900   0.4440 H              1 noname            -0.0112
     37 H12        -37.0453 -42.7107   0.2940 H              1 noname            -0.0112
     38 H13        -35.9242 -43.8497   1.9226 H              1 noname             0.0244
     39 H14        -34.6339 -42.6508   1.6776 H              1 noname             0.0244
     40 H15        -39.9217 -40.7183   4.8393 H              1 noname            -0.0806
     41 H16        -37.5380 -40.8100   5.2264 H              1 noname            -0.0779
     42 H17        -36.2385 -36.8595   1.3888 H              1 noname            -0.0379
     43 H18        -38.4891 -36.2058   0.5683 H              1 noname            -0.0260
     44 H19        -40.2238 -37.9251   0.3839 H              1 noname             0.0003
     45 ****       -38.8570 -42.7391   0.0667 LP             1 noname             0.0000
     46 ****       -40.3985 -42.8917   0.8417 LP             1 noname             0.0000
     47 ****       -39.7599 -40.1736   0.9789 LP             1 noname             0.0000
     48 ****       -36.0050 -42.5196   5.2012 LP             1 noname             0.0000
     49 ****       -34.6609 -43.1895   4.3383 LP             1 noname             0.0000
@<TRIPOS>BOND
    1    1    2 2     
    2    6    1 1     
    3    2    3 1     
    4    3    4 1     
    5    3   22 am    
    6    4    5 1     
    7    4    9 1     
    8    4   24 1     
    9    5    6 am    
   10    5    8 2     
   11    6    7 1     
   12    7   15 1     
   13    9   10 ar    
   14   14    9 ar    
   15   10   11 ar    
   16   11   12 ar    
   17   12   13 ar    
   18   13   14 ar    
   19   15   16 1     
   20   16   17 ar    
   21   21   16 ar    
   22   17   18 ar    
   23   18   19 ar    
   24   19   20 ar    
   25   20   21 ar    
   26   22   23 2     
   27   25   22 1     
   28   24   25 1     
   29   15   26 1     
   30   15   27 1     
   31   17   28 1     
   32   18   29 1     
   33   19   30 1     
   34   20   31 1     
   35   21   32 1     
   36    7   33 1     
   37    7   34 1     
   38   10   35 1     
   39   24   36 1     
   40   24   37 1     
   41   25   38 1     
   42   25   39 1     
   43    1   40 1     
   44    2   41 1     
   45   11   42 1     
   46   12   43 1     
   47   13   44 1     
   48    8   45 1     
   49    8   46 1     
   50   14   47 1     
   51   23   48 1     
   52   23   49 1     
@<TRIPOS>SUBSTRUCTURE
      1 noname         1
@<TRIPOS>SET
LONE_PAIRS      STATIC     ATOMS    <user>   **** ""
5 45 46 47 48 49
ATOM$BLUE        STATIC     ATOMS    COLORGROUP SYSTEM
5 45 46 47 48 49
@<TRIPOS>COMMENT
> <Gold.Version>
2022.3.0

> <Gold.Id.Protein>
unknown|6c5f_clean|pdb

> <Gold.Protein.ActiveResidues>
 LEU49   SER50   GLN58   ILE95   LEU96   ILE97   ARG98   PRO1    PHE2    LEU3   
 LEU30   LYS32   PRO33   ASP35   ARG36   VAL37   ASN38   ILE61   SER62   SER63  
 ILE64   GLY65   VAL66   VAL67   PHE100  LEU102  GLU103  SER104  TRP105  GLN106 
 ILE107  GLY108  LYS109  ILE110  THR112  VAL113  PRO1    GLN58   PHE2    LEU96  
 LEU30   LYS32   PRO33   PHE2    PRO1    PRO101  LEU102  GLU103  VAL37   ASN38  
 LEU49   SER50   ILE61   SER62   SER63   ILE64   ILE64   GLY65   VAL66   VAL67  
 PRO33   ARG36   VAL37   PRO1    SER104  TRP105  GLN106  ILE107  GLY108  LYS109 
 ILE110  PRO1    PHE2    LEU3    ILE110  VAL113  LEU96   ILE97   ARG98   PHE2   
 PRO1   

> <Gold.Score>
     Score     S(PLP)   S(hbond)     S(cho)   S(metal)  DE(clash)   DE(tors)     intcor
     60.14     -60.35       0.00       0.00       0.00       0.00       0.13       0.05

> <Gold.PLP.Fitness>
60.1383

> <Gold.PLP.PLP>
-60.3507

> <Gold.PLP.part.hbond>
0.0000

> <Gold.PLP.part.metal>
0.0000

> <Gold.PLP.part.buried>
1.2136

> <Gold.PLP.part.nonpolar>
-60.3435

> <Gold.PLP.part.repulsive>
0.2142

> <Gold.PLP.ligand.clash>
0.0000

> <Gold.PLP.ligand.torsion>
0.1322

> <Gold.PLP.Chemscore.Hbond>
0.0000

> <Gold.PLP.Chemscore.CHOScore>
0.0000

> <Gold.PLP.Chemscore.Metal>
0.0000

> <Gold.PLP.Chemscore.Internal.Correction>
0.0520

> <Gold.PLP.Reference.RMSD>
4.9244

> <Gold.Rescore>
     Score         DG    S(hbond)    S(metal)    S(lipo)     H(rot)  DE(clash)    DE(int)     intcor
     24.73     -27.13       0.00        0.00     214.96       1.37       1.04       1.36       ----

> <Gold.Chemscore.Fitness>
24.7260

> <Gold.Chemscore.DG>
-27.1283

> <Gold.Chemscore.ZeroCoef>
-5.4800

> <Gold.Chemscore.Hbond>
0.0000

> <Gold.Chemscore.Metal>
0.0000

> <Gold.Chemscore.Lipo>
214.9596

> <Gold.Chemscore.Internal_Hbond>
0.0000

> <Gold.Chemscore.DEClash>
1.0434

> <Gold.Chemscore.DEInternal>
1.3589

> <Gold.Chemscore.Rot>
1.3679

> <Gold.Chemscore.Internal.Correction>
   9.000000E+99

> <Gold.Chemscore.Reference.RMSD>
0.0000

> <Gold.Chemscore.Hbond.Weighted>
-0.0000

> <Gold.Chemscore.Metal.Weighted>
-0.0000

> <Gold.Chemscore.Lipo.Weighted>
-25.1503

> <Gold.Chemscore.Internal_Hbond.Weighted>
0.0000

> <Gold.Chemscore.DEClash.Weighted>
1.0434

> <Gold.Chemscore.DEInternal.Weighted>
1.3589

> <Gold.Chemscore.Rot.Weighted>
3.5019

> <Gold.Chemscore.Internal.Correction.Weighted>
   9.000000E+99

> <Gold.Reference.RMSD>
4.9244

