#       Name:                00000001
#       Creating user name   hitesit
#       Creation time:       Mon Feb 27 15:35:14 2023


#       File generated by GOLD software.
#

@<TRIPOS>MOLECULE
00000001|prep_VS_1|mol2|1|dock1
    49    52     1
SMALL
USER_CHARGES


@<TRIPOS>ATOM
      1 C1         -41.3750 -40.8287  -0.5144 C.2            1 noname            -0.0806
      2 C2         -40.4919 -40.1164  -1.2117 C.2            1 noname            -0.0779
      3 N1         -39.5776 -39.3191  -0.5642 N.am           1 noname             0.0248
      4 C3         -39.3904 -39.4282   0.8980 C.3            1 noname             0.1485
      5 C4         -40.5996 -40.0374   1.6165 C.2            1 noname             0.0779
      6 N2         -41.4612 -40.7769   0.8491 N.am           1 noname             0.0223
      7 C5         -42.5589 -41.5043   1.5079 C.3            1 noname             0.0144
      8 O1         -40.7399 -39.8695   2.8125 O.2            1 noname            -0.2820
      9 C6         -38.1978 -40.3581   1.1766 C.ar           1 noname             0.0167
     10 C7         -37.9241 -40.8332   2.4502 C.ar           1 noname            -0.0133
     11 C8         -36.8339 -41.6691   2.6206 C.ar           1 noname            -0.0379
     12 C9         -36.0569 -42.0054   1.5324 C.ar           1 noname            -0.0260
     13 C10        -36.4041 -41.4876   0.3040 C.ar           1 noname             0.0003
     14 N3         -37.4535 -40.6771   0.1119 N.ar           1 noname            -0.2412
     15 C11        -43.5796 -40.5734   2.1519 C.3            1 noname            -0.0142
     16 C12        -44.8744 -41.2874   2.4592 C.ar           1 noname            -0.0544
     17 C13        -45.9349 -41.2493   1.5661 C.ar           1 noname            -0.0569
     18 C14        -47.1236 -41.9018   1.8490 C.ar           1 noname            -0.0605
     19 C15        -47.2667 -42.6001   3.0295 C.ar           1 noname            -0.0616
     20 C16        -46.2203 -42.6450   3.9267 C.ar           1 noname            -0.0605
     21 C17        -45.0320 -41.9924   3.6432 C.ar           1 noname            -0.0569
     22 C18        -38.7209 -38.3816  -1.1050 C.2            1 noname             0.0696
     23 O2         -38.6045 -38.1237  -2.2951 O.2            1 noname            -0.2901
     24 C19        -39.0303 -37.9566   1.1785 C.3            1 noname            -0.0112
     25 C20        -38.0083 -37.7498   0.0643 C.3            1 noname             0.0244
     26 H1         -37.7939 -36.6867  -0.1008 H              1 noname             0.0244
     27 H2         -37.0589 -38.2575   0.2743 H              1 noname             0.0244
     28 H3         -40.5097 -40.1477  -2.2960 H              1 noname            -0.0779
     29 H4         -46.3283 -43.1929   4.8569 H              1 noname            -0.0605
     30 H5         -44.2148 -42.0331   4.3556 H              1 noname            -0.0569
     31 H6         -42.1397 -42.1638   2.2779 H              1 noname             0.0144
     32 H7         -43.0808 -42.1373   0.7805 H              1 noname             0.0144
     33 H8         -38.6170 -37.7927   2.1814 H              1 noname            -0.0112
     34 H9         -39.9019 -37.3036   1.0467 H              1 noname            -0.0112
     35 H10        -38.5491 -40.5563   3.2928 H              1 noname            -0.0133
     36 H11        -36.5924 -42.0574   3.6045 H              1 noname            -0.0379
     37 H12        -42.0771 -41.4507  -1.0585 H              1 noname            -0.0806
     38 H13        -43.7826 -39.7346   1.4746 H              1 noname            -0.0142
     39 H14        -43.1689 -40.1606   3.0810 H              1 noname            -0.0142
     40 H15        -35.1972 -42.6585   1.6405 H              1 noname            -0.0260
     41 H16        -35.7949 -41.7504  -0.5545 H              1 noname             0.0003
     42 H17        -47.9440 -41.8632   1.1401 H              1 noname            -0.0605
     43 H18        -48.1976 -43.1115   3.2512 H              1 noname            -0.0616
     44 H19        -45.8322 -40.7020   0.6349 H              1 noname            -0.0569
     45 ****       -40.0675 -39.3353   3.3247 LP             1 noname             0.0000
     46 ****       -41.5278 -40.2658   3.2840 LP             1 noname             0.0000
     47 ****       -37.6730 -40.3226  -0.7970 LP             1 noname             0.0000
     48 ****       -39.1596 -38.6114  -2.9689 LP             1 noname             0.0000
     49 ****       -37.9543 -37.4253  -2.5941 LP             1 noname             0.0000
@<TRIPOS>BOND
    1    1    2 2     
    2    6    1 1     
    3    2    3 1     
    4    3    4 1     
    5    3   22 am    
    6    4    5 1     
    7    4    9 1     
    8    4   24 1     
    9    5    6 am    
   10    5    8 2     
   11    6    7 1     
   12    7   15 1     
   13    9   10 ar    
   14   14    9 ar    
   15   10   11 ar    
   16   11   12 ar    
   17   12   13 ar    
   18   13   14 ar    
   19   15   16 1     
   20   16   17 ar    
   21   21   16 ar    
   22   17   18 ar    
   23   18   19 ar    
   24   19   20 ar    
   25   20   21 ar    
   26   22   23 2     
   27   25   22 1     
   28   24   25 1     
   29   25   26 1     
   30   25   27 1     
   31    2   28 1     
   32   20   29 1     
   33   21   30 1     
   34    7   31 1     
   35    7   32 1     
   36   24   33 1     
   37   24   34 1     
   38   10   35 1     
   39   11   36 1     
   40    1   37 1     
   41   15   38 1     
   42   15   39 1     
   43   12   40 1     
   44   13   41 1     
   45   18   42 1     
   46   19   43 1     
   47   17   44 1     
   48    8   45 1     
   49    8   46 1     
   50   14   47 1     
   51   23   48 1     
   52   23   49 1     
@<TRIPOS>SUBSTRUCTURE
      1 noname         1
@<TRIPOS>SET
LONE_PAIRS      STATIC     ATOMS    <user>   **** ""
5 45 46 47 48 49
ATOM$BLUE        STATIC     ATOMS    COLORGROUP SYSTEM
5 45 46 47 48 49
@<TRIPOS>COMMENT
> <Gold.Version>
2022.3.0

> <Gold.Id.Protein>
unknown|6c5f_clean|pdb

> <Gold.Protein.ActiveResidues>
 LEU49   SER50   GLN58   ILE95   LEU96   ILE97   ARG98   PRO1    PHE2    LEU3   
 LEU30   LYS32   PRO33   ASP35   ARG36   VAL37   ASN38   ILE61   SER62   SER63  
 ILE64   GLY65   VAL66   VAL67   PHE100  LEU102  GLU103  SER104  TRP105  GLN106 
 ILE107  GLY108  LYS109  ILE110  THR112  VAL113  PHE2    ILE61   SER62   SER63  
 ILE64   PHE2    PRO1    PHE2    PRO1    PHE2    LEU3    LEU96   ILE97   ARG98  
 PHE2    ARG36   VAL37   ASN38   PRO1    PRO1    VAL113  PHE2    LEU30   LYS32  
 PRO33   GLN106  ILE107  GLY108  LYS109  ILE110  ILE64   GLY65   VAL66   VAL67  
 GLN58   PRO1    PRO101  LEU102  GLU103  SER104  TRP105  PHE2    LEU49   SER50  
 PHE2   

> <Gold.Score>
     Fitness  S(hb_ext) S(vdw_ext)  S(hb_int)    S(int)      intcor
     48.38       0.00      39.22       0.00      -5.54       2.98

> <Gold.Goldscore.Fitness>
48.3844

> <Gold.Goldscore.Internal.Vdw>
-0.7527

> <Gold.Goldscore.Internal.Torsion>
-1.8130

> <Gold.Goldscore.External.Vdw>
39.2192

> <Gold.Goldscore.Internal.HBond>
0.0000

> <Gold.Goldscore.External.HBond>
0.0000

> <Gold.Goldscore.Internal.Correction>
2.9764

> <Gold.Goldscore.Reference.RMSD>
5.2401

> <Gold.Goldscore.Internal.Vdw.Weighted>
-0.7527

> <Gold.Goldscore.Internal.Torsion.Weighted>
-1.8130

> <Gold.Goldscore.External.Vdw.Weighted>
53.9265

> <Gold.Goldscore.Internal.HBond.Weighted>
0.0000

> <Gold.Goldscore.External.HBond.Weighted>
0.0000

> <Gold.Goldscore.Internal.Correction.Weighted>
2.9764

> <Gold.Rescore>
     Score         DG    S(hbond)    S(metal)    S(lipo)     H(rot)  DE(clash)    DE(int)     intcor
     12.62     -26.09       0.00        0.00     206.10       1.37       9.04       4.43       ----

> <Gold.Chemscore.Fitness>
12.6230

> <Gold.Chemscore.DG>
-26.0915

> <Gold.Chemscore.ZeroCoef>
-5.4800

> <Gold.Chemscore.Hbond>
0.0000

> <Gold.Chemscore.Metal>
0.0000

> <Gold.Chemscore.Lipo>
206.0974

> <Gold.Chemscore.Internal_Hbond>
0.0000

> <Gold.Chemscore.DEClash>
9.0390

> <Gold.Chemscore.DEInternal>
4.4295

> <Gold.Chemscore.Rot>
1.3679

> <Gold.Chemscore.Internal.Correction>
   9.000000E+99

> <Gold.Chemscore.Reference.RMSD>
0.0000

> <Gold.Chemscore.Hbond.Weighted>
-0.0000

> <Gold.Chemscore.Metal.Weighted>
-0.0000

> <Gold.Chemscore.Lipo.Weighted>
-24.1134

> <Gold.Chemscore.Internal_Hbond.Weighted>
0.0000

> <Gold.Chemscore.DEClash.Weighted>
9.0390

> <Gold.Chemscore.DEInternal.Weighted>
4.4295

> <Gold.Chemscore.Rot.Weighted>
3.5019

> <Gold.Chemscore.Internal.Correction.Weighted>
   9.000000E+99

> <Gold.Reference.RMSD>
5.2401

