#       Name:                00000001
#       Creating user name   hitesit
#       Creation time:       Mon Feb 27 15:35:14 2023


#       File generated by GOLD software.
#

@<TRIPOS>MOLECULE
00000001|prep_VS_1|mol2|1|dock1
    49    52     1
SMALL
USER_CHARGES


@<TRIPOS>ATOM
      1 C1         -41.3750 -40.8287  -0.5144 C.2            1 noname            -0.0806
      2 C2         -40.4919 -40.1164  -1.2117 C.2            1 noname            -0.0779
      3 N1         -39.5776 -39.3191  -0.5642 N.am           1 noname             0.0248
      4 C3         -39.3904 -39.4282   0.8980 C.3            1 noname             0.1485
      5 C4         -40.5996 -40.0374   1.6165 C.2            1 noname             0.0779
      6 N2         -41.4612 -40.7769   0.8491 N.am           1 noname             0.0223
      7 C5         -42.5589 -41.5043   1.5079 C.3            1 noname             0.0144
      8 O1         -40.7399 -39.8695   2.8125 O.2            1 noname            -0.2820
      9 C6         -38.1978 -40.3581   1.1766 C.ar           1 noname             0.0167
     10 C7         -37.9241 -40.8332   2.4502 C.ar           1 noname            -0.0133
     11 C8         -36.8339 -41.6691   2.6206 C.ar           1 noname            -0.0379
     12 C9         -36.0569 -42.0054   1.5324 C.ar           1 noname            -0.0260
     13 C10        -36.4041 -41.4876   0.3040 C.ar           1 noname             0.0003
     14 N3         -37.4535 -40.6771   0.1119 N.ar           1 noname            -0.2412
     15 C11        -43.5796 -40.5734   2.1519 C.3            1 noname            -0.0142
     16 C12        -44.8744 -41.2874   2.4592 C.ar           1 noname            -0.0544
     17 C13        -45.9349 -41.2493   1.5661 C.ar           1 noname            -0.0569
     18 C14        -47.1236 -41.9018   1.8490 C.ar           1 noname            -0.0605
     19 C15        -47.2667 -42.6001   3.0295 C.ar           1 noname            -0.0616
     20 C16        -46.2203 -42.6450   3.9267 C.ar           1 noname            -0.0605
     21 C17        -45.0320 -41.9924   3.6432 C.ar           1 noname            -0.0569
     22 C18        -38.7209 -38.3816  -1.1050 C.2            1 noname             0.0696
     23 O2         -38.6045 -38.1237  -2.2951 O.2            1 noname            -0.2901
     24 C19        -39.0303 -37.9566   1.1785 C.3            1 noname            -0.0112
     25 C20        -38.0083 -37.7498   0.0643 C.3            1 noname             0.0244
     26 H1         -37.7939 -36.6867  -0.1008 H              1 noname             0.0244
     27 H2         -37.0589 -38.2575   0.2743 H              1 noname             0.0244
     28 H3         -40.5097 -40.1477  -2.2960 H              1 noname            -0.0779
     29 H4         -46.3283 -43.1929   4.8569 H              1 noname            -0.0605
     30 H5         -44.2148 -42.0331   4.3556 H              1 noname            -0.0569
     31 H6         -42.1397 -42.1638   2.2779 H              1 noname             0.0144
     32 H7         -43.0808 -42.1373   0.7805 H              1 noname             0.0144
     33 H8         -38.6170 -37.7927   2.1814 H              1 noname            -0.0112
     34 H9         -39.9019 -37.3036   1.0467 H              1 noname            -0.0112
     35 H10        -38.5491 -40.5563   3.2928 H              1 noname            -0.0133
     36 H11        -36.5924 -42.0574   3.6045 H              1 noname            -0.0379
     37 H12        -42.0771 -41.4507  -1.0585 H              1 noname            -0.0806
     38 H13        -43.7826 -39.7346   1.4746 H              1 noname            -0.0142
     39 H14        -43.1689 -40.1606   3.0810 H              1 noname            -0.0142
     40 H15        -35.1972 -42.6585   1.6405 H              1 noname            -0.0260
     41 H16        -35.7949 -41.7504  -0.5545 H              1 noname             0.0003
     42 H17        -47.9440 -41.8632   1.1401 H              1 noname            -0.0605
     43 H18        -48.1976 -43.1115   3.2512 H              1 noname            -0.0616
     44 H19        -45.8322 -40.7020   0.6349 H              1 noname            -0.0569
     45 ****       -40.0675 -39.3353   3.3247 LP             1 noname             0.0000
     46 ****       -41.5278 -40.2658   3.2840 LP             1 noname             0.0000
     47 ****       -37.6730 -40.3226  -0.7970 LP             1 noname             0.0000
     48 ****       -39.1596 -38.6114  -2.9689 LP             1 noname             0.0000
     49 ****       -37.9543 -37.4253  -2.5941 LP             1 noname             0.0000
@<TRIPOS>BOND
    1    1    2 2     
    2    6    1 1     
    3    2    3 1     
    4    3    4 1     
    5    3   22 am    
    6    4    5 1     
    7    4    9 1     
    8    4   24 1     
    9    5    6 am    
   10    5    8 2     
   11    6    7 1     
   12    7   15 1     
   13    9   10 ar    
   14   14    9 ar    
   15   10   11 ar    
   16   11   12 ar    
   17   12   13 ar    
   18   13   14 ar    
   19   15   16 1     
   20   16   17 ar    
   21   21   16 ar    
   22   17   18 ar    
   23   18   19 ar    
   24   19   20 ar    
   25   20   21 ar    
   26   22   23 2     
   27   25   22 1     
   28   24   25 1     
   29   25   26 1     
   30   25   27 1     
   31    2   28 1     
   32   20   29 1     
   33   21   30 1     
   34    7   31 1     
   35    7   32 1     
   36   24   33 1     
   37   24   34 1     
   38   10   35 1     
   39   11   36 1     
   40    1   37 1     
   41   15   38 1     
   42   15   39 1     
   43   12   40 1     
   44   13   41 1     
   45   18   42 1     
   46   19   43 1     
   47   17   44 1     
   48    8   45 1     
   49    8   46 1     
   50   14   47 1     
   51   23   48 1     
   52   23   49 1     
@<TRIPOS>SUBSTRUCTURE
      1 noname         1
@<TRIPOS>SET
LONE_PAIRS      STATIC     ATOMS    <user>   **** ""
5 45 46 47 48 49
ATOM$BLUE        STATIC     ATOMS    COLORGROUP SYSTEM
5 45 46 47 48 49
@<TRIPOS>COMMENT
> <Gold.Version>
2022.3.0

> <Gold.Id.Protein>
unknown|6c5f_clean|pdb

> <Gold.Protein.ActiveResidues>
 LEU49   SER50   GLN58   ILE95   LEU96   ILE97   ARG98   PRO1    PHE2    LEU3   
 LEU30   LYS32   PRO33   ASP35   ARG36   VAL37   ASN38   ILE61   SER62   SER63  
 ILE64   GLY65   VAL66   VAL67   PHE100  LEU102  GLU103  SER104  TRP105  GLN106 
 ILE107  GLY108  LYS109  ILE110  THR112  VAL113  PHE2    ILE61   SER62   SER63  
 ILE64   PHE2    PRO1    PHE2    PRO1    PHE2    LEU3    LEU96   ILE97   ARG98  
 PHE2    ARG36   VAL37   ASN38   PRO1    PRO1    VAL113  PHE2    LEU30   LYS32  
 PRO33   GLN106  ILE107  GLY108  LYS109  ILE110  ILE64   GLY65   VAL66   VAL67  
 GLN58   PRO1    PRO101  LEU102  GLU103  SER104  TRP105  PHE2    LEU49   SER50  
 PHE2   

> <Gold.Score>
     Fitness  S(hb_ext) S(vdw_ext)  S(hb_int)    S(int)      intcor
     48.38       0.00      39.22       0.00      -5.54       2.98

> <Gold.Goldscore.Fitness>
48.3844

> <Gold.Goldscore.Internal.Vdw>
-0.7527

> <Gold.Goldscore.Internal.Torsion>
-1.8130

> <Gold.Goldscore.External.Vdw>
39.2192

> <Gold.Goldscore.Internal.HBond>
0.0000

> <Gold.Goldscore.External.HBond>
0.0000

> <Gold.Goldscore.Internal.Correction>
2.9764

> <Gold.Goldscore.Reference.RMSD>
5.2401

> <Gold.Goldscore.Internal.Vdw.Weighted>
-0.7527

> <Gold.Goldscore.Internal.Torsion.Weighted>
-1.8130

> <Gold.Goldscore.External.Vdw.Weighted>
53.9265

> <Gold.Goldscore.Internal.HBond.Weighted>
0.0000

> <Gold.Goldscore.External.HBond.Weighted>
0.0000

> <Gold.Goldscore.Internal.Correction.Weighted>
2.9764

> <Gold.Rescore>
     Score         DG    S(hbond)    S(metal)    S(lipo)     H(rot)  DE(clash)    DE(int)     intcor
     12.62     -26.09       0.00        0.00     206.10       1.37       9.04       4.43       ----

> <Gold.Chemscore.Fitness>
12.6230

> <Gold.Chemscore.DG>
-26.0915

> <Gold.Chemscore.ZeroCoef>
-5.4800

> <Gold.Chemscore.Hbond>
0.0000

> <Gold.Chemscore.Metal>
0.0000

> <Gold.Chemscore.Lipo>
206.0974

> <Gold.Chemscore.Internal_Hbond>
0.0000

> <Gold.Chemscore.DEClash>
9.0390

> <Gold.Chemscore.DEInternal>
4.4295

> <Gold.Chemscore.Rot>
1.3679

> <Gold.Chemscore.Internal.Correction>
   9.000000E+99

> <Gold.Chemscore.Reference.RMSD>
0.0000

> <Gold.Chemscore.Hbond.Weighted>
-0.0000

> <Gold.Chemscore.Metal.Weighted>
-0.0000

> <Gold.Chemscore.Lipo.Weighted>
-24.1134

> <Gold.Chemscore.Internal_Hbond.Weighted>
0.0000

> <Gold.Chemscore.DEClash.Weighted>
9.0390

> <Gold.Chemscore.DEInternal.Weighted>
4.4295

> <Gold.Chemscore.Rot.Weighted>
3.5019

> <Gold.Chemscore.Internal.Correction.Weighted>
   9.000000E+99

> <Gold.Reference.RMSD>
5.2401

#       Name:                00000001
#       Creating user name   hitesit
#       Creation time:       Mon Feb 27 15:35:26 2023


#       File generated by GOLD software.
#

@<TRIPOS>MOLECULE
00000001|prep_VS_1|mol2|1|dock6
    49    52     1
SMALL
USER_CHARGES


@<TRIPOS>ATOM
      1 C1         -41.3429 -40.6497  -0.8071 C.2            1 noname            -0.0806
      2 C2         -40.4708 -39.8529  -1.4222 C.2            1 noname            -0.0779
      3 N1         -39.5871 -39.0955  -0.6900 N.am           1 noname             0.0248
      4 C3         -39.4156 -39.3347   0.7585 C.3            1 noname             0.1485
      5 C4         -40.6167 -40.0392   1.3993 C.2            1 noname             0.0779
      6 N2         -41.4479 -40.7268   0.5539 N.am           1 noname             0.0223
      7 C5         -42.5335 -41.5404   1.1259 C.3            1 noname             0.0144
      8 O1         -40.7768 -39.9867   2.6034 O.2            1 noname            -0.2820
      9 C6         -38.2016 -40.2550   0.9683 C.ar           1 noname             0.0167
     10 C7         -37.3450 -40.5823  -0.0718 C.ar           1 noname            -0.0133
     11 C8         -36.2717 -41.4144   0.1967 C.ar           1 noname            -0.0379
     12 C9         -36.0827 -41.8907   1.4767 C.ar           1 noname            -0.0260
     13 C10        -36.9833 -41.5123   2.4479 C.ar           1 noname             0.0003
     14 N3         -38.0296 -40.7086   2.2149 N.ar           1 noname            -0.2412
     15 C11        -43.4949 -40.7231   1.9807 C.3            1 noname            -0.0142
     16 C12        -44.8015 -41.4469   2.2034 C.ar           1 noname            -0.0544
     17 C13        -45.9565 -41.0431   1.5503 C.ar           1 noname            -0.0569
     18 C14        -47.1556 -41.7051   1.7566 C.ar           1 noname            -0.0605
     19 C15        -47.2146 -42.7792   2.6196 C.ar           1 noname            -0.0616
     20 C16        -46.0737 -43.1901   3.2761 C.ar           1 noname            -0.0605
     21 C17        -44.8750 -42.5277   3.0694 C.ar           1 noname            -0.0569
     22 C18        -38.7495 -38.0898  -1.1288 C.2            1 noname             0.0696
     23 O2         -38.6251 -37.7199  -2.2881 O.2            1 noname            -0.2901
     24 C19        -39.0996 -37.8866   1.1792 C.3            1 noname            -0.0112
     25 C20        -38.0695 -37.5508   0.1045 C.3            1 noname             0.0244
     26 H1         -37.8822 -36.4717   0.0415 H              1 noname             0.0244
     27 H2         -37.1093 -38.0507   0.2811 H              1 noname             0.0244
     28 H3         -40.4740 -39.7841  -2.5049 H              1 noname            -0.0779
     29 H4         -46.1152 -44.0345   3.9562 H              1 noname            -0.0605
     30 H5         -43.9829 -42.8583   3.5911 H              1 noname            -0.0569
     31 H6         -42.0974 -42.3379   1.7403 H              1 noname             0.0144
     32 H7         -43.1077 -42.0192   0.3238 H              1 noname             0.0144
     33 H8         -38.7038 -37.8056   2.1991 H              1 noname            -0.0112
     34 H9         -39.9870 -37.2472   1.0950 H              1 noname            -0.0112
     35 H10        -37.5120 -40.1959  -1.0718 H              1 noname            -0.0133
     36 H11        -35.5833 -41.6900  -0.5954 H              1 noname            -0.0379
     37 H12        -42.0207 -41.2367  -1.4170 H              1 noname            -0.0806
     38 H13        -43.6939 -39.7644   1.4858 H              1 noname            -0.0142
     39 H14        -43.0343 -40.5081   2.9523 H              1 noname            -0.0142
     40 H15        -35.2492 -42.5443   1.7120 H              1 noname            -0.0260
     41 H16        -36.8373 -41.8851   3.4564 H              1 noname             0.0003
     42 H17        -48.0506 -41.3777   1.2380 H              1 noname            -0.0605
     43 H18        -48.1538 -43.2981   2.7810 H              1 noname            -0.0616
     44 H19        -45.9203 -40.1988   0.8698 H              1 noname            -0.0569
     45 ****       -40.1258 -39.4849   3.1729 LP             1 noname             0.0000
     46 ****       -41.5595 -40.4454   3.0242 LP             1 noname             0.0000
     47 ****       -38.6608 -40.4563   2.9483 LP             1 noname             0.0000
     48 ****       -39.1580 -38.1573  -3.0125 LP             1 noname             0.0000
     49 ****       -37.9905 -36.9800  -2.5115 LP             1 noname             0.0000
@<TRIPOS>BOND
    1    1    2 2     
    2    6    1 1     
    3    2    3 1     
    4    3    4 1     
    5    3   22 am    
    6    4    5 1     
    7    4    9 1     
    8    4   24 1     
    9    5    6 am    
   10    5    8 2     
   11    6    7 1     
   12    7   15 1     
   13    9   10 ar    
   14   14    9 ar    
   15   10   11 ar    
   16   11   12 ar    
   17   12   13 ar    
   18   13   14 ar    
   19   15   16 1     
   20   16   17 ar    
   21   21   16 ar    
   22   17   18 ar    
   23   18   19 ar    
   24   19   20 ar    
   25   20   21 ar    
   26   22   23 2     
   27   25   22 1     
   28   24   25 1     
   29   25   26 1     
   30   25   27 1     
   31    2   28 1     
   32   20   29 1     
   33   21   30 1     
   34    7   31 1     
   35    7   32 1     
   36   24   33 1     
   37   24   34 1     
   38   10   35 1     
   39   11   36 1     
   40    1   37 1     
   41   15   38 1     
   42   15   39 1     
   43   12   40 1     
   44   13   41 1     
   45   18   42 1     
   46   19   43 1     
   47   17   44 1     
   48    8   45 1     
   49    8   46 1     
   50   14   47 1     
   51   23   48 1     
   52   23   49 1     
@<TRIPOS>SUBSTRUCTURE
      1 noname         1
@<TRIPOS>SET
LONE_PAIRS      STATIC     ATOMS    <user>   **** ""
5 45 46 47 48 49
ATOM$BLUE        STATIC     ATOMS    COLORGROUP SYSTEM
5 45 46 47 48 49
@<TRIPOS>COMMENT
> <Gold.Version>
2022.3.0

> <Gold.Id.Protein>
unknown|6c5f_clean|pdb

> <Gold.Protein.ActiveResidues>
 LEU49   SER50   GLN58   ILE95   LEU96   ILE97   ARG98   PRO1    PHE2    LEU3   
 LEU30   LYS32   PRO33   ASP35   ARG36   VAL37   ASN38   ILE61   SER62   SER63  
 ILE64   GLY65   VAL66   VAL67   PHE100  LEU102  GLU103  SER104  TRP105  GLN106 
 ILE107  GLY108  LYS109  ILE110  THR112  VAL113  PHE2    ILE61   SER62   SER63  
 ILE64   PHE2    PRO1    PHE2    PRO1    PHE2    LEU3    LEU96   ILE97   ARG98  
 PHE2    ARG36   VAL37   ASN38   PRO1    PRO1    VAL113  PHE2    LEU30   LYS32  
 PRO33   GLN106  ILE107  GLY108  LYS109  ILE110  ILE64   GLY65   VAL66   VAL67  
 GLN58   PRO1    PRO101  LEU102  GLU103  SER104  TRP105  PHE2    LEU49   SER50  
 PHE2   

> <Gold.Score>
     Fitness  S(hb_ext) S(vdw_ext)  S(hb_int)    S(int)      intcor
     48.27       0.00      40.91       0.00      -7.97       3.78

> <Gold.Goldscore.Fitness>
48.2704

> <Gold.Goldscore.Internal.Vdw>
-2.3169

> <Gold.Goldscore.Internal.Torsion>
-1.8779

> <Gold.Goldscore.External.Vdw>
40.9056

> <Gold.Goldscore.Internal.HBond>
0.0000

> <Gold.Goldscore.External.HBond>
0.0000

> <Gold.Goldscore.Internal.Correction>
3.7800

> <Gold.Goldscore.Reference.RMSD>
5.2352

> <Gold.Goldscore.Internal.Vdw.Weighted>
-2.3169

> <Gold.Goldscore.Internal.Torsion.Weighted>
-1.8779

> <Gold.Goldscore.External.Vdw.Weighted>
56.2452

> <Gold.Goldscore.Internal.HBond.Weighted>
0.0000

> <Gold.Goldscore.External.HBond.Weighted>
0.0000

> <Gold.Goldscore.Internal.Correction.Weighted>
3.7800

> <Gold.Rescore>
     Score         DG    S(hbond)    S(metal)    S(lipo)     H(rot)  DE(clash)    DE(int)     intcor
     14.95     -26.87       0.00        0.00     212.71       1.37       8.97       2.95       ----

> <Gold.Chemscore.Fitness>
14.9477

> <Gold.Chemscore.DG>
-26.8651

> <Gold.Chemscore.ZeroCoef>
-5.4800

> <Gold.Chemscore.Hbond>
0.0000

> <Gold.Chemscore.Metal>
0.0000

> <Gold.Chemscore.Lipo>
212.7099

> <Gold.Chemscore.Internal_Hbond>
0.0000

> <Gold.Chemscore.DEClash>
8.9723

> <Gold.Chemscore.DEInternal>
2.9451

> <Gold.Chemscore.Rot>
1.3679

> <Gold.Chemscore.Internal.Correction>
   9.000000E+99

> <Gold.Chemscore.Reference.RMSD>
0.0000

> <Gold.Chemscore.Hbond.Weighted>
-0.0000

> <Gold.Chemscore.Metal.Weighted>
-0.0000

> <Gold.Chemscore.Lipo.Weighted>
-24.8871

> <Gold.Chemscore.Internal_Hbond.Weighted>
0.0000

> <Gold.Chemscore.DEClash.Weighted>
8.9723

> <Gold.Chemscore.DEInternal.Weighted>
2.9451

> <Gold.Chemscore.Rot.Weighted>
3.5019

> <Gold.Chemscore.Internal.Correction.Weighted>
   9.000000E+99

> <Gold.Reference.RMSD>
5.2352

#       Name:                00000001
#       Creating user name   hitesit
#       Creation time:       Mon Feb 27 15:35:19 2023


#       File generated by GOLD software.
#

@<TRIPOS>MOLECULE
00000001|prep_VS_1|mol2|1|dock3
    49    52     1
SMALL
USER_CHARGES


@<TRIPOS>ATOM
      1 C1         -41.3379 -40.6515  -0.7146 C.2            1 noname            -0.0806
      2 C2         -40.4568 -39.8559  -1.3180 C.2            1 noname            -0.0779
      3 N1         -39.5616 -39.1227  -0.5751 N.am           1 noname             0.0248
      4 C3         -39.3902 -39.3887   0.8687 C.3            1 noname             0.1485
      5 C4         -40.5991 -40.0883   1.5002 C.2            1 noname             0.0779
      6 N2         -41.4411 -40.7503   0.6452 N.am           1 noname             0.0223
      7 C5         -42.5361 -41.5593   1.2059 C.3            1 noname             0.0144
      8 O1         -40.7560 -40.0542   2.7054 O.2            1 noname            -0.2820
      9 C6         -38.1880 -40.3283   1.0599 C.ar           1 noname             0.0167
     10 C7         -37.3405 -40.6525   0.0114 C.ar           1 noname            -0.0133
     11 C8         -36.2775 -41.5028   0.2633 C.ar           1 noname            -0.0379
     12 C9         -36.0894 -41.9996   1.5355 C.ar           1 noname            -0.0260
     13 C10        -36.9804 -41.6228   2.5161 C.ar           1 noname             0.0003
     14 N3         -38.0167 -40.8018   2.2992 N.ar           1 noname            -0.2412
     15 C11        -43.5373 -40.7272   1.9984 C.3            1 noname            -0.0142
     16 C12        -44.8344 -41.4692   2.2174 C.ar           1 noname            -0.0544
     17 C13        -44.8927 -42.5586   3.0738 C.ar           1 noname            -0.0569
     18 C14        -46.0815 -43.2410   3.2727 C.ar           1 noname            -0.0605
     19 C15        -47.2272 -42.8426   2.6165 C.ar           1 noname            -0.0616
     20 C16        -47.1826 -41.7617   1.7613 C.ar           1 noname            -0.0605
     21 C17        -45.9935 -41.0798   1.5629 C.ar           1 noname            -0.0569
     22 C18        -38.7118 -38.1207  -0.9987 C.2            1 noname             0.0696
     23 O2         -38.5850 -37.7328  -2.1519 O.2            1 noname            -0.2901
     24 C19        -39.0543 -37.9523   1.3132 C.3            1 noname            -0.0112
     25 C20        -38.0221 -37.6117   0.2419 C.3            1 noname             0.0244
     26 H1         -37.8209 -36.5343   0.1969 H              1 noname             0.0244
     27 H2         -37.0682 -38.1272   0.4078 H              1 noname             0.0244
     28 H3         -40.4614 -39.7685  -2.3994 H              1 noname            -0.0779
     29 H4         -48.0813 -41.4448   1.2426 H              1 noname            -0.0605
     30 H5         -45.9685 -40.2310   0.8876 H              1 noname            -0.0569
     31 H6         -42.1121 -42.3299   1.8616 H              1 noname             0.0144
     32 H7         -43.0754 -42.0723   0.4007 H              1 noname             0.0144
     33 H8         -38.6552 -37.8939   2.3334 H              1 noname            -0.0112
     34 H9         -39.9334 -37.2999   1.2420 H              1 noname            -0.0112
     35 H10        -37.5066 -40.2498  -0.9823 H              1 noname            -0.0133
     36 H11        -35.5964 -41.7765  -0.5358 H              1 noname            -0.0379
     37 H12        -42.0247 -41.2191  -1.3327 H              1 noname            -0.0806
     38 H13        -43.7423 -39.7952   1.4572 H              1 noname            -0.0142
     39 H14        -43.1082 -40.4609   2.9717 H              1 noname            -0.0142
     40 H15        -35.2639 -42.6678   1.7578 H              1 noname            -0.0260
     41 H16        -36.8352 -42.0118   3.5185 H              1 noname             0.0003
     42 H17        -46.1114 -44.0910   3.9463 H              1 noname            -0.0605
     43 H18        -48.1587 -43.3769   2.7724 H              1 noname            -0.0616
     44 H19        -43.9965 -42.8799   3.5942 H              1 noname            -0.0569
     45 ****       -40.0972 -39.5707   3.2818 LP             1 noname             0.0000
     46 ****       -41.5437 -40.5096   3.1202 LP             1 noname             0.0000
     47 ****       -38.6412 -40.5513   3.0390 LP             1 noname             0.0000
     48 ****       -39.1251 -38.1508  -2.8823 LP             1 noname             0.0000
     49 ****       -37.9413 -36.9975  -2.3641 LP             1 noname             0.0000
@<TRIPOS>BOND
    1    1    2 2     
    2    6    1 1     
    3    2    3 1     
    4    3    4 1     
    5    3   22 am    
    6    4    5 1     
    7    4    9 1     
    8    4   24 1     
    9    5    6 am    
   10    5    8 2     
   11    6    7 1     
   12    7   15 1     
   13    9   10 ar    
   14   14    9 ar    
   15   10   11 ar    
   16   11   12 ar    
   17   12   13 ar    
   18   13   14 ar    
   19   15   16 1     
   20   16   17 ar    
   21   21   16 ar    
   22   17   18 ar    
   23   18   19 ar    
   24   19   20 ar    
   25   20   21 ar    
   26   22   23 2     
   27   25   22 1     
   28   24   25 1     
   29   25   26 1     
   30   25   27 1     
   31    2   28 1     
   32   20   29 1     
   33   21   30 1     
   34    7   31 1     
   35    7   32 1     
   36   24   33 1     
   37   24   34 1     
   38   10   35 1     
   39   11   36 1     
   40    1   37 1     
   41   15   38 1     
   42   15   39 1     
   43   12   40 1     
   44   13   41 1     
   45   18   42 1     
   46   19   43 1     
   47   17   44 1     
   48    8   45 1     
   49    8   46 1     
   50   14   47 1     
   51   23   48 1     
   52   23   49 1     
@<TRIPOS>SUBSTRUCTURE
      1 noname         1
@<TRIPOS>SET
LONE_PAIRS      STATIC     ATOMS    <user>   **** ""
5 45 46 47 48 49
ATOM$BLUE        STATIC     ATOMS    COLORGROUP SYSTEM
5 45 46 47 48 49
@<TRIPOS>COMMENT
> <Gold.Version>
2022.3.0

> <Gold.Id.Protein>
unknown|6c5f_clean|pdb

> <Gold.Protein.ActiveResidues>
 LEU49   SER50   GLN58   ILE95   LEU96   ILE97   ARG98   PRO1    PHE2    LEU3   
 LEU30   LYS32   PRO33   ASP35   ARG36   VAL37   ASN38   ILE61   SER62   SER63  
 ILE64   GLY65   VAL66   VAL67   PHE100  LEU102  GLU103  SER104  TRP105  GLN106 
 ILE107  GLY108  LYS109  ILE110  THR112  VAL113  PHE2    ILE61   SER62   SER63  
 ILE64   PHE2    PRO1    PHE2    PRO1    PHE2    LEU3    LEU96   ILE97   ARG98  
 PHE2    ARG36   VAL37   ASN38   PRO1    PRO1    VAL113  PHE2    LEU30   LYS32  
 PRO33   GLN106  ILE107  GLY108  LYS109  ILE110  ILE64   GLY65   VAL66   VAL67  
 GLN58   PRO1    PRO101  LEU102  GLU103  SER104  TRP105  PHE2    LEU49   SER50  
 PHE2   

> <Gold.Score>
     Fitness  S(hb_ext) S(vdw_ext)  S(hb_int)    S(int)      intcor
     48.02       0.00      40.42       0.00      -7.56       3.78

> <Gold.Goldscore.Fitness>
48.0204

> <Gold.Goldscore.Internal.Vdw>
-1.9596

> <Gold.Goldscore.Internal.Torsion>
-1.8239

> <Gold.Goldscore.External.Vdw>
40.4246

> <Gold.Goldscore.Internal.HBond>
0.0000

> <Gold.Goldscore.External.HBond>
0.0000

> <Gold.Goldscore.Internal.Correction>
3.7800

> <Gold.Goldscore.Reference.RMSD>
5.2312

> <Gold.Goldscore.Internal.Vdw.Weighted>
-1.9596

> <Gold.Goldscore.Internal.Torsion.Weighted>
-1.8239

> <Gold.Goldscore.External.Vdw.Weighted>
55.5838

> <Gold.Goldscore.Internal.HBond.Weighted>
0.0000

> <Gold.Goldscore.External.HBond.Weighted>
0.0000

> <Gold.Goldscore.Internal.Correction.Weighted>
3.7800

> <Gold.Rescore>
     Score         DG    S(hbond)    S(metal)    S(lipo)     H(rot)  DE(clash)    DE(int)     intcor
     15.55     -25.38       0.00        0.00     200.05       1.37       7.04       2.79       ----

> <Gold.Chemscore.Fitness>
15.5509

> <Gold.Chemscore.DG>
-25.3838

> <Gold.Chemscore.ZeroCoef>
-5.4800

> <Gold.Chemscore.Hbond>
0.0000

> <Gold.Chemscore.Metal>
0.0000

> <Gold.Chemscore.Lipo>
200.0489

> <Gold.Chemscore.Internal_Hbond>
0.0000

> <Gold.Chemscore.DEClash>
7.0431

> <Gold.Chemscore.DEInternal>
2.7897

> <Gold.Chemscore.Rot>
1.3679

> <Gold.Chemscore.Internal.Correction>
   9.000000E+99

> <Gold.Chemscore.Reference.RMSD>
0.0000

> <Gold.Chemscore.Hbond.Weighted>
-0.0000

> <Gold.Chemscore.Metal.Weighted>
-0.0000

> <Gold.Chemscore.Lipo.Weighted>
-23.4057

> <Gold.Chemscore.Internal_Hbond.Weighted>
0.0000

> <Gold.Chemscore.DEClash.Weighted>
7.0431

> <Gold.Chemscore.DEInternal.Weighted>
2.7897

> <Gold.Chemscore.Rot.Weighted>
3.5019

> <Gold.Chemscore.Internal.Correction.Weighted>
   9.000000E+99

> <Gold.Reference.RMSD>
5.2312

#       Name:                00000001
#       Creating user name   hitesit
#       Creation time:       Mon Feb 27 15:35:28 2023


#       File generated by GOLD software.
#

@<TRIPOS>MOLECULE
00000001|prep_VS_1|mol2|1|dock7
    49    52     1
SMALL
USER_CHARGES


@<TRIPOS>ATOM
      1 C1         -41.3229 -40.7341  -0.6489 C.2            1 noname            -0.0806
      2 C2         -40.4622 -39.9529  -1.2989 C.2            1 noname            -0.0779
      3 N1         -39.5693 -39.1738  -0.6014 N.am           1 noname             0.0248
      4 C3         -39.3754 -39.3724   0.8504 C.3            1 noname             0.1485
      5 C4         -40.5649 -40.0613   1.5286 C.2            1 noname             0.0779
      6 N2         -41.4071 -40.7736   0.7152 N.am           1 noname             0.0223
      7 C5         -42.4820 -41.5733   1.3259 C.3            1 noname             0.0144
      8 O1         -40.7069 -39.9758   2.7330 O.2            1 noname            -0.2820
      9 C6         -38.1561 -40.2842   1.0670 C.ar           1 noname             0.0167
     10 C7         -37.3167 -40.6416   0.0228 C.ar           1 noname            -0.0133
     11 C8         -36.2373 -41.4635   0.2980 C.ar           1 noname            -0.0379
     12 C9         -36.0255 -41.9005   1.5883 C.ar           1 noname            -0.0260
     13 C10        -36.9101 -41.4942   2.5630 C.ar           1 noname             0.0003
     14 N3         -37.9619 -40.6995   2.3237 N.ar           1 noname            -0.2412
     15 C11        -43.5067 -40.7185   2.0622 C.3            1 noname            -0.0142
     16 C12        -44.8095 -41.4551   2.2654 C.ar           1 noname            -0.0544
     17 C13        -45.9515 -41.0807   1.5731 C.ar           1 noname            -0.0569
     18 C14        -47.1471 -41.7543   1.7614 C.ar           1 noname            -0.0605
     19 C15        -47.2155 -42.8106   2.6453 C.ar           1 noname            -0.0616
     20 C16        -46.0875 -43.1922   3.3408 C.ar           1 noname            -0.0605
     21 C17        -44.8923 -42.5183   3.1521 C.ar           1 noname            -0.0569
     22 C18        -38.7408 -38.1790  -1.0806 C.2            1 noname             0.0696
     23 O2         -38.6349 -37.8410  -2.2514 O.2            1 noname            -0.2901
     24 C19        -39.0565 -37.9126   1.2260 C.3            1 noname            -0.0112
     25 C20        -38.0435 -37.6046   0.1269 C.3            1 noname             0.0244
     26 H1         -37.8599 -36.5273   0.0313 H              1 noname             0.0244
     27 H2         -37.0796 -38.0976   0.3027 H              1 noname             0.0244
     28 H3         -40.4818 -39.9141  -2.3829 H              1 noname            -0.0779
     29 H4         -46.1365 -44.0225   4.0376 H              1 noname            -0.0605
     30 H5         -44.0105 -42.8256   3.7044 H              1 noname            -0.0569
     31 H6         -42.0397 -42.2886   2.0304 H              1 noname             0.0144
     32 H7         -43.0056 -42.1511   0.5550 H              1 noname             0.0144
     33 H8         -38.6455 -37.8026   2.2371 H              1 noname            -0.0112
     34 H9         -39.9466 -37.2775   1.1376 H              1 noname            -0.0112
     35 H10        -37.5016 -40.2858  -0.9854 H              1 noname            -0.0133
     36 H11        -35.5620 -41.7620  -0.4971 H              1 noname            -0.0379
     37 H12        -42.0085 -41.3391  -1.2319 H              1 noname            -0.0806
     38 H13        -43.6959 -39.8039   1.4867 H              1 noname            -0.0142
     39 H14        -43.1069 -40.4216   3.0392 H              1 noname            -0.0142
     40 H15        -35.1868 -42.5455   1.8290 H              1 noname            -0.0260
     41 H16        -36.7462 -41.8361   3.5796 H              1 noname             0.0003
     42 H17        -48.0319 -41.4501   1.2121 H              1 noname            -0.0605
     43 H18        -48.1519 -43.3386   2.7927 H              1 noname            -0.0616
     44 H19        -45.9078 -40.2506   0.8759 H              1 noname            -0.0569
     45 ****       -40.0486 -39.4571   3.2785 LP             1 noname             0.0000
     46 ****       -41.4820 -40.4242   3.1782 LP             1 noname             0.0000
     47 ****       -38.5810 -40.4261   3.0598 LP             1 noname             0.0000
     48 ****       -39.1776 -38.2994  -2.9552 LP             1 noname             0.0000
     49 ****       -38.0056 -37.1063  -2.5048 LP             1 noname             0.0000
@<TRIPOS>BOND
    1    1    2 2     
    2    6    1 1     
    3    2    3 1     
    4    3    4 1     
    5    3   22 am    
    6    4    5 1     
    7    4    9 1     
    8    4   24 1     
    9    5    6 am    
   10    5    8 2     
   11    6    7 1     
   12    7   15 1     
   13    9   10 ar    
   14   14    9 ar    
   15   10   11 ar    
   16   11   12 ar    
   17   12   13 ar    
   18   13   14 ar    
   19   15   16 1     
   20   16   17 ar    
   21   21   16 ar    
   22   17   18 ar    
   23   18   19 ar    
   24   19   20 ar    
   25   20   21 ar    
   26   22   23 2     
   27   25   22 1     
   28   24   25 1     
   29   25   26 1     
   30   25   27 1     
   31    2   28 1     
   32   20   29 1     
   33   21   30 1     
   34    7   31 1     
   35    7   32 1     
   36   24   33 1     
   37   24   34 1     
   38   10   35 1     
   39   11   36 1     
   40    1   37 1     
   41   15   38 1     
   42   15   39 1     
   43   12   40 1     
   44   13   41 1     
   45   18   42 1     
   46   19   43 1     
   47   17   44 1     
   48    8   45 1     
   49    8   46 1     
   50   14   47 1     
   51   23   48 1     
   52   23   49 1     
@<TRIPOS>SUBSTRUCTURE
      1 noname         1
@<TRIPOS>SET
LONE_PAIRS      STATIC     ATOMS    <user>   **** ""
5 45 46 47 48 49
ATOM$BLUE        STATIC     ATOMS    COLORGROUP SYSTEM
5 45 46 47 48 49
@<TRIPOS>COMMENT
> <Gold.Version>
2022.3.0

> <Gold.Id.Protein>
unknown|6c5f_clean|pdb

> <Gold.Protein.ActiveResidues>
 LEU49   SER50   GLN58   ILE95   LEU96   ILE97   ARG98   PRO1    PHE2    LEU3   
 LEU30   LYS32   PRO33   ASP35   ARG36   VAL37   ASN38   ILE61   SER62   SER63  
 ILE64   GLY65   VAL66   VAL67   PHE100  LEU102  GLU103  SER104  TRP105  GLN106 
 ILE107  GLY108  LYS109  ILE110  THR112  VAL113  PHE2    ILE61   SER62   SER63  
 ILE64   PHE2    PRO1    PHE2    PRO1    PHE2    LEU3    LEU96   ILE97   ARG98  
 PHE2    ARG36   VAL37   ASN38   PRO1    PRO1    VAL113  PHE2    LEU30   LYS32  
 PRO33   GLN106  ILE107  GLY108  LYS109  ILE110  ILE64   GLY65   VAL66   VAL67  
 GLN58   PRO1    PRO101  LEU102  GLU103  SER104  TRP105  PHE2    LEU49   SER50  
 PHE2   

> <Gold.Score>
     Fitness  S(hb_ext) S(vdw_ext)  S(hb_int)    S(int)      intcor
     47.98       0.00      40.40       0.00      -7.57       3.78

> <Gold.Goldscore.Fitness>
47.9795

> <Gold.Goldscore.Internal.Vdw>
-1.8007

> <Gold.Goldscore.Internal.Torsion>
-1.9896

> <Gold.Goldscore.External.Vdw>
40.3998

> <Gold.Goldscore.Internal.HBond>
0.0000

> <Gold.Goldscore.External.HBond>
0.0000

> <Gold.Goldscore.Internal.Correction>
3.7800

> <Gold.Goldscore.Reference.RMSD>
5.2351

> <Gold.Goldscore.Internal.Vdw.Weighted>
-1.8007

> <Gold.Goldscore.Internal.Torsion.Weighted>
-1.9896

> <Gold.Goldscore.External.Vdw.Weighted>
55.5498

> <Gold.Goldscore.Internal.HBond.Weighted>
0.0000

> <Gold.Goldscore.External.HBond.Weighted>
0.0000

> <Gold.Goldscore.Internal.Correction.Weighted>
3.7800

> <Gold.Rescore>
     Score         DG    S(hbond)    S(metal)    S(lipo)     H(rot)  DE(clash)    DE(int)     intcor
     18.04     -24.57       0.00        0.00     193.06       1.37       3.93       2.59       ----

> <Gold.Chemscore.Fitness>
18.0439

> <Gold.Chemscore.DG>
-24.5662

> <Gold.Chemscore.ZeroCoef>
-5.4800

> <Gold.Chemscore.Hbond>
0.0000

> <Gold.Chemscore.Metal>
0.0000

> <Gold.Chemscore.Lipo>
193.0607

> <Gold.Chemscore.Internal_Hbond>
0.0000

> <Gold.Chemscore.DEClash>
3.9299

> <Gold.Chemscore.DEInternal>
2.5924

> <Gold.Chemscore.Rot>
1.3679

> <Gold.Chemscore.Internal.Correction>
   9.000000E+99

> <Gold.Chemscore.Reference.RMSD>
0.0000

> <Gold.Chemscore.Hbond.Weighted>
-0.0000

> <Gold.Chemscore.Metal.Weighted>
-0.0000

> <Gold.Chemscore.Lipo.Weighted>
-22.5881

> <Gold.Chemscore.Internal_Hbond.Weighted>
0.0000

> <Gold.Chemscore.DEClash.Weighted>
3.9299

> <Gold.Chemscore.DEInternal.Weighted>
2.5924

> <Gold.Chemscore.Rot.Weighted>
3.5019

> <Gold.Chemscore.Internal.Correction.Weighted>
   9.000000E+99

> <Gold.Reference.RMSD>
5.2351

#       Name:                00000001
#       Creating user name   hitesit
#       Creation time:       Mon Feb 27 15:35:24 2023


#       File generated by GOLD software.
#

@<TRIPOS>MOLECULE
00000001|prep_VS_1|mol2|1|dock5
    49    52     1
SMALL
USER_CHARGES


@<TRIPOS>ATOM
      1 C1         -41.3402 -40.7791  -0.7121 C.2            1 noname            -0.0806
      2 C2         -40.4762 -39.9867  -1.3439 C.2            1 noname            -0.0779
      3 N1         -39.5954 -39.2104  -0.6281 N.am           1 noname             0.0248
      4 C3         -39.4172 -39.4233   0.8237 C.3            1 noname             0.1485
      5 C4         -40.6109 -40.1254   1.4808 C.2            1 noname             0.0779
      6 N2         -41.4399 -40.8334   0.6504 N.am           1 noname             0.0223
      7 C5         -42.5175 -41.6449   1.2402 C.3            1 noname             0.0144
      8 O1         -40.7672 -40.0532   2.6844 O.2            1 noname            -0.2820
      9 C6         -38.1957 -40.3310   1.0449 C.ar           1 noname             0.0167
     10 C7         -37.3401 -40.6696   0.0076 C.ar           1 noname            -0.0133
     11 C8         -36.2598 -41.4891   0.2866 C.ar           1 noname            -0.0379
     12 C9         -36.0632 -41.9423   1.5738 C.ar           1 noname            -0.0260
     13 C10        -36.9634 -41.5541   2.5415 C.ar           1 noname             0.0003
     14 N3         -38.0164 -40.7622   2.2984 N.ar           1 noname            -0.2412
     15 C11        -43.4588 -40.8270   2.1166 C.3            1 noname            -0.0142
     16 C12        -44.7878 -41.5180   2.3095 C.ar           1 noname            -0.0544
     17 C13        -44.9029 -42.6113   3.1551 C.ar           1 noname            -0.0569
     18 C14        -46.1211 -43.2469   3.3299 C.ar           1 noname            -0.0605
     19 C15        -47.2397 -42.7972   2.6604 C.ar           1 noname            -0.0616
     20 C16        -47.1387 -41.7118   1.8157 C.ar           1 noname            -0.0605
     21 C17        -45.9202 -41.0767   1.6414 C.ar           1 noname            -0.0569
     22 C18        -38.7668 -38.2064  -1.0872 C.2            1 noname             0.0696
     23 O2         -38.6491 -37.8556  -2.2532 O.2            1 noname            -0.2901
     24 C19        -39.1103 -37.9659   1.2182 C.3            1 noname            -0.0112
     25 C20        -38.0864 -37.6412   0.1341 C.3            1 noname             0.0244
     26 H1         -37.9073 -36.5620   0.0519 H              1 noname             0.0244
     27 H2         -37.1220 -38.1311   0.3159 H              1 noname             0.0244
     28 H3         -40.4835 -39.9366  -2.4277 H              1 noname            -0.0779
     29 H4         -48.0159 -41.3545   1.2866 H              1 noname            -0.0605
     30 H5         -45.8508 -40.2238   0.9742 H              1 noname            -0.0569
     31 H6         -42.0729 -42.4465   1.8430 H              1 noname             0.0144
     32 H7         -43.1091 -42.1183   0.4476 H              1 noname             0.0144
     33 H8         -38.7115 -37.8644   2.2351 H              1 noname            -0.0112
     34 H9         -40.0026 -37.3344   1.1261 H              1 noname            -0.0112
     35 H10        -37.5132 -40.3014  -0.9982 H              1 noname            -0.0133
     36 H11        -35.5719 -41.7731  -0.5030 H              1 noname            -0.0379
     37 H12        -42.0158 -41.3814  -1.3093 H              1 noname            -0.0806
     38 H13        -43.6261 -39.8473   1.6523 H              1 noname            -0.0142
     39 H14        -42.9975 -40.6577   3.0969 H              1 noname            -0.0142
     40 H15        -35.2242 -42.5857   1.8173 H              1 noname            -0.0260
     41 H16        -36.8115 -41.9087   3.5556 H              1 noname             0.0003
     42 H17        -46.1954 -44.1007   3.9953 H              1 noname            -0.0605
     43 H18        -48.1941 -43.2948   2.7975 H              1 noname            -0.0616
     44 H19        -44.0284 -42.9729   3.6859 H              1 noname            -0.0569
     45 ****       -40.1179 -39.5369   3.2428 LP             1 noname             0.0000
     46 ****       -41.5450 -40.5102   3.1159 LP             1 noname             0.0000
     47 ****       -38.6471 -40.5021   3.0295 LP             1 noname             0.0000
     48 ****       -39.1812 -38.3094  -2.9680 LP             1 noname             0.0000
     49 ****       -38.0207 -37.1151  -2.4916 LP             1 noname             0.0000
@<TRIPOS>BOND
    1    1    2 2     
    2    6    1 1     
    3    2    3 1     
    4    3    4 1     
    5    3   22 am    
    6    4    5 1     
    7    4    9 1     
    8    4   24 1     
    9    5    6 am    
   10    5    8 2     
   11    6    7 1     
   12    7   15 1     
   13    9   10 ar    
   14   14    9 ar    
   15   10   11 ar    
   16   11   12 ar    
   17   12   13 ar    
   18   13   14 ar    
   19   15   16 1     
   20   16   17 ar    
   21   21   16 ar    
   22   17   18 ar    
   23   18   19 ar    
   24   19   20 ar    
   25   20   21 ar    
   26   22   23 2     
   27   25   22 1     
   28   24   25 1     
   29   25   26 1     
   30   25   27 1     
   31    2   28 1     
   32   20   29 1     
   33   21   30 1     
   34    7   31 1     
   35    7   32 1     
   36   24   33 1     
   37   24   34 1     
   38   10   35 1     
   39   11   36 1     
   40    1   37 1     
   41   15   38 1     
   42   15   39 1     
   43   12   40 1     
   44   13   41 1     
   45   18   42 1     
   46   19   43 1     
   47   17   44 1     
   48    8   45 1     
   49    8   46 1     
   50   14   47 1     
   51   23   48 1     
   52   23   49 1     
@<TRIPOS>SUBSTRUCTURE
      1 noname         1
@<TRIPOS>SET
LONE_PAIRS      STATIC     ATOMS    <user>   **** ""
5 45 46 47 48 49
ATOM$BLUE        STATIC     ATOMS    COLORGROUP SYSTEM
5 45 46 47 48 49
@<TRIPOS>COMMENT
> <Gold.Version>
2022.3.0

> <Gold.Id.Protein>
unknown|6c5f_clean|pdb

> <Gold.Protein.ActiveResidues>
 LEU49   SER50   GLN58   ILE95   LEU96   ILE97   ARG98   PRO1    PHE2    LEU3   
 LEU30   LYS32   PRO33   ASP35   ARG36   VAL37   ASN38   ILE61   SER62   SER63  
 ILE64   GLY65   VAL66   VAL67   PHE100  LEU102  GLU103  SER104  TRP105  GLN106 
 ILE107  GLY108  LYS109  ILE110  THR112  VAL113  PHE2    ILE61   SER62   SER63  
 ILE64   PHE2    PRO1    PHE2    PRO1    PHE2    LEU3    LEU96   ILE97   ARG98  
 PHE2    ARG36   VAL37   ASN38   PRO1    PRO1    VAL113  PHE2    LEU30   LYS32  
 PRO33   GLN106  ILE107  GLY108  LYS109  ILE110  ILE64   GLY65   VAL66   VAL67  
 GLN58   PRO1    PRO101  LEU102  GLU103  SER104  TRP105  PHE2    LEU49   SER50  
 PHE2   

> <Gold.Score>
     Fitness  S(hb_ext) S(vdw_ext)  S(hb_int)    S(int)      intcor
     47.93       0.00      40.81       0.00      -8.19       3.78

> <Gold.Goldscore.Fitness>
47.9300

> <Gold.Goldscore.Internal.Vdw>
-2.3642

> <Gold.Goldscore.Internal.Torsion>
-2.0430

> <Gold.Goldscore.External.Vdw>
40.8126

> <Gold.Goldscore.Internal.HBond>
0.0000

> <Gold.Goldscore.External.HBond>
0.0000

> <Gold.Goldscore.Internal.Correction>
3.7800

> <Gold.Goldscore.Reference.RMSD>
5.2191

> <Gold.Goldscore.Internal.Vdw.Weighted>
-2.3642

> <Gold.Goldscore.Internal.Torsion.Weighted>
-2.0430

> <Gold.Goldscore.External.Vdw.Weighted>
56.1173

> <Gold.Goldscore.Internal.HBond.Weighted>
0.0000

> <Gold.Goldscore.External.HBond.Weighted>
0.0000

> <Gold.Goldscore.Internal.Correction.Weighted>
3.7800

> <Gold.Rescore>
     Score         DG    S(hbond)    S(metal)    S(lipo)     H(rot)  DE(clash)    DE(int)     intcor
     14.73     -26.62       0.00        0.00     210.59       1.37       8.99       2.89       ----

> <Gold.Chemscore.Fitness>
14.7321

> <Gold.Chemscore.DG>
-26.6170

> <Gold.Chemscore.ZeroCoef>
-5.4800

> <Gold.Chemscore.Hbond>
0.0000

> <Gold.Chemscore.Metal>
0.0000

> <Gold.Chemscore.Lipo>
210.5888

> <Gold.Chemscore.Internal_Hbond>
0.0000

> <Gold.Chemscore.DEClash>
8.9925

> <Gold.Chemscore.DEInternal>
2.8923

> <Gold.Chemscore.Rot>
1.3679

> <Gold.Chemscore.Internal.Correction>
   9.000000E+99

> <Gold.Chemscore.Reference.RMSD>
0.0000

> <Gold.Chemscore.Hbond.Weighted>
-0.0000

> <Gold.Chemscore.Metal.Weighted>
-0.0000

> <Gold.Chemscore.Lipo.Weighted>
-24.6389

> <Gold.Chemscore.Internal_Hbond.Weighted>
0.0000

> <Gold.Chemscore.DEClash.Weighted>
8.9925

> <Gold.Chemscore.DEInternal.Weighted>
2.8923

> <Gold.Chemscore.Rot.Weighted>
3.5019

> <Gold.Chemscore.Internal.Correction.Weighted>
   9.000000E+99

> <Gold.Reference.RMSD>
5.2191

#       Name:                00000001
#       Creating user name   hitesit
#       Creation time:       Mon Feb 27 15:35:31 2023


#       File generated by GOLD software.
#

@<TRIPOS>MOLECULE
00000001|prep_VS_1|mol2|1|dock8
    49    52     1
SMALL
USER_CHARGES


@<TRIPOS>ATOM
      1 C1         -41.3977 -40.7151  -0.5787 C.2            1 noname            -0.0806
      2 C2         -40.5305 -39.9798  -1.2721 C.2            1 noname            -0.0779
      3 N1         -39.6160 -39.1867  -0.6198 N.am           1 noname             0.0248
      4 C3         -39.4094 -39.3237   0.8374 C.3            1 noname             0.1485
      5 C4         -40.6034 -39.9595   1.5582 C.2            1 noname             0.0779
      6 N2         -41.4673 -40.6919   0.7866 N.am           1 noname             0.0223
      7 C5         -42.5494 -41.4435   1.4438 C.3            1 noname             0.0144
      8 O1         -40.7303 -39.8175   2.7590 O.2            1 noname            -0.2820
      9 C6         -38.2043 -40.2471   1.0822 C.ar           1 noname             0.0167
     10 C7         -37.3752 -40.6553   0.0484 C.ar           1 noname            -0.0133
     11 C8         -36.3082 -41.4846   0.3489 C.ar           1 noname            -0.0379
     12 C9         -36.0983 -41.8788   1.6533 C.ar           1 noname            -0.0260
     13 C10        -36.9721 -41.4234   2.6159 C.ar           1 noname             0.0003
     14 N3         -38.0117 -40.6206   2.3521 N.ar           1 noname            -0.2412
     15 C11        -43.4631 -40.5531   2.2778 C.3            1 noname            -0.0142
     16 C12        -44.8055 -41.2002   2.5229 C.ar           1 noname            -0.0544
     17 C13        -45.8124 -41.1275   1.5719 C.ar           1 noname            -0.0569
     18 C14        -47.0446 -41.7184   1.7977 C.ar           1 noname            -0.0605
     19 C15        -47.2855 -42.3890   2.9784 C.ar           1 noname            -0.0616
     20 C16        -46.2933 -42.4676   3.9329 C.ar           1 noname            -0.0605
     21 C17        -45.0613 -41.8765   3.7064 C.ar           1 noname            -0.0569
     22 C18        -38.7753 -38.2298  -1.1518 C.2            1 noname             0.0696
     23 O2         -38.6765 -37.9467  -2.3377 O.2            1 noname            -0.2901
     24 C19        -39.0602 -37.8546   1.1436 C.3            1 noname            -0.0112
     25 C20        -38.0543 -37.6149   0.0213 C.3            1 noname             0.0244
     26 H1         -37.8525 -36.5465  -0.1246 H              1 noname             0.0244
     27 H2         -37.0974 -38.1172   0.2090 H              1 noname             0.0244
     28 H3         -40.5616 -39.9892  -2.3566 H              1 noname            -0.0779
     29 H4         -46.4782 -42.9939   4.8635 H              1 noname            -0.0605
     30 H5         -44.2873 -41.9434   4.4637 H              1 noname            -0.0569
     31 H6         -42.1093 -42.2117   2.0916 H              1 noname             0.0144
     32 H7         -43.1611 -41.9571   0.6925 H              1 noname             0.0144
     33 H8         -38.6359 -37.7070   2.1445 H              1 noname            -0.0112
     34 H9         -39.9397 -37.2079   1.0360 H              1 noname            -0.0112
     35 H10        -37.5584 -40.3328  -0.9713 H              1 noname            -0.0133
     36 H11        -35.6412 -41.8223  -0.4374 H              1 noname            -0.0379
     37 H12        -42.1005 -41.3329  -1.1267 H              1 noname            -0.0806
     38 H13        -43.6126 -39.5992   1.7571 H              1 noname            -0.0142
     39 H14        -42.9883 -40.3365   3.2421 H              1 noname            -0.0142
     40 H15        -35.2693 -42.5285   1.9138 H              1 noname            -0.0260
     41 H16        -36.8096 -41.7315   3.6435 H              1 noname             0.0003
     42 H17        -47.8222 -41.6535   1.0438 H              1 noname            -0.0605
     43 H18        -48.2506 -42.8522   3.1554 H              1 noname            -0.0616
     44 H19        -45.6326 -40.6017   0.6400 H              1 noname            -0.0569
     45 ****       -40.0567 -39.2871   3.2737 LP             1 noname             0.0000
     46 ****       -41.5083 -40.2312   3.2320 LP             1 noname             0.0000
     47 ****       -38.6232 -40.3108   3.0802 LP             1 noname             0.0000
     48 ****       -39.2352 -38.4261  -3.0145 LP             1 noname             0.0000
     49 ****       -38.0370 -37.2358  -2.6304 LP             1 noname             0.0000
@<TRIPOS>BOND
    1    1    2 2     
    2    6    1 1     
    3    2    3 1     
    4    3    4 1     
    5    3   22 am    
    6    4    5 1     
    7    4    9 1     
    8    4   24 1     
    9    5    6 am    
   10    5    8 2     
   11    6    7 1     
   12    7   15 1     
   13    9   10 ar    
   14   14    9 ar    
   15   10   11 ar    
   16   11   12 ar    
   17   12   13 ar    
   18   13   14 ar    
   19   15   16 1     
   20   16   17 ar    
   21   21   16 ar    
   22   17   18 ar    
   23   18   19 ar    
   24   19   20 ar    
   25   20   21 ar    
   26   22   23 2     
   27   25   22 1     
   28   24   25 1     
   29   25   26 1     
   30   25   27 1     
   31    2   28 1     
   32   20   29 1     
   33   21   30 1     
   34    7   31 1     
   35    7   32 1     
   36   24   33 1     
   37   24   34 1     
   38   10   35 1     
   39   11   36 1     
   40    1   37 1     
   41   15   38 1     
   42   15   39 1     
   43   12   40 1     
   44   13   41 1     
   45   18   42 1     
   46   19   43 1     
   47   17   44 1     
   48    8   45 1     
   49    8   46 1     
   50   14   47 1     
   51   23   48 1     
   52   23   49 1     
@<TRIPOS>SUBSTRUCTURE
      1 noname         1
@<TRIPOS>SET
LONE_PAIRS      STATIC     ATOMS    <user>   **** ""
5 45 46 47 48 49
ATOM$BLUE        STATIC     ATOMS    COLORGROUP SYSTEM
5 45 46 47 48 49
@<TRIPOS>COMMENT
> <Gold.Version>
2022.3.0

> <Gold.Id.Protein>
unknown|6c5f_clean|pdb

> <Gold.Protein.ActiveResidues>
 LEU49   SER50   GLN58   ILE95   LEU96   ILE97   ARG98   PRO1    PHE2    LEU3   
 LEU30   LYS32   PRO33   ASP35   ARG36   VAL37   ASN38   ILE61   SER62   SER63  
 ILE64   GLY65   VAL66   VAL67   PHE100  LEU102  GLU103  SER104  TRP105  GLN106 
 ILE107  GLY108  LYS109  ILE110  THR112  VAL113  PHE2    ILE61   SER62   SER63  
 ILE64   PHE2    PRO1    PHE2    PRO1    PHE2    LEU3    LEU96   ILE97   ARG98  
 PHE2    ARG36   VAL37   ASN38   PRO1    PRO1    VAL113  PHE2    LEU30   LYS32  
 PRO33   GLN106  ILE107  GLY108  LYS109  ILE110  ILE64   GLY65   VAL66   VAL67  
 GLN58   PRO1    PRO101  LEU102  GLU103  SER104  TRP105  PHE2    LEU49   SER50  
 PHE2   

> <Gold.Score>
     Fitness  S(hb_ext) S(vdw_ext)  S(hb_int)    S(int)      intcor
     47.87       0.00      40.73       0.00      -8.13       3.78

> <Gold.Goldscore.Fitness>
47.8684

> <Gold.Goldscore.Internal.Vdw>
-2.2747

> <Gold.Goldscore.Internal.Torsion>
-2.0739

> <Gold.Goldscore.External.Vdw>
40.7250

> <Gold.Goldscore.Internal.HBond>
0.0000

> <Gold.Goldscore.External.HBond>
0.0000

> <Gold.Goldscore.Internal.Correction>
3.7800

> <Gold.Goldscore.Reference.RMSD>
5.2153

> <Gold.Goldscore.Internal.Vdw.Weighted>
-2.2747

> <Gold.Goldscore.Internal.Torsion.Weighted>
-2.0739

> <Gold.Goldscore.External.Vdw.Weighted>
55.9969

> <Gold.Goldscore.Internal.HBond.Weighted>
0.0000

> <Gold.Goldscore.External.HBond.Weighted>
0.0000

> <Gold.Goldscore.Internal.Correction.Weighted>
3.7800

> <Gold.Rescore>
     Score         DG    S(hbond)    S(metal)    S(lipo)     H(rot)  DE(clash)    DE(int)     intcor
     16.52     -25.41       0.00        0.00     200.31       1.37       5.00       3.89       ----

> <Gold.Chemscore.Fitness>
16.5154

> <Gold.Chemscore.DG>
-25.4138

> <Gold.Chemscore.ZeroCoef>
-5.4800

> <Gold.Chemscore.Hbond>
0.0000

> <Gold.Chemscore.Metal>
0.0000

> <Gold.Chemscore.Lipo>
200.3056

> <Gold.Chemscore.Internal_Hbond>
0.0000

> <Gold.Chemscore.DEClash>
5.0049

> <Gold.Chemscore.DEInternal>
3.8935

> <Gold.Chemscore.Rot>
1.3679

> <Gold.Chemscore.Internal.Correction>
   9.000000E+99

> <Gold.Chemscore.Reference.RMSD>
0.0000

> <Gold.Chemscore.Hbond.Weighted>
-0.0000

> <Gold.Chemscore.Metal.Weighted>
-0.0000

> <Gold.Chemscore.Lipo.Weighted>
-23.4358

> <Gold.Chemscore.Internal_Hbond.Weighted>
0.0000

> <Gold.Chemscore.DEClash.Weighted>
5.0049

> <Gold.Chemscore.DEInternal.Weighted>
3.8935

> <Gold.Chemscore.Rot.Weighted>
3.5019

> <Gold.Chemscore.Internal.Correction.Weighted>
   9.000000E+99

> <Gold.Reference.RMSD>
5.2153

#       Name:                00000001
#       Creating user name   hitesit
#       Creation time:       Mon Feb 27 15:35:35 2023


#       File generated by GOLD software.
#

@<TRIPOS>MOLECULE
00000001|prep_VS_1|mol2|1|dock10
    49    52     1
SMALL
USER_CHARGES


@<TRIPOS>ATOM
      1 C1         -41.3617 -40.7176  -0.7027 C.2            1 noname            -0.0806
      2 C2         -40.4857 -39.9340  -1.3289 C.2            1 noname            -0.0779
      3 N1         -39.5797 -39.1920  -0.6083 N.am           1 noname             0.0248
      4 C3         -39.3917 -39.4361   0.8373 C.3            1 noname             0.1485
      5 C4         -40.5948 -40.1223   1.4941 C.2            1 noname             0.0779
      6 N2         -41.4487 -40.7951   0.6596 N.am           1 noname             0.0223
      7 C5         -42.5391 -41.5921   1.2458 C.3            1 noname             0.0144
      8 O1         -40.7370 -40.0690   2.7004 O.2            1 noname            -0.2820
      9 C6         -38.1897 -40.3761   1.0287 C.ar           1 noname             0.0167
     10 C7         -37.3318 -40.6863  -0.0155 C.ar           1 noname            -0.0133
     11 C8         -36.2698 -41.5379   0.2363 C.ar           1 noname            -0.0379
     12 C9         -36.0930 -42.0498   1.5042 C.ar           1 noname            -0.0260
     13 C10        -36.9940 -41.6861   2.4807 C.ar           1 noname             0.0003
     14 N3         -38.0295 -40.8642   2.2638 N.ar           1 noname            -0.2412
     15 C11        -43.4685 -40.7630   2.1243 C.3            1 noname            -0.0142
     16 C12        -44.8280 -41.4054   2.2654 C.ar           1 noname            -0.0544
     17 C13        -45.9142 -40.9330   1.5440 C.ar           1 noname            -0.0569
     18 C14        -47.1618 -41.5203   1.6753 C.ar           1 noname            -0.0605
     19 C15        -47.3387 -42.5873   2.5310 C.ar           1 noname            -0.0616
     20 C16        -46.2671 -43.0659   3.2551 C.ar           1 noname            -0.0605
     21 C17        -45.0199 -42.4782   3.1232 C.ar           1 noname            -0.0569
     22 C18        -38.7323 -38.1992  -1.0576 C.2            1 noname             0.0696
     23 O2         -38.6184 -37.8295  -2.2181 O.2            1 noname            -0.2901
     24 C19        -39.0465 -37.9939   1.2554 C.3            1 noname            -0.0112
     25 C20        -38.0264 -37.6730   0.1667 C.3            1 noname             0.0244
     26 H1         -37.8228 -36.5969   0.1025 H              1 noname             0.0244
     27 H2         -37.0720 -38.1886   0.3291 H              1 noname             0.0244
     28 H3         -40.5030 -39.8635  -2.4114 H              1 noname            -0.0779
     29 H4         -46.4015 -43.9050   3.9297 H              1 noname            -0.0605
     30 H5         -44.1831 -42.8617   3.6976 H              1 noname            -0.0569
     31 H6         -42.1071 -42.4024   1.8462 H              1 noname             0.0144
     32 H7         -43.1371 -42.0537   0.4511 H              1 noname             0.0144
     33 H8         -38.6351 -37.9208   2.2697 H              1 noname            -0.0112
     34 H9         -39.9246 -37.3402   1.1845 H              1 noname            -0.0112
     35 H10        -37.4891 -40.2719  -1.0058 H              1 noname            -0.0133
     36 H11        -35.5806 -41.8010  -0.5594 H              1 noname            -0.0379
     37 H12        -42.0574 -41.2928  -1.3036 H              1 noname            -0.0806
     38 H13        -43.5857 -39.7642   1.6858 H              1 noname            -0.0142
     39 H14        -43.0249 -40.6408   3.1196 H              1 noname            -0.0142
     40 H15        -35.2686 -42.7193   1.7263 H              1 noname            -0.0260
     41 H16        -36.8577 -42.0869   3.4797 H              1 noname             0.0003
     42 H17        -48.0019 -41.1399   1.1037 H              1 noname            -0.0605
     43 H18        -48.3159 -43.0477   2.6338 H              1 noname            -0.0616
     44 H19        -45.7852 -40.0937   0.8686 H              1 noname            -0.0569
     45 ****       -40.0701 -39.5785   3.2613 LP             1 noname             0.0000
     46 ****       -41.5209 -40.5157   3.1316 LP             1 noname             0.0000
     47 ****       -38.6615 -40.6236   3.0005 LP             1 noname             0.0000
     48 ****       -39.1683 -38.2573  -2.9354 LP             1 noname             0.0000
     49 ****       -37.9752 -37.0996  -2.4494 LP             1 noname             0.0000
@<TRIPOS>BOND
    1    1    2 2     
    2    6    1 1     
    3    2    3 1     
    4    3    4 1     
    5    3   22 am    
    6    4    5 1     
    7    4    9 1     
    8    4   24 1     
    9    5    6 am    
   10    5    8 2     
   11    6    7 1     
   12    7   15 1     
   13    9   10 ar    
   14   14    9 ar    
   15   10   11 ar    
   16   11   12 ar    
   17   12   13 ar    
   18   13   14 ar    
   19   15   16 1     
   20   16   17 ar    
   21   21   16 ar    
   22   17   18 ar    
   23   18   19 ar    
   24   19   20 ar    
   25   20   21 ar    
   26   22   23 2     
   27   25   22 1     
   28   24   25 1     
   29   25   26 1     
   30   25   27 1     
   31    2   28 1     
   32   20   29 1     
   33   21   30 1     
   34    7   31 1     
   35    7   32 1     
   36   24   33 1     
   37   24   34 1     
   38   10   35 1     
   39   11   36 1     
   40    1   37 1     
   41   15   38 1     
   42   15   39 1     
   43   12   40 1     
   44   13   41 1     
   45   18   42 1     
   46   19   43 1     
   47   17   44 1     
   48    8   45 1     
   49    8   46 1     
   50   14   47 1     
   51   23   48 1     
   52   23   49 1     
@<TRIPOS>SUBSTRUCTURE
      1 noname         1
@<TRIPOS>SET
LONE_PAIRS      STATIC     ATOMS    <user>   **** ""
5 45 46 47 48 49
ATOM$BLUE        STATIC     ATOMS    COLORGROUP SYSTEM
5 45 46 47 48 49
@<TRIPOS>COMMENT
> <Gold.Version>
2022.3.0

> <Gold.Id.Protein>
unknown|6c5f_clean|pdb

> <Gold.Protein.ActiveResidues>
 LEU49   SER50   GLN58   ILE95   LEU96   ILE97   ARG98   PRO1    PHE2    LEU3   
 LEU30   LYS32   PRO33   ASP35   ARG36   VAL37   ASN38   ILE61   SER62   SER63  
 ILE64   GLY65   VAL66   VAL67   PHE100  LEU102  GLU103  SER104  TRP105  GLN106 
 ILE107  GLY108  LYS109  ILE110  THR112  VAL113  PHE2    ILE61   SER62   SER63  
 ILE64   PHE2    PRO1    PHE2    PRO1    PHE2    LEU3    LEU96   ILE97   ARG98  
 PHE2    ARG36   VAL37   ASN38   PRO1    PRO1    VAL113  PHE2    LEU30   LYS32  
 PRO33   GLN106  ILE107  GLY108  LYS109  ILE110  ILE64   GLY65   VAL66   VAL67  
 GLN58   PRO1    PRO101  LEU102  GLU103  SER104  TRP105  PHE2    LEU49   SER50  
 PHE2   

> <Gold.Score>
     Fitness  S(hb_ext) S(vdw_ext)  S(hb_int)    S(int)      intcor
     47.61       0.00      40.80       0.00      -8.48       3.78

> <Gold.Goldscore.Fitness>
47.6106

> <Gold.Goldscore.Internal.Vdw>
-2.5072

> <Gold.Goldscore.Internal.Torsion>
-2.1963

> <Gold.Goldscore.External.Vdw>
40.7957

> <Gold.Goldscore.Internal.HBond>
0.0000

> <Gold.Goldscore.External.HBond>
0.0000

> <Gold.Goldscore.Internal.Correction>
3.7800

> <Gold.Goldscore.Reference.RMSD>
5.2414

> <Gold.Goldscore.Internal.Vdw.Weighted>
-2.5072

> <Gold.Goldscore.Internal.Torsion.Weighted>
-2.1963

> <Gold.Goldscore.External.Vdw.Weighted>
56.0941

> <Gold.Goldscore.Internal.HBond.Weighted>
0.0000

> <Gold.Goldscore.External.HBond.Weighted>
0.0000

> <Gold.Goldscore.Internal.Correction.Weighted>
3.7800

> <Gold.Rescore>
     Score         DG    S(hbond)    S(metal)    S(lipo)     H(rot)  DE(clash)    DE(int)     intcor
     15.12     -25.96       0.00        0.00     204.99       1.37       6.87       3.97       ----

> <Gold.Chemscore.Fitness>
15.1191

> <Gold.Chemscore.DG>
-25.9616

> <Gold.Chemscore.ZeroCoef>
-5.4800

> <Gold.Chemscore.Hbond>
0.0000

> <Gold.Chemscore.Metal>
0.0000

> <Gold.Chemscore.Lipo>
204.9876

> <Gold.Chemscore.Internal_Hbond>
0.0000

> <Gold.Chemscore.DEClash>
6.8700

> <Gold.Chemscore.DEInternal>
3.9725

> <Gold.Chemscore.Rot>
1.3679

> <Gold.Chemscore.Internal.Correction>
   9.000000E+99

> <Gold.Chemscore.Reference.RMSD>
0.0000

> <Gold.Chemscore.Hbond.Weighted>
-0.0000

> <Gold.Chemscore.Metal.Weighted>
-0.0000

> <Gold.Chemscore.Lipo.Weighted>
-23.9835

> <Gold.Chemscore.Internal_Hbond.Weighted>
0.0000

> <Gold.Chemscore.DEClash.Weighted>
6.8700

> <Gold.Chemscore.DEInternal.Weighted>
3.9725

> <Gold.Chemscore.Rot.Weighted>
3.5019

> <Gold.Chemscore.Internal.Correction.Weighted>
   9.000000E+99

> <Gold.Reference.RMSD>
5.2414

#       Name:                00000001
#       Creating user name   hitesit
#       Creation time:       Mon Feb 27 15:35:17 2023


#       File generated by GOLD software.
#

@<TRIPOS>MOLECULE
00000001|prep_VS_1|mol2|1|dock2
    49    52     1
SMALL
USER_CHARGES


@<TRIPOS>ATOM
      1 C1         -41.3195 -40.9628  -0.5676 C.2            1 noname            -0.0806
      2 C2         -40.4377 -40.2111  -1.2241 C.2            1 noname            -0.0779
      3 N1         -39.5574 -39.4117  -0.5335 N.am           1 noname             0.0248
      4 C3         -39.4011 -39.5575   0.9290 C.3            1 noname             0.1485
      5 C4         -40.6117 -40.2141   1.6020 C.2            1 noname             0.0779
      6 N2         -41.4380 -40.9513   0.7945 N.am           1 noname             0.0223
      7 C5         -42.5330 -41.7217   1.4070 C.3            1 noname             0.0144
      8 O1         -40.7832 -40.0832   2.7985 O.2            1 noname            -0.2820
      9 C6         -38.1936 -40.4675   1.2098 C.ar           1 noname             0.0167
     10 C7         -37.9288 -40.9585   2.4792 C.ar           1 noname            -0.0133
     11 C8         -36.8240 -41.7747   2.6518 C.ar           1 noname            -0.0379
     12 C9         -36.0244 -42.0763   1.5699 C.ar           1 noname            -0.0260
     13 C10        -36.3643 -41.5449   0.3454 C.ar           1 noname             0.0003
     14 N3         -37.4274 -40.7529   0.1512 N.ar           1 noname            -0.2412
     15 C11        -43.6230 -40.8323   1.9934 C.3            1 noname            -0.0142
     16 C12        -44.9098 -41.5922   2.2119 C.ar           1 noname            -0.0544
     17 C13        -46.0690 -41.2324   1.5408 C.ar           1 noname            -0.0569
     18 C14        -47.2499 -41.9274   1.7432 C.ar           1 noname            -0.0605
     19 C15        -47.2863 -42.9909   2.6203 C.ar           1 noname            -0.0616
     20 C16        -46.1410 -43.3583   3.2948 C.ar           1 noname            -0.0605
     21 C17        -44.9605 -42.6629   3.0920 C.ar           1 noname            -0.0569
     22 C18        -38.7107 -38.4400  -1.0280 C.2            1 noname             0.0696
     23 O2         -38.5733 -38.1463  -2.2075 O.2            1 noname            -0.2901
     24 C19        -39.0821 -38.0866   1.2584 C.3            1 noname            -0.0112
     25 C20        -38.0400 -37.8253   0.1746 C.3            1 noname             0.0244
     26 H1         -37.8470 -36.7533   0.0439 H              1 noname             0.0244
     27 H2         -37.0840 -38.3168   0.3927 H              1 noname             0.0244
     28 H3         -40.4300 -40.2123  -2.3090 H              1 noname            -0.0779
     29 H4         -46.1648 -44.1942   3.9861 H              1 noname            -0.0605
     30 H5         -44.0648 -42.9593   3.6278 H              1 noname            -0.0569
     31 H6         -42.1227 -42.3567   2.2019 H              1 noname             0.0144
     32 H7         -42.9914 -42.3822   0.6614 H              1 noname             0.0144
     33 H8         -38.6958 -37.9415   2.2749 H              1 noname            -0.0112
     34 H9         -39.9655 -37.4502   1.1243 H              1 noname            -0.0112
     35 H10        -38.5717 -40.7089   3.3169 H              1 noname            -0.0133
     36 H11        -36.5889 -42.1747   3.6326 H              1 noname            -0.0379
     37 H12        -41.9942 -41.5851  -1.1450 H              1 noname            -0.0806
     38 H13        -43.8113 -39.9934   1.3120 H              1 noname            -0.0142
     39 H14        -43.2857 -40.4163   2.9502 H              1 noname            -0.0142
     40 H15        -35.1531 -42.7135   1.6799 H              1 noname            -0.0260
     41 H16        -35.7373 -41.7804  -0.5082 H              1 noname             0.0003
     42 H17        -48.1484 -41.6342   1.2104 H              1 noname            -0.0605
     43 H18        -48.2112 -43.5357   2.7787 H              1 noname            -0.0616
     44 H19        -46.0505 -40.3967   0.8491 H              1 noname            -0.0569
     45 ****       -40.1353 -39.5483   3.3409 LP             1 noname             0.0000
     46 ****       -41.5721 -40.5104   3.2402 LP             1 noname             0.0000
     47 ****       -37.6409 -40.3874  -0.7548 LP             1 noname             0.0000
     48 ****       -39.1013 -38.6274  -2.9074 LP             1 noname             0.0000
     49 ****       -37.9331 -37.4250  -2.4719 LP             1 noname             0.0000
@<TRIPOS>BOND
    1    1    2 2     
    2    6    1 1     
    3    2    3 1     
    4    3    4 1     
    5    3   22 am    
    6    4    5 1     
    7    4    9 1     
    8    4   24 1     
    9    5    6 am    
   10    5    8 2     
   11    6    7 1     
   12    7   15 1     
   13    9   10 ar    
   14   14    9 ar    
   15   10   11 ar    
   16   11   12 ar    
   17   12   13 ar    
   18   13   14 ar    
   19   15   16 1     
   20   16   17 ar    
   21   21   16 ar    
   22   17   18 ar    
   23   18   19 ar    
   24   19   20 ar    
   25   20   21 ar    
   26   22   23 2     
   27   25   22 1     
   28   24   25 1     
   29   25   26 1     
   30   25   27 1     
   31    2   28 1     
   32   20   29 1     
   33   21   30 1     
   34    7   31 1     
   35    7   32 1     
   36   24   33 1     
   37   24   34 1     
   38   10   35 1     
   39   11   36 1     
   40    1   37 1     
   41   15   38 1     
   42   15   39 1     
   43   12   40 1     
   44   13   41 1     
   45   18   42 1     
   46   19   43 1     
   47   17   44 1     
   48    8   45 1     
   49    8   46 1     
   50   14   47 1     
   51   23   48 1     
   52   23   49 1     
@<TRIPOS>SUBSTRUCTURE
      1 noname         1
@<TRIPOS>SET
LONE_PAIRS      STATIC     ATOMS    <user>   **** ""
5 45 46 47 48 49
ATOM$BLUE        STATIC     ATOMS    COLORGROUP SYSTEM
5 45 46 47 48 49
@<TRIPOS>COMMENT
> <Gold.Version>
2022.3.0

> <Gold.Id.Protein>
unknown|6c5f_clean|pdb

> <Gold.Protein.ActiveResidues>
 LEU49   SER50   GLN58   ILE95   LEU96   ILE97   ARG98   PRO1    PHE2    LEU3   
 LEU30   LYS32   PRO33   ASP35   ARG36   VAL37   ASN38   ILE61   SER62   SER63  
 ILE64   GLY65   VAL66   VAL67   PHE100  LEU102  GLU103  SER104  TRP105  GLN106 
 ILE107  GLY108  LYS109  ILE110  THR112  VAL113  PHE2    ILE61   SER62   SER63  
 ILE64   PHE2    PRO1    PHE2    PRO1    PHE2    LEU3    LEU96   ILE97   ARG98  
 PHE2    ARG36   VAL37   ASN38   PRO1    PRO1    VAL113  PHE2    LEU30   LYS32  
 PRO33   GLN106  ILE107  GLY108  LYS109  ILE110  ILE64   GLY65   VAL66   VAL67  
 GLN58   PRO1    PRO101  LEU102  GLU103  SER104  TRP105  PHE2    LEU49   SER50  
 PHE2   

> <Gold.Score>
     Fitness  S(hb_ext) S(vdw_ext)  S(hb_int)    S(int)      intcor
     47.56       0.00      39.34       0.00      -6.54       3.78

> <Gold.Goldscore.Fitness>
47.5560

> <Gold.Goldscore.Internal.Vdw>
-0.8658

> <Gold.Goldscore.Internal.Torsion>
-1.8952

> <Gold.Goldscore.External.Vdw>
39.3433

> <Gold.Goldscore.Internal.HBond>
0.0000

> <Gold.Goldscore.External.HBond>
0.0000

> <Gold.Goldscore.Internal.Correction>
3.7800

> <Gold.Goldscore.Reference.RMSD>
5.2877

> <Gold.Goldscore.Internal.Vdw.Weighted>
-0.8658

> <Gold.Goldscore.Internal.Torsion.Weighted>
-1.8952

> <Gold.Goldscore.External.Vdw.Weighted>
54.0970

> <Gold.Goldscore.Internal.HBond.Weighted>
0.0000

> <Gold.Goldscore.External.HBond.Weighted>
0.0000

> <Gold.Goldscore.Internal.Correction.Weighted>
3.7800

> <Gold.Rescore>
     Score         DG    S(hbond)    S(metal)    S(lipo)     H(rot)  DE(clash)    DE(int)     intcor
     16.82     -24.32       0.00        0.00     190.97       1.37       3.34       4.16       ----

> <Gold.Chemscore.Fitness>
16.8206

> <Gold.Chemscore.DG>
-24.3212

> <Gold.Chemscore.ZeroCoef>
-5.4800

> <Gold.Chemscore.Hbond>
0.0000

> <Gold.Chemscore.Metal>
0.0000

> <Gold.Chemscore.Lipo>
190.9673

> <Gold.Chemscore.Internal_Hbond>
0.0000

> <Gold.Chemscore.DEClash>
3.3376

> <Gold.Chemscore.DEInternal>
4.1631

> <Gold.Chemscore.Rot>
1.3679

> <Gold.Chemscore.Internal.Correction>
   9.000000E+99

> <Gold.Chemscore.Reference.RMSD>
0.0000

> <Gold.Chemscore.Hbond.Weighted>
-0.0000

> <Gold.Chemscore.Metal.Weighted>
-0.0000

> <Gold.Chemscore.Lipo.Weighted>
-22.3432

> <Gold.Chemscore.Internal_Hbond.Weighted>
0.0000

> <Gold.Chemscore.DEClash.Weighted>
3.3376

> <Gold.Chemscore.DEInternal.Weighted>
4.1631

> <Gold.Chemscore.Rot.Weighted>
3.5019

> <Gold.Chemscore.Internal.Correction.Weighted>
   9.000000E+99

> <Gold.Reference.RMSD>
5.2877

#       Name:                00000001
#       Creating user name   hitesit
#       Creation time:       Mon Feb 27 15:35:33 2023


#       File generated by GOLD software.
#

@<TRIPOS>MOLECULE
00000001|prep_VS_1|mol2|1|dock9
    49    52     1
SMALL
USER_CHARGES


@<TRIPOS>ATOM
      1 C1         -41.4623 -40.7218  -0.5224 C.2            1 noname            -0.0806
      2 C2         -40.5865 -39.9880  -1.2065 C.2            1 noname            -0.0779
      3 N1         -39.6698 -39.2057  -0.5443 N.am           1 noname             0.0248
      4 C3         -39.4714 -39.3539   0.9129 C.3            1 noname             0.1485
      5 C4         -40.6734 -39.9862   1.6235 C.2            1 noname             0.0779
      6 N2         -41.5385 -40.7074   0.8426 N.am           1 noname             0.0223
      7 C5         -42.6291 -41.4558   1.4895 C.3            1 noname             0.0144
      8 O1         -40.8052 -39.8514   2.8246 O.2            1 noname            -0.2820
      9 C6         -38.2739 -40.2873   1.1573 C.ar           1 noname             0.0167
     10 C7         -37.4419 -40.6933   0.1251 C.ar           1 noname            -0.0133
     11 C8         -36.3822 -41.5321   0.4252 C.ar           1 noname            -0.0379
     12 C9         -36.1823 -41.9376   1.7277 C.ar           1 noname            -0.0260
     13 C10        -37.0584 -41.4836   2.6889 C.ar           1 noname             0.0003
     14 N3         -38.0911 -40.6717   2.4254 N.ar           1 noname            -0.2412
     15 C11        -43.7642 -40.5542   1.9601 C.3            1 noname            -0.0142
     16 C12        -44.9843 -41.3501   2.3586 C.ar           1 noname            -0.0544
     17 C13        -46.1074 -41.3818   1.5455 C.ar           1 noname            -0.0569
     18 C14        -47.2275 -42.1095   1.9122 C.ar           1 noname            -0.0605
     19 C15        -47.2386 -42.8141   3.0976 C.ar           1 noname            -0.0616
     20 C16        -46.1287 -42.7901   3.9158 C.ar           1 noname            -0.0605
     21 C17        -45.0090 -42.0623   3.5485 C.ar           1 noname            -0.0569
     22 C18        -38.8199 -38.2512  -1.0657 C.2            1 noname             0.0696
     23 O2         -38.7131 -37.9607  -2.2492 O.2            1 noname            -0.2901
     24 C19        -39.1135 -37.8894   1.2307 C.3            1 noname            -0.0112
     25 C20        -38.1004 -37.6492   0.1150 C.3            1 noname             0.0244
     26 H1         -37.8905 -36.5813  -0.0227 H              1 noname             0.0244
     27 H2         -37.1480 -38.1594   0.3041 H              1 noname             0.0244
     28 H3         -40.6123 -39.9899  -2.2912 H              1 noname            -0.0779
     29 H4         -46.1328 -43.3427   4.8495 H              1 noname            -0.0605
     30 H5         -44.1410 -42.0491   4.1993 H              1 noname            -0.0569
     31 H6         -42.2258 -42.0031   2.3505 H              1 noname             0.0144
     32 H7         -43.0425 -42.1953   0.7934 H              1 noname             0.0144
     33 H8         -38.6932 -37.7515   2.2346 H              1 noname            -0.0112
     34 H9         -39.9880 -37.2358   1.1231 H              1 noname            -0.0112
     35 H10        -37.6171 -40.3618  -0.8931 H              1 noname            -0.0133
     36 H11        -35.7130 -41.8684  -0.3599 H              1 noname            -0.0379
     37 H12        -42.1666 -41.3311  -1.0780 H              1 noname            -0.0806
     38 H13        -44.0339 -39.8608   1.1539 H              1 noname            -0.0142
     39 H14        -43.4307 -39.9567   2.8169 H              1 noname            -0.0142
     40 H15        -35.3592 -42.5949   1.9879 H              1 noname            -0.0260
     41 H16        -36.9038 -41.8006   3.7150 H              1 noname             0.0003
     42 H17        -48.0984 -42.1250   1.2652 H              1 noname            -0.0605
     43 H18        -48.1158 -43.3844   3.3848 H              1 noname            -0.0616
     44 H19        -46.1086 -40.8302   0.6112 H              1 noname            -0.0569
     45 ****       -40.1306 -39.3292   3.3462 LP             1 noname             0.0000
     46 ****       -41.5884 -40.2628   3.2909 LP             1 noname             0.0000
     47 ****       -38.7046 -40.3634   3.1524 LP             1 noname             0.0000
     48 ****       -39.2718 -38.4317  -2.9320 LP             1 noname             0.0000
     49 ****       -38.0673 -37.2524  -2.5340 LP             1 noname             0.0000
@<TRIPOS>BOND
    1    1    2 2     
    2    6    1 1     
    3    2    3 1     
    4    3    4 1     
    5    3   22 am    
    6    4    5 1     
    7    4    9 1     
    8    4   24 1     
    9    5    6 am    
   10    5    8 2     
   11    6    7 1     
   12    7   15 1     
   13    9   10 ar    
   14   14    9 ar    
   15   10   11 ar    
   16   11   12 ar    
   17   12   13 ar    
   18   13   14 ar    
   19   15   16 1     
   20   16   17 ar    
   21   21   16 ar    
   22   17   18 ar    
   23   18   19 ar    
   24   19   20 ar    
   25   20   21 ar    
   26   22   23 2     
   27   25   22 1     
   28   24   25 1     
   29   25   26 1     
   30   25   27 1     
   31    2   28 1     
   32   20   29 1     
   33   21   30 1     
   34    7   31 1     
   35    7   32 1     
   36   24   33 1     
   37   24   34 1     
   38   10   35 1     
   39   11   36 1     
   40    1   37 1     
   41   15   38 1     
   42   15   39 1     
   43   12   40 1     
   44   13   41 1     
   45   18   42 1     
   46   19   43 1     
   47   17   44 1     
   48    8   45 1     
   49    8   46 1     
   50   14   47 1     
   51   23   48 1     
   52   23   49 1     
@<TRIPOS>SUBSTRUCTURE
      1 noname         1
@<TRIPOS>SET
LONE_PAIRS      STATIC     ATOMS    <user>   **** ""
5 45 46 47 48 49
ATOM$BLUE        STATIC     ATOMS    COLORGROUP SYSTEM
5 45 46 47 48 49
@<TRIPOS>COMMENT
> <Gold.Version>
2022.3.0

> <Gold.Id.Protein>
unknown|6c5f_clean|pdb

> <Gold.Protein.ActiveResidues>
 LEU49   SER50   GLN58   ILE95   LEU96   ILE97   ARG98   PRO1    PHE2    LEU3   
 LEU30   LYS32   PRO33   ASP35   ARG36   VAL37   ASN38   ILE61   SER62   SER63  
 ILE64   GLY65   VAL66   VAL67   PHE100  LEU102  GLU103  SER104  TRP105  GLN106 
 ILE107  GLY108  LYS109  ILE110  THR112  VAL113  PHE2    ILE61   SER62   SER63  
 ILE64   PHE2    PRO1    PHE2    PRO1    PHE2    LEU3    LEU96   ILE97   ARG98  
 PHE2    ARG36   VAL37   ASN38   PRO1    PRO1    VAL113  PHE2    LEU30   LYS32  
 PRO33   GLN106  ILE107  GLY108  LYS109  ILE110  ILE64   GLY65   VAL66   VAL67  
 GLN58   PRO1    PRO101  LEU102  GLU103  SER104  TRP105  PHE2    LEU49   SER50  
 PHE2   

> <Gold.Score>
     Fitness  S(hb_ext) S(vdw_ext)  S(hb_int)    S(int)      intcor
     47.40       0.00      39.17       0.00      -6.45       3.78

> <Gold.Goldscore.Fitness>
47.4025

> <Gold.Goldscore.Internal.Vdw>
-1.1188

> <Gold.Goldscore.Internal.Torsion>
-1.5541

> <Gold.Goldscore.External.Vdw>
39.1676

> <Gold.Goldscore.Internal.HBond>
0.0000

> <Gold.Goldscore.External.HBond>
0.0000

> <Gold.Goldscore.Internal.Correction>
3.7800

> <Gold.Goldscore.Reference.RMSD>
5.2346

> <Gold.Goldscore.Internal.Vdw.Weighted>
-1.1188

> <Gold.Goldscore.Internal.Torsion.Weighted>
-1.5541

> <Gold.Goldscore.External.Vdw.Weighted>
53.8554

> <Gold.Goldscore.Internal.HBond.Weighted>
0.0000

> <Gold.Goldscore.External.HBond.Weighted>
0.0000

> <Gold.Goldscore.Internal.Correction.Weighted>
3.7800

> <Gold.Rescore>
     Score         DG    S(hbond)    S(metal)    S(lipo)     H(rot)  DE(clash)    DE(int)     intcor
     17.07     -23.33       0.00        0.00     182.47       1.37       3.02       3.24       ----

> <Gold.Chemscore.Fitness>
17.0663

> <Gold.Chemscore.DG>
-23.3276

> <Gold.Chemscore.ZeroCoef>
-5.4800

> <Gold.Chemscore.Hbond>
0.0000

> <Gold.Chemscore.Metal>
0.0000

> <Gold.Chemscore.Lipo>
182.4749

> <Gold.Chemscore.Internal_Hbond>
0.0000

> <Gold.Chemscore.DEClash>
3.0187

> <Gold.Chemscore.DEInternal>
3.2426

> <Gold.Chemscore.Rot>
1.3679

> <Gold.Chemscore.Internal.Correction>
   9.000000E+99

> <Gold.Chemscore.Reference.RMSD>
0.0000

> <Gold.Chemscore.Hbond.Weighted>
-0.0000

> <Gold.Chemscore.Metal.Weighted>
-0.0000

> <Gold.Chemscore.Lipo.Weighted>
-21.3496

> <Gold.Chemscore.Internal_Hbond.Weighted>
0.0000

> <Gold.Chemscore.DEClash.Weighted>
3.0187

> <Gold.Chemscore.DEInternal.Weighted>
3.2426

> <Gold.Chemscore.Rot.Weighted>
3.5019

> <Gold.Chemscore.Internal.Correction.Weighted>
   9.000000E+99

> <Gold.Reference.RMSD>
5.2346

#       Name:                00000001
#       Creating user name   hitesit
#       Creation time:       Mon Feb 27 15:35:21 2023


#       File generated by GOLD software.
#

@<TRIPOS>MOLECULE
00000001|prep_VS_1|mol2|1|dock4
    49    52     1
SMALL
USER_CHARGES


@<TRIPOS>ATOM
      1 C1         -41.4327 -41.0951  -0.3781 C.2            1 noname            -0.0806
      2 C2         -40.5345 -40.4168  -1.0899 C.2            1 noname            -0.0779
      3 N1         -39.6430 -39.5780  -0.4635 N.am           1 noname             0.0248
      4 C3         -39.4958 -39.6036   1.0070 C.3            1 noname             0.1485
      5 C4         -40.7211 -40.1800   1.7253 C.2            1 noname             0.0779
      6 N2         -41.5570 -40.9675   0.9775 N.am           1 noname             0.0223
      7 C5         -42.6685 -41.6645   1.6458 C.3            1 noname             0.0144
      8 O1         -40.8955 -39.9464   2.9057 O.2            1 noname            -0.2820
      9 C6         -38.3063 -40.5080   1.3701 C.ar           1 noname             0.0167
     10 C7         -38.0330 -40.8634   2.6822 C.ar           1 noname            -0.0133
     11 C8         -36.9456 -41.6840   2.9288 C.ar           1 noname            -0.0379
     12 C9         -36.1710 -42.1230   1.8761 C.ar           1 noname            -0.0260
     13 C10        -36.5177 -41.7205   0.6052 C.ar           1 noname             0.0003
     14 N3         -37.5643 -40.9276   0.3392 N.ar           1 noname            -0.2412
     15 C11        -43.7464 -40.7102   2.1464 C.3            1 noname            -0.0142
     16 C12        -45.0560 -41.4217   2.3905 C.ar           1 noname            -0.0544
     17 C13        -46.1261 -41.2551   1.5240 C.ar           1 noname            -0.0569
     18 C14        -47.3282 -41.9054   1.7491 C.ar           1 noname            -0.0605
     19 C15        -47.4754 -42.7299   2.8447 C.ar           1 noname            -0.0616
     20 C16        -46.4196 -42.9032   3.7147 C.ar           1 noname            -0.0605
     21 C17        -45.2178 -42.2528   3.4890 C.ar           1 noname            -0.0569
     22 C18        -38.7767 -38.6663  -1.0325 C.2            1 noname             0.0696
     23 O2         -38.6288 -38.4749  -2.2316 O.2            1 noname            -0.2901
     24 C19        -39.1517 -38.1161   1.2141 C.3            1 noname            -0.0112
     25 C20        -38.1003 -37.9650   0.1184 C.3            1 noname             0.0244
     26 H1         -37.8873 -36.9113  -0.1003 H              1 noname             0.0244
     27 H2         -37.1543 -38.4533   0.3826 H              1 noname             0.0244
     28 H3         -40.5221 -40.5090  -2.1709 H              1 noname            -0.0779
     29 H4         -46.5307 -43.5508   4.5782 H              1 noname            -0.0605
     30 H5         -44.3931 -42.3951   4.1795 H              1 noname            -0.0569
     31 H6         -42.2736 -42.2360   2.4949 H              1 noname             0.0144
     32 H7         -43.1340 -42.3786   0.9561 H              1 noname             0.0144
     33 H8         -38.7673 -37.8933   2.2171 H              1 noname            -0.0112
     34 H9         -40.0229 -37.4777   1.0219 H              1 noname            -0.0112
     35 H10        -38.6560 -40.5070   3.4958 H              1 noname            -0.0133
     36 H11        -36.7044 -41.9799   3.9445 H              1 noname            -0.0379
     37 H12        -42.1160 -41.7516  -0.9054 H              1 noname            -0.0806
     38 H13        -43.9002 -39.9166   1.4048 H              1 noname            -0.0142
     39 H14        -43.4167 -40.2367   3.0789 H              1 noname            -0.0142
     40 H15        -35.3136 -42.7665   2.0439 H              1 noname            -0.0260
     41 H16        -35.9104 -42.0644  -0.2256 H              1 noname             0.0003
     42 H17        -48.1561 -41.7655   1.0619 H              1 noname            -0.0605
     43 H18        -48.4169 -43.2396   3.0211 H              1 noname            -0.0616
     44 H19        -46.0202 -40.6080   0.6595 H              1 noname            -0.0569
     45 ****       -40.2405 -39.3795   3.4052 LP             1 noname             0.0000
     46 ****       -41.6940 -40.3211   3.3769 LP             1 noname             0.0000
     47 ****       -37.7835 -40.6584  -0.5986 LP             1 noname             0.0000
     48 ****       -39.1622 -39.0035  -2.8919 LP             1 noname             0.0000
     49 ****       -37.9744 -37.7897  -2.5516 LP             1 noname             0.0000
@<TRIPOS>BOND
    1    1    2 2     
    2    6    1 1     
    3    2    3 1     
    4    3    4 1     
    5    3   22 am    
    6    4    5 1     
    7    4    9 1     
    8    4   24 1     
    9    5    6 am    
   10    5    8 2     
   11    6    7 1     
   12    7   15 1     
   13    9   10 ar    
   14   14    9 ar    
   15   10   11 ar    
   16   11   12 ar    
   17   12   13 ar    
   18   13   14 ar    
   19   15   16 1     
   20   16   17 ar    
   21   21   16 ar    
   22   17   18 ar    
   23   18   19 ar    
   24   19   20 ar    
   25   20   21 ar    
   26   22   23 2     
   27   25   22 1     
   28   24   25 1     
   29   25   26 1     
   30   25   27 1     
   31    2   28 1     
   32   20   29 1     
   33   21   30 1     
   34    7   31 1     
   35    7   32 1     
   36   24   33 1     
   37   24   34 1     
   38   10   35 1     
   39   11   36 1     
   40    1   37 1     
   41   15   38 1     
   42   15   39 1     
   43   12   40 1     
   44   13   41 1     
   45   18   42 1     
   46   19   43 1     
   47   17   44 1     
   48    8   45 1     
   49    8   46 1     
   50   14   47 1     
   51   23   48 1     
   52   23   49 1     
@<TRIPOS>SUBSTRUCTURE
      1 noname         1
@<TRIPOS>SET
LONE_PAIRS      STATIC     ATOMS    <user>   **** ""
5 45 46 47 48 49
ATOM$BLUE        STATIC     ATOMS    COLORGROUP SYSTEM
5 45 46 47 48 49
@<TRIPOS>COMMENT
> <Gold.Version>
2022.3.0

> <Gold.Id.Protein>
unknown|6c5f_clean|pdb

> <Gold.Protein.ActiveResidues>
 LEU49   SER50   GLN58   ILE95   LEU96   ILE97   ARG98   PRO1    PHE2    LEU3   
 LEU30   LYS32   PRO33   ASP35   ARG36   VAL37   ASN38   ILE61   SER62   SER63  
 ILE64   GLY65   VAL66   VAL67   PHE100  LEU102  GLU103  SER104  TRP105  GLN106 
 ILE107  GLY108  LYS109  ILE110  THR112  VAL113  PHE2    ILE61   SER62   SER63  
 ILE64   PHE2    PRO1    PHE2    PRO1    PHE2    LEU3    LEU96   ILE97   ARG98  
 PHE2    ARG36   VAL37   ASN38   PRO1    PRO1    VAL113  PHE2    LEU30   LYS32  
 PRO33   GLN106  ILE107  GLY108  LYS109  ILE110  ILE64   GLY65   VAL66   VAL67  
 GLN58   PRO1    PRO101  LEU102  GLU103  SER104  TRP105  PHE2    LEU49   SER50  
 PHE2   

> <Gold.Score>
     Fitness  S(hb_ext) S(vdw_ext)  S(hb_int)    S(int)      intcor
     46.96       0.00      38.52       0.00      -6.02       3.78

> <Gold.Goldscore.Fitness>
46.9551

> <Gold.Goldscore.Internal.Vdw>
-0.2654

> <Gold.Goldscore.Internal.Torsion>
-1.9711

> <Gold.Goldscore.External.Vdw>
38.5248

> <Gold.Goldscore.Internal.HBond>
0.0000

> <Gold.Goldscore.External.HBond>
0.0000

> <Gold.Goldscore.Internal.Correction>
3.7800

> <Gold.Goldscore.Reference.RMSD>
5.3095

> <Gold.Goldscore.Internal.Vdw.Weighted>
-0.2654

> <Gold.Goldscore.Internal.Torsion.Weighted>
-1.9711

> <Gold.Goldscore.External.Vdw.Weighted>
52.9716

> <Gold.Goldscore.Internal.HBond.Weighted>
0.0000

> <Gold.Goldscore.External.HBond.Weighted>
0.0000

> <Gold.Goldscore.Internal.Correction.Weighted>
3.7800

> <Gold.Rescore>
     Score         DG    S(hbond)    S(metal)    S(lipo)     H(rot)  DE(clash)    DE(int)     intcor
     17.08     -24.83       0.00        0.00     195.32       1.37       4.72       3.03       ----

> <Gold.Chemscore.Fitness>
17.0760

> <Gold.Chemscore.DG>
-24.8299

> <Gold.Chemscore.ZeroCoef>
-5.4800

> <Gold.Chemscore.Hbond>
0.0000

> <Gold.Chemscore.Metal>
0.0000

> <Gold.Chemscore.Lipo>
195.3153

> <Gold.Chemscore.Internal_Hbond>
0.0000

> <Gold.Chemscore.DEClash>
4.7238

> <Gold.Chemscore.DEInternal>
3.0301

> <Gold.Chemscore.Rot>
1.3679

> <Gold.Chemscore.Internal.Correction>
   9.000000E+99

> <Gold.Chemscore.Reference.RMSD>
0.0000

> <Gold.Chemscore.Hbond.Weighted>
-0.0000

> <Gold.Chemscore.Metal.Weighted>
-0.0000

> <Gold.Chemscore.Lipo.Weighted>
-22.8519

> <Gold.Chemscore.Internal_Hbond.Weighted>
0.0000

> <Gold.Chemscore.DEClash.Weighted>
4.7238

> <Gold.Chemscore.DEInternal.Weighted>
3.0301

> <Gold.Chemscore.Rot.Weighted>
3.5019

> <Gold.Chemscore.Internal.Correction.Weighted>
   9.000000E+99

> <Gold.Reference.RMSD>
5.3095

