#       Name:                00000001
#       Creating user name   hitesit
#       Creation time:       Thu Mar  2 16:48:46 2023


#       File generated by GOLD software.
#

@<TRIPOS>MOLECULE
00000001|prep_VS_1|mol2|1|dock9
    49    52     1
SMALL
USER_CHARGES


@<TRIPOS>ATOM
      1 C1         -39.1115 -40.9009   4.2971 C.2            1 noname            -0.0806
      2 C2         -37.7934 -40.9640   4.3139 C.2            1 noname            -0.0779
      3 N1         -37.1384 -41.4971   3.2105 N.am           1 noname             0.0248
      4 C3         -37.8180 -41.4288   1.9235 C.3            1 noname             0.1485
      5 C4         -39.2661 -41.8979   2.0901 C.2            1 noname             0.0779
      6 N2         -39.8461 -41.4949   3.2571 N.am           1 noname             0.0223
      7 C5         -41.2952 -41.6752   3.4451 C.3            1 noname             0.0144
      8 O1         -39.8375 -42.6072   1.2837 O.2            1 noname            -0.2820
      9 C6         -37.9646 -39.9685   1.4454 C.ar           1 noname             0.0167
     10 C7         -38.8164 -39.6219   0.4077 C.ar           1 noname            -0.0133
     11 C8         -38.8958 -38.2900   0.0384 C.ar           1 noname            -0.0379
     12 C9         -38.1354 -37.3521   0.7042 C.ar           1 noname            -0.0260
     13 C10        -37.3176 -37.7872   1.7239 C.ar           1 noname             0.0003
     14 N3         -37.2223 -39.0691   2.1010 N.ar           1 noname            -0.2412
     15 C11        -42.1231 -40.7215   2.5917 C.3            1 noname            -0.0142
     16 C12        -43.5972 -41.0427   2.6611 C.ar           1 noname            -0.0544
     17 C13        -44.3098 -41.3563   1.5134 C.ar           1 noname            -0.0569
     18 C14        -45.6624 -41.6481   1.5764 C.ar           1 noname            -0.0605
     19 C15        -46.3195 -41.6290   2.7887 C.ar           1 noname            -0.0616
     20 C16        -45.6230 -41.3176   3.9374 C.ar           1 noname            -0.0605
     21 C17        -44.2704 -41.0260   3.8735 C.ar           1 noname            -0.0569
     22 C18        -36.0204 -42.2906   3.2024 C.2            1 noname             0.0696
     23 O2         -35.4589 -42.6778   4.2276 O.2            1 noname            -0.2901
     24 C19        -36.9274 -42.2815   1.0003 C.3            1 noname            -0.0112
     25 C20        -35.9631 -43.0110   1.8949 C.3            1 noname             0.0244
     26 H1         -41.7890 -40.7860   1.5488 H              1 noname            -0.0142
     27 H2         -41.9648 -39.6906   2.9301 H              1 noname            -0.0142
     28 H3         -43.8019 -41.3733   0.5548 H              1 noname            -0.0569
     29 H4         -46.2063 -41.8921   0.6699 H              1 noname            -0.0605
     30 H5         -47.3791 -41.8577   2.8384 H              1 noname            -0.0616
     31 H6         -46.1355 -41.3010   4.8935 H              1 noname            -0.0605
     32 H7         -43.7311 -40.7816   4.7828 H              1 noname            -0.0569
     33 H8         -41.5416 -41.5156   4.5021 H              1 noname             0.0144
     34 H9         -41.5827 -42.7024   3.1913 H              1 noname             0.0144
     35 H10        -39.4064 -40.3761  -0.1025 H              1 noname            -0.0133
     36 H11        -36.3858 -41.6426   0.3044 H              1 noname            -0.0112
     37 H12        -37.5352 -42.9925   0.4425 H              1 noname            -0.0112
     38 H13        -36.2666 -44.0496   2.0173 H              1 noname             0.0244
     39 H14        -34.9561 -42.9734   1.4820 H              1 noname             0.0244
     40 H15        -39.6359 -40.3825   5.0985 H              1 noname            -0.0806
     41 H16        -37.2308 -40.6057   5.1748 H              1 noname            -0.0779
     42 H17        -39.5523 -37.9860  -0.7701 H              1 noname            -0.0379
     43 H18        -38.1799 -36.3025   0.4332 H              1 noname            -0.0260
     44 H19        -36.7180 -37.0516   2.2500 H              1 noname             0.0003
     45 ****       -39.3596 -42.9140   0.4606 LP             1 noname             0.0000
     46 ****       -40.7851 -42.8835   1.4439 LP             1 noname             0.0000
     47 ****       -36.6167 -39.3445   2.8476 LP             1 noname             0.0000
     48 ****       -35.8165 -42.4143   5.1235 LP             1 noname             0.0000
     49 ****       -34.6454 -43.2559   4.1642 LP             1 noname             0.0000
@<TRIPOS>BOND
    1    1    2 2     
    2    6    1 1     
    3    2    3 1     
    4    3    4 1     
    5    3   22 am    
    6    4    5 1     
    7    4    9 1     
    8    4   24 1     
    9    5    6 am    
   10    5    8 2     
   11    6    7 1     
   12    7   15 1     
   13    9   10 ar    
   14   14    9 ar    
   15   10   11 ar    
   16   11   12 ar    
   17   12   13 ar    
   18   13   14 ar    
   19   15   16 1     
   20   16   17 ar    
   21   21   16 ar    
   22   17   18 ar    
   23   18   19 ar    
   24   19   20 ar    
   25   20   21 ar    
   26   22   23 2     
   27   25   22 1     
   28   24   25 1     
   29   15   26 1     
   30   15   27 1     
   31   17   28 1     
   32   18   29 1     
   33   19   30 1     
   34   20   31 1     
   35   21   32 1     
   36    7   33 1     
   37    7   34 1     
   38   10   35 1     
   39   24   36 1     
   40   24   37 1     
   41   25   38 1     
   42   25   39 1     
   43    1   40 1     
   44    2   41 1     
   45   11   42 1     
   46   12   43 1     
   47   13   44 1     
   48    8   45 1     
   49    8   46 1     
   50   14   47 1     
   51   23   48 1     
   52   23   49 1     
@<TRIPOS>SUBSTRUCTURE
      1 noname         1
@<TRIPOS>SET
LONE_PAIRS      STATIC     ATOMS    <user>   **** ""
5 45 46 47 48 49
ATOM$BLUE        STATIC     ATOMS    COLORGROUP SYSTEM
5 45 46 47 48 49
@<TRIPOS>COMMENT
> <Gold.Version>
2022.3.0

> <Gold.Id.Protein>
unknown|6c5f_clean|pdb

> <Gold.Protein.ActiveResidues>
 LEU49   SER50   GLN58   ILE95   LEU96   ILE97   ARG98   PRO1    PHE2    LEU3   
 LEU30   LYS32   PRO33   ASP35   ARG36   VAL37   ASN38   ILE61   SER62   SER63  
 ILE64   GLY65   VAL66   VAL67   PHE100  LEU102  GLU103  SER104  TRP105  GLN106 
 ILE107  GLY108  LYS109  ILE110  THR112  VAL113  PRO1    GLN58   PHE2    LEU96  
 LEU30   LYS32   PRO33   PHE2    PRO1    PRO101  LEU102  GLU103  VAL37   ASN38  
 LEU49   SER50   ILE61   SER62   SER63   ILE64   ILE64   GLY65   VAL66   VAL67  
 PRO33   ARG36   VAL37   PRO1    SER104  TRP105  GLN106  ILE107  GLY108  LYS109 
 ILE110  PRO1    PHE2    LEU3    ILE110  VAL113  LEU96   ILE97   ARG98   PHE2   
 PRO1   

> <Gold.Score>
     Score     S(PLP)   S(hbond)     S(cho)   S(metal)  DE(clash)   DE(tors)     intcor
     61.52     -56.80       0.00       2.00       0.00       0.00       0.67       0.05

> <Gold.PLP.Fitness>
61.5179

> <Gold.PLP.PLP>
-56.8013

> <Gold.PLP.part.hbond>
0.0000

> <Gold.PLP.part.metal>
0.0000

> <Gold.PLP.part.buried>
-2.4628

> <Gold.PLP.part.nonpolar>
-55.5271

> <Gold.PLP.part.repulsive>
0.4188

> <Gold.PLP.ligand.clash>
0.0000

> <Gold.PLP.ligand.torsion>
0.6677

> <Gold.PLP.Chemscore.Hbond>
0.0000

> <Gold.PLP.Chemscore.CHOScore>
2.0000

> <Gold.PLP.Chemscore.Metal>
0.0000

> <Gold.Chemscore.Hbonds>
donor molecule, donor type, donor heavy atom, donor atom, acceptor molecule, acceptor atom, score
      L1  C    13    44       P1  2116  1.00
      L1  C    13    44       P1  2115  0.99

> <Gold.PLP.Chemscore.Internal.Correction>
0.0520

> <Gold.PLP.Reference.RMSD>
4.9083

> <Gold.Rescore>
     Score         DG    S(hbond)    S(metal)    S(lipo)     H(rot)  DE(clash)    DE(int)     intcor
     22.99     -25.79       0.00        0.00     203.56       1.37       1.05       1.75       ----

> <Gold.Chemscore.Fitness>
22.9917

> <Gold.Chemscore.DG>
-25.7942

> <Gold.Chemscore.ZeroCoef>
-5.4800

> <Gold.Chemscore.Hbond>
0.0000

> <Gold.Chemscore.Metal>
0.0000

> <Gold.Chemscore.Lipo>
203.5569

> <Gold.Chemscore.Internal_Hbond>
0.0000

> <Gold.Chemscore.DEClash>
1.0519

> <Gold.Chemscore.DEInternal>
1.7507

> <Gold.Chemscore.Rot>
1.3679

> <Gold.Chemscore.Internal.Correction>
   9.000000E+99

> <Gold.Chemscore.Reference.RMSD>
0.0000

> <Gold.Chemscore.Hbond.Weighted>
-0.0000

> <Gold.Chemscore.Metal.Weighted>
-0.0000

> <Gold.Chemscore.Lipo.Weighted>
-23.8162

> <Gold.Chemscore.Internal_Hbond.Weighted>
0.0000

> <Gold.Chemscore.DEClash.Weighted>
1.0519

> <Gold.Chemscore.DEInternal.Weighted>
1.7507

> <Gold.Chemscore.Rot.Weighted>
3.5019

> <Gold.Chemscore.Internal.Correction.Weighted>
   9.000000E+99

> <Gold.Reference.RMSD>
4.9083

#       Name:                00000001
#       Creating user name   hitesit
#       Creation time:       Thu Mar  2 16:48:43 2023


#       File generated by GOLD software.
#

@<TRIPOS>MOLECULE
00000001|prep_VS_1|mol2|1|dock5
    49    52     1
SMALL
USER_CHARGES


@<TRIPOS>ATOM
      1 C1         -39.1507 -40.9226   4.3373 C.2            1 noname            -0.0806
      2 C2         -37.8344 -41.0170   4.3300 C.2            1 noname            -0.0779
      3 N1         -37.2127 -41.5657   3.2150 N.am           1 noname             0.0248
      4 C3         -37.9140 -41.4812   1.9407 C.3            1 noname             0.1485
      5 C4         -39.3696 -41.9157   2.1341 C.2            1 noname             0.0779
      6 N2         -39.9182 -41.4989   3.3114 N.am           1 noname             0.0223
      7 C5         -41.3676 -41.6446   3.5261 C.3            1 noname             0.0144
      8 O1         -39.9725 -42.6112   1.3386 O.2            1 noname            -0.2820
      9 C6         -38.0346 -40.0178   1.4647 C.ar           1 noname             0.0167
     10 C7         -38.8530 -39.6599   0.4041 C.ar           1 noname            -0.0133
     11 C8         -38.9105 -38.3260   0.0383 C.ar           1 noname            -0.0379
     12 C9         -38.1620 -37.3972   0.7298 C.ar           1 noname            -0.0260
     13 C10        -37.3777 -37.8432   1.7709 C.ar           1 noname             0.0003
     14 N3         -37.3042 -39.1274   2.1453 N.ar           1 noname            -0.2412
     15 C11        -42.1876 -40.6638   2.6961 C.3            1 noname            -0.0142
     16 C12        -43.6629 -40.9824   2.7472 C.ar           1 noname            -0.0544
     17 C13        -44.3483 -40.9785   3.9530 C.ar           1 noname            -0.0569
     18 C14        -45.7008 -41.2735   4.0005 C.ar           1 noname            -0.0605
     19 C15        -46.3848 -41.5770   2.8421 C.ar           1 noname            -0.0616
     20 C16        -45.7151 -41.5855   1.6367 C.ar           1 noname            -0.0605
     21 C17        -44.3626 -41.2904   1.5900 C.ar           1 noname            -0.0569
     22 C18        -36.1143 -42.3856   3.1867 C.2            1 noname             0.0696
     23 O2         -35.5434 -42.7861   4.2015 O.2            1 noname            -0.2901
     24 C19        -37.0612 -42.3550   1.0016 C.3            1 noname            -0.0112
     25 C20        -36.0982 -43.1072   1.8786 C.3            1 noname             0.0244
     26 H1         -41.8473 -40.6986   1.6537 H              1 noname            -0.0142
     27 H2         -42.0284 -39.6437   3.0655 H              1 noname            -0.0142
     28 H3         -43.8187 -40.7416   4.8699 H              1 noname            -0.0569
     29 H4         -46.2233 -41.2659   4.9513 H              1 noname            -0.0605
     30 H5         -47.4444 -41.8079   2.8791 H              1 noname            -0.0616
     31 H6         -46.2488 -41.8239   0.7227 H              1 noname            -0.0605
     32 H7         -43.8443 -41.3003   0.6369 H              1 noname            -0.0569
     33 H8         -41.5896 -41.4874   4.5888 H              1 noname             0.0144
     34 H9         -41.6855 -42.6622   3.2701 H              1 noname             0.0144
     35 H10        -39.4342 -40.4071  -0.1261 H              1 noname            -0.0133
     36 H11        -36.5174 -41.7291   0.2955 H              1 noname            -0.0112
     37 H12        -37.6959 -43.0513   0.4555 H              1 noname            -0.0112
     38 H13        -36.4241 -44.1382   2.0072 H              1 noname             0.0244
     39 H14        -35.0983 -43.0937   1.4473 H              1 noname             0.0244
     40 H15        -39.6477 -40.3918   5.1480 H              1 noname            -0.0806
     41 H16        -37.2476 -40.6723   5.1802 H              1 noname            -0.0779
     42 H17        -39.5408 -38.0132  -0.7876 H              1 noname            -0.0379
     43 H18        -38.1899 -36.3462   0.4620 H              1 noname            -0.0260
     44 H19        -36.7876 -37.1148   2.3172 H              1 noname             0.0003
     45 ****       -39.5172 -42.9293   0.5071 LP             1 noname             0.0000
     46 ****       -40.9233 -42.8647   1.5164 LP             1 noname             0.0000
     47 ****       -36.7227 -39.4108   2.9079 LP             1 noname             0.0000
     48 ****       -35.8781 -42.5141   5.1038 LP             1 noname             0.0000
     49 ****       -34.7452 -43.3833   4.1235 LP             1 noname             0.0000
@<TRIPOS>BOND
    1    1    2 2     
    2    6    1 1     
    3    2    3 1     
    4    3    4 1     
    5    3   22 am    
    6    4    5 1     
    7    4    9 1     
    8    4   24 1     
    9    5    6 am    
   10    5    8 2     
   11    6    7 1     
   12    7   15 1     
   13    9   10 ar    
   14   14    9 ar    
   15   10   11 ar    
   16   11   12 ar    
   17   12   13 ar    
   18   13   14 ar    
   19   15   16 1     
   20   16   17 ar    
   21   21   16 ar    
   22   17   18 ar    
   23   18   19 ar    
   24   19   20 ar    
   25   20   21 ar    
   26   22   23 2     
   27   25   22 1     
   28   24   25 1     
   29   15   26 1     
   30   15   27 1     
   31   17   28 1     
   32   18   29 1     
   33   19   30 1     
   34   20   31 1     
   35   21   32 1     
   36    7   33 1     
   37    7   34 1     
   38   10   35 1     
   39   24   36 1     
   40   24   37 1     
   41   25   38 1     
   42   25   39 1     
   43    1   40 1     
   44    2   41 1     
   45   11   42 1     
   46   12   43 1     
   47   13   44 1     
   48    8   45 1     
   49    8   46 1     
   50   14   47 1     
   51   23   48 1     
   52   23   49 1     
@<TRIPOS>SUBSTRUCTURE
      1 noname         1
@<TRIPOS>SET
LONE_PAIRS      STATIC     ATOMS    <user>   **** ""
5 45 46 47 48 49
ATOM$BLUE        STATIC     ATOMS    COLORGROUP SYSTEM
5 45 46 47 48 49
@<TRIPOS>COMMENT
> <Gold.Version>
2022.3.0

> <Gold.Id.Protein>
unknown|6c5f_clean|pdb

> <Gold.Protein.ActiveResidues>
 LEU49   SER50   GLN58   ILE95   LEU96   ILE97   ARG98   PRO1    PHE2    LEU3   
 LEU30   LYS32   PRO33   ASP35   ARG36   VAL37   ASN38   ILE61   SER62   SER63  
 ILE64   GLY65   VAL66   VAL67   PHE100  LEU102  GLU103  SER104  TRP105  GLN106 
 ILE107  GLY108  LYS109  ILE110  THR112  VAL113  PRO1    GLN58   PHE2    LEU96  
 LEU30   LYS32   PRO33   PHE2    PRO1    PRO101  LEU102  GLU103  VAL37   ASN38  
 LEU49   SER50   ILE61   SER62   SER63   ILE64   ILE64   GLY65   VAL66   VAL67  
 PRO33   ARG36   VAL37   PRO1    SER104  TRP105  GLN106  ILE107  GLY108  LYS109 
 ILE110  PRO1    PHE2    LEU3    ILE110  VAL113  LEU96   ILE97   ARG98   PHE2   
 PRO1   

> <Gold.Score>
     Score     S(PLP)   S(hbond)     S(cho)   S(metal)  DE(clash)   DE(tors)     intcor
     61.46     -56.58       0.00       1.96       0.00       0.00       0.52       0.05

> <Gold.PLP.Fitness>
61.4649

> <Gold.PLP.PLP>
-56.5789

> <Gold.PLP.part.hbond>
0.0000

> <Gold.PLP.part.metal>
0.0000

> <Gold.PLP.part.buried>
-2.8816

> <Gold.PLP.part.nonpolar>
-54.8656

> <Gold.PLP.part.repulsive>
0.3973

> <Gold.PLP.ligand.clash>
0.0000

> <Gold.PLP.ligand.torsion>
0.5250

> <Gold.PLP.Chemscore.Hbond>
0.0000

> <Gold.PLP.Chemscore.CHOScore>
1.9613

> <Gold.PLP.Chemscore.Metal>
0.0000

> <Gold.Chemscore.Hbonds>
donor molecule, donor type, donor heavy atom, donor atom, acceptor molecule, acceptor atom, score
      L1  C    13    44       P1  2116  1.00
      L1  C    13    44       P1  2115  0.96

> <Gold.PLP.Chemscore.Internal.Correction>
0.0520

> <Gold.PLP.Reference.RMSD>
4.9267

> <Gold.Rescore>
     Score         DG    S(hbond)    S(metal)    S(lipo)     H(rot)  DE(clash)    DE(int)     intcor
     23.73     -25.80       0.00        0.00     203.58       1.37       0.45       1.62       ----

> <Gold.Chemscore.Fitness>
23.7250

> <Gold.Chemscore.DG>
-25.7971

> <Gold.Chemscore.ZeroCoef>
-5.4800

> <Gold.Chemscore.Hbond>
0.0000

> <Gold.Chemscore.Metal>
0.0000

> <Gold.Chemscore.Lipo>
203.5817

> <Gold.Chemscore.Internal_Hbond>
0.0000

> <Gold.Chemscore.DEClash>
0.4535

> <Gold.Chemscore.DEInternal>
1.6186

> <Gold.Chemscore.Rot>
1.3679

> <Gold.Chemscore.Internal.Correction>
   9.000000E+99

> <Gold.Chemscore.Reference.RMSD>
0.0000

> <Gold.Chemscore.Hbond.Weighted>
-0.0000

> <Gold.Chemscore.Metal.Weighted>
-0.0000

> <Gold.Chemscore.Lipo.Weighted>
-23.8191

> <Gold.Chemscore.Internal_Hbond.Weighted>
0.0000

> <Gold.Chemscore.DEClash.Weighted>
0.4535

> <Gold.Chemscore.DEInternal.Weighted>
1.6186

> <Gold.Chemscore.Rot.Weighted>
3.5019

> <Gold.Chemscore.Internal.Correction.Weighted>
   9.000000E+99

> <Gold.Reference.RMSD>
4.9267

#       Name:                00000001
#       Creating user name   hitesit
#       Creation time:       Thu Mar  2 16:48:40 2023


#       File generated by GOLD software.
#

@<TRIPOS>MOLECULE
00000001|prep_VS_1|mol2|1|dock1
    49    52     1
SMALL
USER_CHARGES


@<TRIPOS>ATOM
      1 C1         -39.3534 -41.1044   4.0181 C.2            1 noname            -0.0806
      2 C2         -38.0514 -41.0903   4.2333 C.2            1 noname            -0.0779
      3 N1         -37.2028 -41.4876   3.2072 N.am           1 noname             0.0248
      4 C3         -37.6862 -41.3501   1.8396 C.3            1 noname             0.1485
      5 C4         -39.1056 -41.9169   1.7449 C.2            1 noname             0.0779
      6 N2         -39.8803 -41.6500   2.8355 N.am           1 noname             0.0223
      7 C5         -41.3247 -41.9314   2.7835 C.3            1 noname             0.0144
      8 O1         -39.4981 -42.5874   0.8089 O.2            1 noname            -0.2820
      9 C6         -37.8642 -39.8656   1.4560 C.ar           1 noname             0.0167
     10 C7         -38.8266 -39.4571   0.5453 C.ar           1 noname            -0.0133
     11 C8         -38.9271 -38.1071   0.2551 C.ar           1 noname            -0.0379
     12 C9         -38.0782 -37.2128   0.8721 C.ar           1 noname            -0.0260
     13 C10        -37.1531 -37.7085   1.7645 C.ar           1 noname             0.0003
     14 N3         -37.0351 -39.0091   2.0631 N.ar           1 noname            -0.2412
     15 C11        -42.1756 -40.6806   2.9698 C.3            1 noname            -0.0142
     16 C12        -43.6516 -40.9885   2.8839 C.ar           1 noname            -0.0544
     17 C13        -44.4487 -40.9642   4.0187 C.ar           1 noname            -0.0569
     18 C14        -45.8019 -41.2494   3.9406 C.ar           1 noname            -0.0605
     19 C15        -46.3748 -41.5633   2.7261 C.ar           1 noname            -0.0616
     20 C16        -45.5933 -41.5922   1.5903 C.ar           1 noname            -0.0605
     21 C17        -44.2402 -41.3069   1.6692 C.ar           1 noname            -0.0569
     22 C18        -36.0422 -42.2097   3.3120 C.2            1 noname             0.0696
     23 O2         -35.6134 -42.6490   4.3794 O.2            1 noname            -0.2901
     24 C19        -36.6092 -42.0666   1.0033 C.3            1 noname            -0.0112
     25 C20        -35.7392 -42.8112   1.9784 C.3            1 noname             0.0244
     26 H1         -41.9149 -39.9469   2.1971 H              1 noname            -0.0142
     27 H2         -41.9601 -40.2290   3.9456 H              1 noname            -0.0142
     28 H3         -44.0070 -40.7190   4.9789 H              1 noname            -0.0569
     29 H4         -46.4125 -41.2258   4.8370 H              1 noname            -0.0605
     30 H5         -47.4349 -41.7866   2.6646 H              1 noname            -0.0616
     31 H6         -46.0394 -41.8389   0.6325 H              1 noname            -0.0605
     32 H7         -43.6335 -41.3327   0.7700 H              1 noname            -0.0569
     33 H8         -41.5766 -42.6560   3.5676 H              1 noname             0.0144
     34 H9         -41.5853 -42.3848   1.8198 H              1 noname             0.0144
     35 H10        -39.4850 -40.1778   0.0716 H              1 noname            -0.0133
     36 H11        -36.0172 -41.3396   0.4494 H              1 noname            -0.0112
     37 H12        -37.0746 -42.7622   0.3065 H              1 noname            -0.0112
     38 H13        -35.9824 -43.8726   1.9740 H              1 noname             0.0244
     39 H14        -34.6872 -42.6788   1.7299 H              1 noname             0.0244
     40 H15        -40.0271 -40.6883   4.7657 H              1 noname            -0.0806
     41 H16        -37.6505 -40.7741   5.1952 H              1 noname            -0.0779
     42 H17        -39.6694 -37.7550  -0.4535 H              1 noname            -0.0379
     43 H18        -38.1372 -36.1502   0.6612 H              1 noname            -0.0260
     44 H19        -36.4837 -37.0073   2.2519 H              1 noname             0.0003
     45 ****       -38.8822 -42.7940   0.0487 LP             1 noname             0.0000
     46 ****       -40.4368 -42.9321   0.7997 LP             1 noname             0.0000
     47 ****       -36.3502 -39.3289   2.7178 LP             1 noname             0.0000
     48 ****       -36.1184 -42.4845   5.2267 LP             1 noname             0.0000
     49 ****       -34.7602 -43.1702   4.3990 LP             1 noname             0.0000
@<TRIPOS>BOND
    1    1    2 2     
    2    6    1 1     
    3    2    3 1     
    4    3    4 1     
    5    3   22 am    
    6    4    5 1     
    7    4    9 1     
    8    4   24 1     
    9    5    6 am    
   10    5    8 2     
   11    6    7 1     
   12    7   15 1     
   13    9   10 ar    
   14   14    9 ar    
   15   10   11 ar    
   16   11   12 ar    
   17   12   13 ar    
   18   13   14 ar    
   19   15   16 1     
   20   16   17 ar    
   21   21   16 ar    
   22   17   18 ar    
   23   18   19 ar    
   24   19   20 ar    
   25   20   21 ar    
   26   22   23 2     
   27   25   22 1     
   28   24   25 1     
   29   15   26 1     
   30   15   27 1     
   31   17   28 1     
   32   18   29 1     
   33   19   30 1     
   34   20   31 1     
   35   21   32 1     
   36    7   33 1     
   37    7   34 1     
   38   10   35 1     
   39   24   36 1     
   40   24   37 1     
   41   25   38 1     
   42   25   39 1     
   43    1   40 1     
   44    2   41 1     
   45   11   42 1     
   46   12   43 1     
   47   13   44 1     
   48    8   45 1     
   49    8   46 1     
   50   14   47 1     
   51   23   48 1     
   52   23   49 1     
@<TRIPOS>SUBSTRUCTURE
      1 noname         1
@<TRIPOS>SET
LONE_PAIRS      STATIC     ATOMS    <user>   **** ""
5 45 46 47 48 49
ATOM$BLUE        STATIC     ATOMS    COLORGROUP SYSTEM
5 45 46 47 48 49
@<TRIPOS>COMMENT
> <Gold.Version>
2022.3.0

> <Gold.Id.Protein>
unknown|6c5f_clean|pdb

> <Gold.Protein.ActiveResidues>
 LEU49   SER50   GLN58   ILE95   LEU96   ILE97   ARG98   PRO1    PHE2    LEU3   
 LEU30   LYS32   PRO33   ASP35   ARG36   VAL37   ASN38   ILE61   SER62   SER63  
 ILE64   GLY65   VAL66   VAL67   PHE100  LEU102  GLU103  SER104  TRP105  GLN106 
 ILE107  GLY108  LYS109  ILE110  THR112  VAL113  PRO1    GLN58   PHE2    LEU96  
 LEU30   LYS32   PRO33   PHE2    PRO1    PRO101  LEU102  GLU103  VAL37   ASN38  
 LEU49   SER50   ILE61   SER62   SER63   ILE64   ILE64   GLY65   VAL66   VAL67  
 PRO33   ARG36   VAL37   PRO1    SER104  TRP105  GLN106  ILE107  GLY108  LYS109 
 ILE110  PRO1    PHE2    LEU3    ILE110  VAL113  LEU96   ILE97   ARG98   PHE2   
 PRO1   

> <Gold.Score>
     Score     S(PLP)   S(hbond)     S(cho)   S(metal)  DE(clash)   DE(tors)     intcor
     61.32     -57.68       0.00       2.00       0.00       0.00       1.23       0.10

> <Gold.PLP.Fitness>
61.3157

> <Gold.PLP.PLP>
-57.6787

> <Gold.PLP.part.hbond>
0.0000

> <Gold.PLP.part.metal>
0.0000

> <Gold.PLP.part.buried>
-0.3287

> <Gold.PLP.part.nonpolar>
-57.7193

> <Gold.PLP.part.repulsive>
0.4579

> <Gold.PLP.ligand.clash>
0.0000

> <Gold.PLP.ligand.torsion>
1.2320

> <Gold.PLP.Chemscore.Hbond>
0.0000

> <Gold.PLP.Chemscore.CHOScore>
2.0000

> <Gold.PLP.Chemscore.Metal>
0.0000

> <Gold.Chemscore.Hbonds>
donor molecule, donor type, donor heavy atom, donor atom, acceptor molecule, acceptor atom, score
      L1  C    13    44       P1  2116  1.00
      L1  C    13    44       P1  2115  1.00

> <Gold.PLP.Chemscore.Internal.Correction>
0.1010

> <Gold.PLP.Reference.RMSD>
4.9481

> <Gold.Rescore>
     Score         DG    S(hbond)    S(metal)    S(lipo)     H(rot)  DE(clash)    DE(int)     intcor
     24.03     -26.15       0.00        0.00     206.63       1.37       1.01       1.11       ----

> <Gold.Chemscore.Fitness>
24.0289

> <Gold.Chemscore.DG>
-26.1535

> <Gold.Chemscore.ZeroCoef>
-5.4800

> <Gold.Chemscore.Hbond>
0.0000

> <Gold.Chemscore.Metal>
0.0000

> <Gold.Chemscore.Lipo>
206.6280

> <Gold.Chemscore.Internal_Hbond>
0.0000

> <Gold.Chemscore.DEClash>
1.0128

> <Gold.Chemscore.DEInternal>
1.1118

> <Gold.Chemscore.Rot>
1.3679

> <Gold.Chemscore.Internal.Correction>
   9.000000E+99

> <Gold.Chemscore.Reference.RMSD>
0.0000

> <Gold.Chemscore.Hbond.Weighted>
-0.0000

> <Gold.Chemscore.Metal.Weighted>
-0.0000

> <Gold.Chemscore.Lipo.Weighted>
-24.1755

> <Gold.Chemscore.Internal_Hbond.Weighted>
0.0000

> <Gold.Chemscore.DEClash.Weighted>
1.0128

> <Gold.Chemscore.DEInternal.Weighted>
1.1118

> <Gold.Chemscore.Rot.Weighted>
3.5019

> <Gold.Chemscore.Internal.Correction.Weighted>
   9.000000E+99

> <Gold.Reference.RMSD>
4.9481

#       Name:                00000001
#       Creating user name   hitesit
#       Creation time:       Thu Mar  2 16:48:46 2023


#       File generated by GOLD software.
#

@<TRIPOS>MOLECULE
00000001|prep_VS_1|mol2|1|dock10
    49    52     1
SMALL
USER_CHARGES


@<TRIPOS>ATOM
      1 C1         -39.3736 -41.1025   3.9369 C.2            1 noname            -0.0806
      2 C2         -38.0737 -41.0966   4.1651 C.2            1 noname            -0.0779
      3 N1         -37.2173 -41.4947   3.1457 N.am           1 noname             0.0248
      4 C3         -37.6864 -41.3492   1.7740 C.3            1 noname             0.1485
      5 C4         -39.1080 -41.9075   1.6632 C.2            1 noname             0.0779
      6 N2         -39.8919 -41.6405   2.7471 N.am           1 noname             0.0223
      7 C5         -41.3372 -41.9134   2.6798 C.3            1 noname             0.0144
      8 O1         -39.4951 -42.5721   0.7207 O.2            1 noname            -0.2820
      9 C6         -37.8523 -39.8622   1.3945 C.ar           1 noname             0.0167
     10 C7         -38.8032 -39.4446   0.4759 C.ar           1 noname            -0.0133
     11 C8         -38.8932 -38.0930   0.1901 C.ar           1 noname            -0.0379
     12 C9         -38.0455 -37.2060   0.8191 C.ar           1 noname            -0.0260
     13 C10        -37.1322 -37.7103   1.7188 C.ar           1 noname             0.0003
     14 N3         -37.0245 -39.0127   2.0133 N.ar           1 noname            -0.2412
     15 C11        -42.1839 -40.6784   2.9648 C.3            1 noname            -0.0142
     16 C12        -43.6614 -40.9812   2.8872 C.ar           1 noname            -0.0544
     17 C13        -44.4569 -40.9290   4.0220 C.ar           1 noname            -0.0569
     18 C14        -45.8115 -41.2095   3.9516 C.ar           1 noname            -0.0605
     19 C15        -46.3875 -41.5466   2.7447 C.ar           1 noname            -0.0616
     20 C16        -45.6075 -41.6033   1.6089 C.ar           1 noname            -0.0605
     21 C17        -44.2530 -41.3227   1.6801 C.ar           1 noname            -0.0569
     22 C18        -36.0619 -42.2238   3.2590 C.2            1 noname             0.0696
     23 O2         -35.6461 -42.6697   4.3288 O.2            1 noname            -0.2901
     24 C19        -36.6054 -42.0685   0.9455 C.3            1 noname            -0.0112
     25 C20        -35.7492 -42.8219   1.9262 C.3            1 noname             0.0244
     26 H1         -41.9378 -39.8950   2.2374 H              1 noname            -0.0142
     27 H2         -41.9494 -40.2921   3.9639 H              1 noname            -0.0142
     28 H3         -44.0130 -40.6653   4.9763 H              1 noname            -0.0569
     29 H4         -46.4210 -41.1639   4.8480 H              1 noname            -0.0605
     30 H5         -47.4486 -41.7662   2.6893 H              1 noname            -0.0616
     31 H6         -46.0559 -41.8683   0.6571 H              1 noname            -0.0605
     32 H7         -43.6475 -41.3705   0.7810 H              1 noname            -0.0569
     33 H8         -41.5881 -42.6952   3.4073 H              1 noname             0.0144
     34 H9         -41.6030 -42.2911   1.6854 H              1 noname             0.0144
     35 H10        -39.4608 -40.1598  -0.0072 H              1 noname            -0.0133
     36 H11        -36.0038 -41.3427   0.4003 H              1 noname            -0.0112
     37 H12        -37.0678 -42.7587   0.2414 H              1 noname            -0.0112
     38 H13        -35.9983 -43.8818   1.9151 H              1 noname             0.0244
     39 H14        -34.6941 -42.6945   1.6885 H              1 noname             0.0244
     40 H15        -40.0522 -40.6855   4.6796 H              1 noname            -0.0806
     41 H16        -37.6805 -40.7865   5.1320 H              1 noname            -0.0779
     42 H17        -39.6263 -37.7339  -0.5246 H              1 noname            -0.0379
     43 H18        -38.0964 -36.1422   0.6119 H              1 noname            -0.0260
     44 H19        -36.4638 -37.0148   2.2157 H              1 noname             0.0003
     45 ****       -38.8729 -42.7792  -0.0343 LP             1 noname             0.0000
     46 ****       -40.4356 -42.9114   0.7009 LP             1 noname             0.0000
     47 ****       -36.3480 -39.3390   2.6736 LP             1 noname             0.0000
     48 ****       -36.1585 -42.5057   5.1718 LP             1 noname             0.0000
     49 ****       -34.7961 -43.1958   4.3547 LP             1 noname             0.0000
@<TRIPOS>BOND
    1    1    2 2     
    2    6    1 1     
    3    2    3 1     
    4    3    4 1     
    5    3   22 am    
    6    4    5 1     
    7    4    9 1     
    8    4   24 1     
    9    5    6 am    
   10    5    8 2     
   11    6    7 1     
   12    7   15 1     
   13    9   10 ar    
   14   14    9 ar    
   15   10   11 ar    
   16   11   12 ar    
   17   12   13 ar    
   18   13   14 ar    
   19   15   16 1     
   20   16   17 ar    
   21   21   16 ar    
   22   17   18 ar    
   23   18   19 ar    
   24   19   20 ar    
   25   20   21 ar    
   26   22   23 2     
   27   25   22 1     
   28   24   25 1     
   29   15   26 1     
   30   15   27 1     
   31   17   28 1     
   32   18   29 1     
   33   19   30 1     
   34   20   31 1     
   35   21   32 1     
   36    7   33 1     
   37    7   34 1     
   38   10   35 1     
   39   24   36 1     
   40   24   37 1     
   41   25   38 1     
   42   25   39 1     
   43    1   40 1     
   44    2   41 1     
   45   11   42 1     
   46   12   43 1     
   47   13   44 1     
   48    8   45 1     
   49    8   46 1     
   50   14   47 1     
   51   23   48 1     
   52   23   49 1     
@<TRIPOS>SUBSTRUCTURE
      1 noname         1
@<TRIPOS>SET
LONE_PAIRS      STATIC     ATOMS    <user>   **** ""
5 45 46 47 48 49
ATOM$BLUE        STATIC     ATOMS    COLORGROUP SYSTEM
5 45 46 47 48 49
@<TRIPOS>COMMENT
> <Gold.Version>
2022.3.0

> <Gold.Id.Protein>
unknown|6c5f_clean|pdb

> <Gold.Protein.ActiveResidues>
 LEU49   SER50   GLN58   ILE95   LEU96   ILE97   ARG98   PRO1    PHE2    LEU3   
 LEU30   LYS32   PRO33   ASP35   ARG36   VAL37   ASN38   ILE61   SER62   SER63  
 ILE64   GLY65   VAL66   VAL67   PHE100  LEU102  GLU103  SER104  TRP105  GLN106 
 ILE107  GLY108  LYS109  ILE110  THR112  VAL113  PRO1    GLN58   PHE2    LEU96  
 LEU30   LYS32   PRO33   PHE2    PRO1    PRO101  LEU102  GLU103  VAL37   ASN38  
 LEU49   SER50   ILE61   SER62   SER63   ILE64   ILE64   GLY65   VAL66   VAL67  
 PRO33   ARG36   VAL37   PRO1    SER104  TRP105  GLN106  ILE107  GLY108  LYS109 
 ILE110  PRO1    PHE2    LEU3    ILE110  VAL113  LEU96   ILE97   ARG98   PHE2   
 PRO1   

> <Gold.Score>
     Score     S(PLP)   S(hbond)     S(cho)   S(metal)  DE(clash)   DE(tors)     intcor
     61.26     -57.53       0.00       2.00       0.00       0.00       1.16       0.05

> <Gold.PLP.Fitness>
61.2646

> <Gold.PLP.PLP>
-57.5286

> <Gold.PLP.part.hbond>
0.0000

> <Gold.PLP.part.metal>
0.0000

> <Gold.PLP.part.buried>
-0.5192

> <Gold.PLP.part.nonpolar>
-57.8770

> <Gold.PLP.part.repulsive>
0.4590

> <Gold.PLP.ligand.clash>
0.0000

> <Gold.PLP.ligand.torsion>
1.1580

> <Gold.PLP.Chemscore.Hbond>
0.0000

> <Gold.PLP.Chemscore.CHOScore>
2.0000

> <Gold.PLP.Chemscore.Metal>
0.0000

> <Gold.Chemscore.Hbonds>
donor molecule, donor type, donor heavy atom, donor atom, acceptor molecule, acceptor atom, score
      L1  C    13    44       P1  2116  1.00
      L1  C    13    44       P1  2115  1.00

> <Gold.PLP.Chemscore.Internal.Correction>
0.0520

> <Gold.PLP.Reference.RMSD>
4.9481

> <Gold.Rescore>
     Score         DG    S(hbond)    S(metal)    S(lipo)     H(rot)  DE(clash)    DE(int)     intcor
     24.30     -26.13       0.00        0.00     206.44       1.37       0.74       1.09       ----

> <Gold.Chemscore.Fitness>
24.2974

> <Gold.Chemscore.DG>
-26.1311

> <Gold.Chemscore.ZeroCoef>
-5.4800

> <Gold.Chemscore.Hbond>
0.0000

> <Gold.Chemscore.Metal>
0.0000

> <Gold.Chemscore.Lipo>
206.4362

> <Gold.Chemscore.Internal_Hbond>
0.0000

> <Gold.Chemscore.DEClash>
0.7422

> <Gold.Chemscore.DEInternal>
1.0915

> <Gold.Chemscore.Rot>
1.3679

> <Gold.Chemscore.Internal.Correction>
   9.000000E+99

> <Gold.Chemscore.Reference.RMSD>
0.0000

> <Gold.Chemscore.Hbond.Weighted>
-0.0000

> <Gold.Chemscore.Metal.Weighted>
-0.0000

> <Gold.Chemscore.Lipo.Weighted>
-24.1530

> <Gold.Chemscore.Internal_Hbond.Weighted>
0.0000

> <Gold.Chemscore.DEClash.Weighted>
0.7422

> <Gold.Chemscore.DEInternal.Weighted>
1.0915

> <Gold.Chemscore.Rot.Weighted>
3.5019

> <Gold.Chemscore.Internal.Correction.Weighted>
   9.000000E+99

> <Gold.Reference.RMSD>
4.9481

#       Name:                00000001
#       Creating user name   hitesit
#       Creation time:       Thu Mar  2 16:48:43 2023


#       File generated by GOLD software.
#

@<TRIPOS>MOLECULE
00000001|prep_VS_1|mol2|1|dock6
    49    52     1
SMALL
USER_CHARGES


@<TRIPOS>ATOM
      1 C1         -39.1641 -40.9378   4.2206 C.2            1 noname            -0.0806
      2 C2         -37.8454 -40.9537   4.2713 C.2            1 noname            -0.0779
      3 N1         -37.1439 -41.4691   3.1882 N.am           1 noname             0.0248
      4 C3         -37.7924 -41.4319   1.8839 C.3            1 noname             0.1485
      5 C4         -39.2267 -41.9515   2.0167 C.2            1 noname             0.0779
      6 N2         -39.8502 -41.5631   3.1661 N.am           1 noname             0.0223
      7 C5         -41.2964 -41.7940   3.3184 C.3            1 noname             0.0144
      8 O1         -39.7517 -42.6849   1.2005 O.2            1 noname            -0.2820
      9 C6         -37.9785 -39.9803   1.3932 C.ar           1 noname             0.0167
     10 C7         -38.8244 -39.6683   0.3398 C.ar           1 noname            -0.0133
     11 C8         -38.9409 -38.3422  -0.0402 C.ar           1 noname            -0.0379
     12 C9         -38.2219 -37.3758   0.6308 C.ar           1 noname            -0.0260
     13 C10        -37.4068 -37.7774   1.6662 C.ar           1 noname             0.0003
     14 N3         -37.2762 -39.0530   2.0539 N.ar           1 noname            -0.2412
     15 C11        -42.1387 -40.6917   2.6868 C.3            1 noname            -0.0142
     16 C12        -43.6171 -40.9710   2.8175 C.ar           1 noname            -0.0544
     17 C13        -44.3840 -41.2702   1.7013 C.ar           1 noname            -0.0569
     18 C14        -45.7405 -41.5235   1.8206 C.ar           1 noname            -0.0605
     19 C15        -46.3473 -41.4799   3.0582 C.ar           1 noname            -0.0616
     20 C16        -45.5965 -41.1824   4.1760 C.ar           1 noname            -0.0605
     21 C17        -44.2400 -40.9292   4.0559 C.ar           1 noname            -0.0569
     22 C18        -35.9986 -42.2222   3.2134 C.2            1 noname             0.0696
     23 O2         -35.4501 -42.5837   4.2548 O.2            1 noname            -0.2901
     24 C19        -36.8488 -42.2572   0.9889 C.3            1 noname            -0.0112
     25 C20        -35.8823 -42.9471   1.9122 C.3            1 noname             0.0244
     26 H1         -41.8812 -40.6032   1.6241 H              1 noname            -0.0142
     27 H2         -41.9116 -39.7322   3.1666 H              1 noname            -0.0142
     28 H3         -43.9158 -41.3063   0.7232 H              1 noname            -0.0569
     29 H4         -46.3272 -41.7567   0.9382 H              1 noname            -0.0605
     30 H5         -47.4099 -41.6784   3.1519 H              1 noname            -0.0616
     31 H6         -46.0694 -41.1466   5.1518 H              1 noname            -0.0605
     32 H7         -43.6579 -40.6955   4.9412 H              1 noname            -0.0569
     33 H8         -41.5376 -41.8615   4.3864 H              1 noname             0.0144
     34 H9         -41.5759 -42.7484   2.8566 H              1 noname             0.0144
     35 H10        -39.3816 -40.4447  -0.1741 H              1 noname            -0.0133
     36 H11        -36.3126 -41.6031   0.3030 H              1 noname            -0.0112
     37 H12        -37.4164 -42.9924   0.4204 H              1 noname            -0.0112
     38 H13        -36.1518 -43.9951   2.0334 H              1 noname             0.0244
     39 H14        -34.8670 -42.8758   1.5248 H              1 noname             0.0244
     40 H15        -39.7268 -40.4342   5.0052 H              1 noname            -0.0806
     41 H16        -37.3180 -40.5711   5.1439 H              1 noname            -0.0779
     42 H17        -39.5940 -38.0650  -0.8610 H              1 noname            -0.0379
     43 H18        -38.2960 -36.3300   0.3516 H              1 noname            -0.0260
     44 H19        -36.8397 -37.0193   2.1964 H              1 noname             0.0003
     45 ****       -39.2423 -42.9789   0.3917 LP             1 noname             0.0000
     46 ****       -40.6928 -42.9939   1.3383 LP             1 noname             0.0000
     47 ****       -36.6739 -39.3037   2.8118 LP             1 noname             0.0000
     48 ****       -35.8396 -42.3284   5.1397 LP             1 noname             0.0000
     49 ****       -34.6152 -43.1327   4.2157 LP             1 noname             0.0000
@<TRIPOS>BOND
    1    1    2 2     
    2    6    1 1     
    3    2    3 1     
    4    3    4 1     
    5    3   22 am    
    6    4    5 1     
    7    4    9 1     
    8    4   24 1     
    9    5    6 am    
   10    5    8 2     
   11    6    7 1     
   12    7   15 1     
   13    9   10 ar    
   14   14    9 ar    
   15   10   11 ar    
   16   11   12 ar    
   17   12   13 ar    
   18   13   14 ar    
   19   15   16 1     
   20   16   17 ar    
   21   21   16 ar    
   22   17   18 ar    
   23   18   19 ar    
   24   19   20 ar    
   25   20   21 ar    
   26   22   23 2     
   27   25   22 1     
   28   24   25 1     
   29   15   26 1     
   30   15   27 1     
   31   17   28 1     
   32   18   29 1     
   33   19   30 1     
   34   20   31 1     
   35   21   32 1     
   36    7   33 1     
   37    7   34 1     
   38   10   35 1     
   39   24   36 1     
   40   24   37 1     
   41   25   38 1     
   42   25   39 1     
   43    1   40 1     
   44    2   41 1     
   45   11   42 1     
   46   12   43 1     
   47   13   44 1     
   48    8   45 1     
   49    8   46 1     
   50   14   47 1     
   51   23   48 1     
   52   23   49 1     
@<TRIPOS>SUBSTRUCTURE
      1 noname         1
@<TRIPOS>SET
LONE_PAIRS      STATIC     ATOMS    <user>   **** ""
5 45 46 47 48 49
ATOM$BLUE        STATIC     ATOMS    COLORGROUP SYSTEM
5 45 46 47 48 49
@<TRIPOS>COMMENT
> <Gold.Version>
2022.3.0

> <Gold.Id.Protein>
unknown|6c5f_clean|pdb

> <Gold.Protein.ActiveResidues>
 LEU49   SER50   GLN58   ILE95   LEU96   ILE97   ARG98   PRO1    PHE2    LEU3   
 LEU30   LYS32   PRO33   ASP35   ARG36   VAL37   ASN38   ILE61   SER62   SER63  
 ILE64   GLY65   VAL66   VAL67   PHE100  LEU102  GLU103  SER104  TRP105  GLN106 
 ILE107  GLY108  LYS109  ILE110  THR112  VAL113  PRO1    GLN58   PHE2    LEU96  
 LEU30   LYS32   PRO33   PHE2    PRO1    PRO101  LEU102  GLU103  VAL37   ASN38  
 LEU49   SER50   ILE61   SER62   SER63   ILE64   ILE64   GLY65   VAL66   VAL67  
 PRO33   ARG36   VAL37   PRO1    SER104  TRP105  GLN106  ILE107  GLY108  LYS109 
 ILE110  PRO1    PHE2    LEU3    ILE110  VAL113  LEU96   ILE97   ARG98   PHE2   
 PRO1   

> <Gold.Score>
     Score     S(PLP)   S(hbond)     S(cho)   S(metal)  DE(clash)   DE(tors)     intcor
     61.22     -57.32       0.00       1.93       0.00       0.00       0.97       0.05

> <Gold.PLP.Fitness>
61.2157

> <Gold.PLP.PLP>
-57.3223

> <Gold.PLP.part.hbond>
0.0000

> <Gold.PLP.part.metal>
0.0000

> <Gold.PLP.part.buried>
-3.1175

> <Gold.PLP.part.nonpolar>
-55.3303

> <Gold.PLP.part.repulsive>
0.4231

> <Gold.PLP.ligand.clash>
0.0000

> <Gold.PLP.ligand.torsion>
0.9685

> <Gold.PLP.Chemscore.Hbond>
0.0000

> <Gold.PLP.Chemscore.CHOScore>
1.9261

> <Gold.PLP.Chemscore.Metal>
0.0000

> <Gold.Chemscore.Hbonds>
donor molecule, donor type, donor heavy atom, donor atom, acceptor molecule, acceptor atom, score
      L1  C    13    44       P1  2116  1.00
      L1  C    13    44       P1  2115  0.97

> <Gold.PLP.Chemscore.Internal.Correction>
0.0520

> <Gold.PLP.Reference.RMSD>
4.9097

> <Gold.Rescore>
     Score         DG    S(hbond)    S(metal)    S(lipo)     H(rot)  DE(clash)    DE(int)     intcor
     23.49     -25.67       0.00        0.00     202.50       1.37       0.21       1.98       ----

> <Gold.Chemscore.Fitness>
23.4868

> <Gold.Chemscore.DG>
-25.6708

> <Gold.Chemscore.ZeroCoef>
-5.4800

> <Gold.Chemscore.Hbond>
0.0000

> <Gold.Chemscore.Metal>
0.0000

> <Gold.Chemscore.Lipo>
202.5024

> <Gold.Chemscore.Internal_Hbond>
0.0000

> <Gold.Chemscore.DEClash>
0.2075

> <Gold.Chemscore.DEInternal>
1.9766

> <Gold.Chemscore.Rot>
1.3679

> <Gold.Chemscore.Internal.Correction>
   9.000000E+99

> <Gold.Chemscore.Reference.RMSD>
0.0000

> <Gold.Chemscore.Hbond.Weighted>
-0.0000

> <Gold.Chemscore.Metal.Weighted>
-0.0000

> <Gold.Chemscore.Lipo.Weighted>
-23.6928

> <Gold.Chemscore.Internal_Hbond.Weighted>
0.0000

> <Gold.Chemscore.DEClash.Weighted>
0.2075

> <Gold.Chemscore.DEInternal.Weighted>
1.9766

> <Gold.Chemscore.Rot.Weighted>
3.5019

> <Gold.Chemscore.Internal.Correction.Weighted>
   9.000000E+99

> <Gold.Reference.RMSD>
4.9097

#       Name:                00000001
#       Creating user name   hitesit
#       Creation time:       Thu Mar  2 16:48:40 2023


#       File generated by GOLD software.
#

@<TRIPOS>MOLECULE
00000001|prep_VS_1|mol2|1|dock2
    49    52     1
SMALL
USER_CHARGES


@<TRIPOS>ATOM
      1 C1         -39.3125 -41.2605   4.0926 C.2            1 noname            -0.0806
      2 C2         -38.0062 -41.2757   4.2800 C.2            1 noname            -0.0779
      3 N1         -37.1866 -41.6536   3.2234 N.am           1 noname             0.0248
      4 C3         -37.6962 -41.4632   1.8717 C.3            1 noname             0.1485
      5 C4         -39.1272 -42.0023   1.7896 C.2            1 noname             0.0779
      6 N2         -39.8739 -41.7580   2.9047 N.am           1 noname             0.0223
      7 C5         -41.3237 -42.0128   2.8750 C.3            1 noname             0.0144
      8 O1         -39.5512 -42.6350   0.8411 O.2            1 noname            -0.2820
      9 C6         -37.8559 -39.9641   1.5403 C.ar           1 noname             0.0167
     10 C7         -38.8206 -39.5110   0.6534 C.ar           1 noname            -0.0133
     11 C8         -38.9039 -38.1507   0.4100 C.ar           1 noname            -0.0379
     12 C9         -38.0362 -37.2902   1.0486 C.ar           1 noname            -0.0260
     13 C10        -37.1102 -37.8291   1.9146 C.ar           1 noname             0.0003
     14 N3         -37.0087 -39.1407   2.1678 N.ar           1 noname            -0.2412
     15 C11        -42.1487 -40.7428   3.0468 C.3            1 noname            -0.0142
     16 C12        -43.6145 -40.9851   2.7756 C.ar           1 noname            -0.0544
     17 C13        -44.1110 -40.9545   1.4809 C.ar           1 noname            -0.0569
     18 C14        -45.4558 -41.1739   1.2322 C.ar           1 noname            -0.0605
     19 C15        -46.3214 -41.4260   2.2758 C.ar           1 noname            -0.0616
     20 C16        -45.8409 -41.4580   3.5680 C.ar           1 noname            -0.0605
     21 C17        -44.4959 -41.2386   3.8159 C.ar           1 noname            -0.0569
     22 C18        -36.0370 -42.3984   3.2796 C.2            1 noname             0.0696
     23 O2         -35.5937 -42.8797   4.3227 O.2            1 noname            -0.2901
     24 C19        -36.6501 -42.1702   0.9895 C.3            1 noname            -0.0112
     25 C20        -35.7730 -42.9611   1.9210 C.3            1 noname             0.0244
     26 H1         -41.7772 -39.9737   2.3584 H              1 noname            -0.0142
     27 H2         -42.0318 -40.3615   4.0683 H              1 noname            -0.0142
     28 H3         -43.4381 -40.7564   0.6532 H              1 noname            -0.0569
     29 H4         -45.8292 -41.1472   0.2138 H              1 noname            -0.0605
     30 H5         -47.3749 -41.5980   2.0811 H              1 noname            -0.0616
     31 H6         -46.5179 -41.6557   4.3924 H              1 noname            -0.0605
     32 H7         -44.1275 -41.2653   4.8361 H              1 noname            -0.0569
     33 H8         -41.5798 -42.7174   3.6759 H              1 noname             0.0144
     34 H9         -41.6043 -42.4796   1.9233 H              1 noname             0.0144
     35 H10        -39.4939 -40.2057   0.1621 H              1 noname            -0.0133
     36 H11        -36.0570 -41.4356   0.4468 H              1 noname            -0.0112
     37 H12        -37.1423 -42.8346   0.2809 H              1 noname            -0.0112
     38 H13        -36.0351 -44.0175   1.8876 H              1 noname             0.0244
     39 H14        -34.7243 -42.8386   1.6542 H              1 noname             0.0244
     40 H15        -39.9627 -40.8576   4.8678 H              1 noname            -0.0806
     41 H16        -37.5795 -40.9980   5.2426 H              1 noname            -0.0779
     42 H17        -39.6474 -37.7640  -0.2790 H              1 noname            -0.0379
     43 H18        -38.0814 -36.2203   0.8743 H              1 noname            -0.0260
     44 H19        -36.4260 -37.1546   2.4189 H              1 noname             0.0003
     45 ****       -38.9552 -42.8270   0.0614 LP             1 noname             0.0000
     46 ****       -40.4959 -42.9631   0.8410 LP             1 noname             0.0000
     47 ****       -36.3225 -39.4925   2.8046 LP             1 noname             0.0000
     48 ****       -36.0778 -42.7344   5.1856 LP             1 noname             0.0000
     49 ****       -34.7497 -43.4157   4.3069 LP             1 noname             0.0000
@<TRIPOS>BOND
    1    1    2 2     
    2    6    1 1     
    3    2    3 1     
    4    3    4 1     
    5    3   22 am    
    6    4    5 1     
    7    4    9 1     
    8    4   24 1     
    9    5    6 am    
   10    5    8 2     
   11    6    7 1     
   12    7   15 1     
   13    9   10 ar    
   14   14    9 ar    
   15   10   11 ar    
   16   11   12 ar    
   17   12   13 ar    
   18   13   14 ar    
   19   15   16 1     
   20   16   17 ar    
   21   21   16 ar    
   22   17   18 ar    
   23   18   19 ar    
   24   19   20 ar    
   25   20   21 ar    
   26   22   23 2     
   27   25   22 1     
   28   24   25 1     
   29   15   26 1     
   30   15   27 1     
   31   17   28 1     
   32   18   29 1     
   33   19   30 1     
   34   20   31 1     
   35   21   32 1     
   36    7   33 1     
   37    7   34 1     
   38   10   35 1     
   39   24   36 1     
   40   24   37 1     
   41   25   38 1     
   42   25   39 1     
   43    1   40 1     
   44    2   41 1     
   45   11   42 1     
   46   12   43 1     
   47   13   44 1     
   48    8   45 1     
   49    8   46 1     
   50   14   47 1     
   51   23   48 1     
   52   23   49 1     
@<TRIPOS>SUBSTRUCTURE
      1 noname         1
@<TRIPOS>SET
LONE_PAIRS      STATIC     ATOMS    <user>   **** ""
5 45 46 47 48 49
ATOM$BLUE        STATIC     ATOMS    COLORGROUP SYSTEM
5 45 46 47 48 49
@<TRIPOS>COMMENT
> <Gold.Version>
2022.3.0

> <Gold.Id.Protein>
unknown|6c5f_clean|pdb

> <Gold.Protein.ActiveResidues>
 LEU49   SER50   GLN58   ILE95   LEU96   ILE97   ARG98   PRO1    PHE2    LEU3   
 LEU30   LYS32   PRO33   ASP35   ARG36   VAL37   ASN38   ILE61   SER62   SER63  
 ILE64   GLY65   VAL66   VAL67   PHE100  LEU102  GLU103  SER104  TRP105  GLN106 
 ILE107  GLY108  LYS109  ILE110  THR112  VAL113  PRO1    GLN58   PHE2    LEU96  
 LEU30   LYS32   PRO33   PHE2    PRO1    PRO101  LEU102  GLU103  VAL37   ASN38  
 LEU49   SER50   ILE61   SER62   SER63   ILE64   ILE64   GLY65   VAL66   VAL67  
 PRO33   ARG36   VAL37   PRO1    SER104  TRP105  GLN106  ILE107  GLY108  LYS109 
 ILE110  PRO1    PHE2    LEU3    ILE110  VAL113  LEU96   ILE97   ARG98   PHE2   
 PRO1   

> <Gold.Score>
     Score     S(PLP)   S(hbond)     S(cho)   S(metal)  DE(clash)   DE(tors)     intcor
     60.84     -57.70       0.00       2.00       0.00       0.00       1.48       0.10

> <Gold.PLP.Fitness>
60.8351

> <Gold.PLP.PLP>
-57.6996

> <Gold.PLP.part.hbond>
0.0000

> <Gold.PLP.part.metal>
0.0000

> <Gold.PLP.part.buried>
-0.4955

> <Gold.PLP.part.nonpolar>
-57.4886

> <Gold.PLP.part.repulsive>
0.4511

> <Gold.PLP.ligand.clash>
0.0000

> <Gold.PLP.ligand.torsion>
1.4827

> <Gold.PLP.Chemscore.Hbond>
0.0000

> <Gold.PLP.Chemscore.CHOScore>
2.0000

> <Gold.PLP.Chemscore.Metal>
0.0000

> <Gold.Chemscore.Hbonds>
donor molecule, donor type, donor heavy atom, donor atom, acceptor molecule, acceptor atom, score
      L1  C    13    44       P1  2116  1.00
      L1  C    13    44       P1  2115  1.00

> <Gold.PLP.Chemscore.Internal.Correction>
0.1010

> <Gold.PLP.Reference.RMSD>
4.9342

> <Gold.Rescore>
     Score         DG    S(hbond)    S(metal)    S(lipo)     H(rot)  DE(clash)    DE(int)     intcor
     23.78     -25.34       0.00        0.00     199.67       1.37       0.45       1.11       ----

> <Gold.Chemscore.Fitness>
23.7753

> <Gold.Chemscore.DG>
-25.3399

> <Gold.Chemscore.ZeroCoef>
-5.4800

> <Gold.Chemscore.Hbond>
0.0000

> <Gold.Chemscore.Metal>
0.0000

> <Gold.Chemscore.Lipo>
199.6738

> <Gold.Chemscore.Internal_Hbond>
0.0000

> <Gold.Chemscore.DEClash>
0.4505

> <Gold.Chemscore.DEInternal>
1.1141

> <Gold.Chemscore.Rot>
1.3679

> <Gold.Chemscore.Internal.Correction>
   9.000000E+99

> <Gold.Chemscore.Reference.RMSD>
0.0000

> <Gold.Chemscore.Hbond.Weighted>
-0.0000

> <Gold.Chemscore.Metal.Weighted>
-0.0000

> <Gold.Chemscore.Lipo.Weighted>
-23.3618

> <Gold.Chemscore.Internal_Hbond.Weighted>
0.0000

> <Gold.Chemscore.DEClash.Weighted>
0.4505

> <Gold.Chemscore.DEInternal.Weighted>
1.1141

> <Gold.Chemscore.Rot.Weighted>
3.5019

> <Gold.Chemscore.Internal.Correction.Weighted>
   9.000000E+99

> <Gold.Reference.RMSD>
4.9342

#       Name:                00000001
#       Creating user name   hitesit
#       Creation time:       Thu Mar  2 16:48:44 2023


#       File generated by GOLD software.
#

@<TRIPOS>MOLECULE
00000001|prep_VS_1|mol2|1|dock7
    49    52     1
SMALL
USER_CHARGES


@<TRIPOS>ATOM
      1 C1         -39.2608 -41.1206   4.0729 C.2            1 noname            -0.0806
      2 C2         -37.9553 -41.1094   4.2661 C.2            1 noname            -0.0779
      3 N1         -37.1243 -41.4878   3.2187 N.am           1 noname             0.0248
      4 C3         -37.6311 -41.3265   1.8622 C.3            1 noname             0.1485
      5 C4         -39.0517 -41.8925   1.7818 C.2            1 noname             0.0779
      6 N2         -39.8077 -41.6455   2.8901 N.am           1 noname             0.0223
      7 C5         -41.2526 -41.9270   2.8579 C.3            1 noname             0.0144
      8 O1         -39.4600 -42.5466   0.8409 O.2            1 noname            -0.2820
      9 C6         -37.8163 -39.8355   1.5081 C.ar           1 noname             0.0167
     10 C7         -36.7830 -38.9202   1.6386 C.ar           1 noname            -0.0133
     11 C8         -37.0258 -37.6005   1.2976 C.ar           1 noname            -0.0379
     12 C9         -38.2741 -37.2336   0.8415 C.ar           1 noname            -0.0260
     13 C10        -39.2403 -38.2106   0.7427 C.ar           1 noname             0.0003
     14 N3         -39.0316 -39.4938   1.0657 N.ar           1 noname            -0.2412
     15 C11        -42.1011 -40.6728   3.0317 C.3            1 noname            -0.0142
     16 C12        -43.5740 -40.9655   2.8718 C.ar           1 noname            -0.0544
     17 C13        -44.4617 -40.7272   3.9105 C.ar           1 noname            -0.0569
     18 C14        -45.8122 -40.9982   3.7650 C.ar           1 noname            -0.0605
     19 C15        -46.2919 -41.5120   2.5786 C.ar           1 noname            -0.0616
     20 C16        -45.4198 -41.7548   1.5382 C.ar           1 noname            -0.0605
     21 C17        -44.0694 -41.4834   1.6845 C.ar           1 noname            -0.0569
     22 C18        -35.9617 -42.2108   3.2907 C.2            1 noname             0.0696
     23 O2         -35.5145 -42.6687   4.3426 O.2            1 noname            -0.2901
     24 C19        -36.5684 -42.0272   0.9949 C.3            1 noname            -0.0112
     25 C20        -35.6814 -42.7884   1.9417 C.3            1 noname             0.0244
     26 H1         -41.7993 -39.9254   2.2876 H              1 noname            -0.0142
     27 H2         -41.9271 -40.2437   4.0257 H              1 noname            -0.0142
     28 H3         -44.0938 -40.3236   4.8481 H              1 noname            -0.0569
     29 H4         -46.4943 -40.8060   4.5865 H              1 noname            -0.0605
     30 H5         -47.3498 -41.7243   2.4643 H              1 noname            -0.0616
     31 H6         -45.7923 -42.1592   0.6029 H              1 noname            -0.0605
     32 H7         -43.3911 -41.6783   0.8603 H              1 noname            -0.0569
     33 H8         -41.4966 -42.6380   3.6568 H              1 noname             0.0144
     34 H9         -41.5234 -42.3966   1.9048 H              1 noname             0.0144
     35 H10        -35.8078 -39.2306   1.9990 H              1 noname            -0.0133
     36 H11        -35.9862 -41.2900   0.4440 H              1 noname            -0.0112
     37 H12        -37.0453 -42.7107   0.2940 H              1 noname            -0.0112
     38 H13        -35.9242 -43.8497   1.9226 H              1 noname             0.0244
     39 H14        -34.6339 -42.6508   1.6776 H              1 noname             0.0244
     40 H15        -39.9217 -40.7183   4.8393 H              1 noname            -0.0806
     41 H16        -37.5380 -40.8100   5.2264 H              1 noname            -0.0779
     42 H17        -36.2385 -36.8595   1.3888 H              1 noname            -0.0379
     43 H18        -38.4891 -36.2058   0.5683 H              1 noname            -0.0260
     44 H19        -40.2238 -37.9251   0.3839 H              1 noname             0.0003
     45 ****       -38.8570 -42.7391   0.0667 LP             1 noname             0.0000
     46 ****       -40.3985 -42.8917   0.8417 LP             1 noname             0.0000
     47 ****       -39.7599 -40.1736   0.9789 LP             1 noname             0.0000
     48 ****       -36.0050 -42.5196   5.2012 LP             1 noname             0.0000
     49 ****       -34.6609 -43.1895   4.3383 LP             1 noname             0.0000
@<TRIPOS>BOND
    1    1    2 2     
    2    6    1 1     
    3    2    3 1     
    4    3    4 1     
    5    3   22 am    
    6    4    5 1     
    7    4    9 1     
    8    4   24 1     
    9    5    6 am    
   10    5    8 2     
   11    6    7 1     
   12    7   15 1     
   13    9   10 ar    
   14   14    9 ar    
   15   10   11 ar    
   16   11   12 ar    
   17   12   13 ar    
   18   13   14 ar    
   19   15   16 1     
   20   16   17 ar    
   21   21   16 ar    
   22   17   18 ar    
   23   18   19 ar    
   24   19   20 ar    
   25   20   21 ar    
   26   22   23 2     
   27   25   22 1     
   28   24   25 1     
   29   15   26 1     
   30   15   27 1     
   31   17   28 1     
   32   18   29 1     
   33   19   30 1     
   34   20   31 1     
   35   21   32 1     
   36    7   33 1     
   37    7   34 1     
   38   10   35 1     
   39   24   36 1     
   40   24   37 1     
   41   25   38 1     
   42   25   39 1     
   43    1   40 1     
   44    2   41 1     
   45   11   42 1     
   46   12   43 1     
   47   13   44 1     
   48    8   45 1     
   49    8   46 1     
   50   14   47 1     
   51   23   48 1     
   52   23   49 1     
@<TRIPOS>SUBSTRUCTURE
      1 noname         1
@<TRIPOS>SET
LONE_PAIRS      STATIC     ATOMS    <user>   **** ""
5 45 46 47 48 49
ATOM$BLUE        STATIC     ATOMS    COLORGROUP SYSTEM
5 45 46 47 48 49
@<TRIPOS>COMMENT
> <Gold.Version>
2022.3.0

> <Gold.Id.Protein>
unknown|6c5f_clean|pdb

> <Gold.Protein.ActiveResidues>
 LEU49   SER50   GLN58   ILE95   LEU96   ILE97   ARG98   PRO1    PHE2    LEU3   
 LEU30   LYS32   PRO33   ASP35   ARG36   VAL37   ASN38   ILE61   SER62   SER63  
 ILE64   GLY65   VAL66   VAL67   PHE100  LEU102  GLU103  SER104  TRP105  GLN106 
 ILE107  GLY108  LYS109  ILE110  THR112  VAL113  PRO1    GLN58   PHE2    LEU96  
 LEU30   LYS32   PRO33   PHE2    PRO1    PRO101  LEU102  GLU103  VAL37   ASN38  
 LEU49   SER50   ILE61   SER62   SER63   ILE64   ILE64   GLY65   VAL66   VAL67  
 PRO33   ARG36   VAL37   PRO1    SER104  TRP105  GLN106  ILE107  GLY108  LYS109 
 ILE110  PRO1    PHE2    LEU3    ILE110  VAL113  LEU96   ILE97   ARG98   PHE2   
 PRO1   

> <Gold.Score>
     Score     S(PLP)   S(hbond)     S(cho)   S(metal)  DE(clash)   DE(tors)     intcor
     60.14     -60.35       0.00       0.00       0.00       0.00       0.13       0.05

> <Gold.PLP.Fitness>
60.1383

> <Gold.PLP.PLP>
-60.3507

> <Gold.PLP.part.hbond>
0.0000

> <Gold.PLP.part.metal>
0.0000

> <Gold.PLP.part.buried>
1.2136

> <Gold.PLP.part.nonpolar>
-60.3435

> <Gold.PLP.part.repulsive>
0.2142

> <Gold.PLP.ligand.clash>
0.0000

> <Gold.PLP.ligand.torsion>
0.1322

> <Gold.PLP.Chemscore.Hbond>
0.0000

> <Gold.PLP.Chemscore.CHOScore>
0.0000

> <Gold.PLP.Chemscore.Metal>
0.0000

> <Gold.PLP.Chemscore.Internal.Correction>
0.0520

> <Gold.PLP.Reference.RMSD>
4.9244

> <Gold.Rescore>
     Score         DG    S(hbond)    S(metal)    S(lipo)     H(rot)  DE(clash)    DE(int)     intcor
     24.73     -27.13       0.00        0.00     214.96       1.37       1.04       1.36       ----

> <Gold.Chemscore.Fitness>
24.7260

> <Gold.Chemscore.DG>
-27.1283

> <Gold.Chemscore.ZeroCoef>
-5.4800

> <Gold.Chemscore.Hbond>
0.0000

> <Gold.Chemscore.Metal>
0.0000

> <Gold.Chemscore.Lipo>
214.9596

> <Gold.Chemscore.Internal_Hbond>
0.0000

> <Gold.Chemscore.DEClash>
1.0434

> <Gold.Chemscore.DEInternal>
1.3589

> <Gold.Chemscore.Rot>
1.3679

> <Gold.Chemscore.Internal.Correction>
   9.000000E+99

> <Gold.Chemscore.Reference.RMSD>
0.0000

> <Gold.Chemscore.Hbond.Weighted>
-0.0000

> <Gold.Chemscore.Metal.Weighted>
-0.0000

> <Gold.Chemscore.Lipo.Weighted>
-25.1503

> <Gold.Chemscore.Internal_Hbond.Weighted>
0.0000

> <Gold.Chemscore.DEClash.Weighted>
1.0434

> <Gold.Chemscore.DEInternal.Weighted>
1.3589

> <Gold.Chemscore.Rot.Weighted>
3.5019

> <Gold.Chemscore.Internal.Correction.Weighted>
   9.000000E+99

> <Gold.Reference.RMSD>
4.9244

#       Name:                00000001
#       Creating user name   hitesit
#       Creation time:       Thu Mar  2 16:48:41 2023


#       File generated by GOLD software.
#

@<TRIPOS>MOLECULE
00000001|prep_VS_1|mol2|1|dock3
    49    52     1
SMALL
USER_CHARGES


@<TRIPOS>ATOM
      1 C1         -39.5723 -41.1712   3.8587 C.2            1 noname            -0.0806
      2 C2         -38.2840 -41.1003   4.1366 C.2            1 noname            -0.0779
      3 N1         -37.3707 -41.4774   3.1596 N.am           1 noname             0.0248
      4 C3         -37.7915 -41.3802   1.7680 C.3            1 noname             0.1485
      5 C4         -39.1804 -42.0063   1.6142 C.2            1 noname             0.0779
      6 N2         -40.0180 -41.7555   2.6613 N.am           1 noname             0.0223
      7 C5         -41.4454 -42.0969   2.5441 C.3            1 noname             0.0144
      8 O1         -39.4991 -42.7062   0.6716 O.2            1 noname            -0.2820
      9 C6         -38.0103 -39.9101   1.3514 C.ar           1 noname             0.0167
     10 C7         -38.9358 -39.5560   0.3815 C.ar           1 noname            -0.0133
     11 C8         -39.0769 -38.2157   0.0647 C.ar           1 noname            -0.0379
     12 C9         -38.3033 -37.2772   0.7142 C.ar           1 noname            -0.0260
     13 C10        -37.4103 -37.7202   1.6651 C.ar           1 noname             0.0003
     14 N3         -37.2543 -39.0103   1.9905 N.ar           1 noname            -0.2412
     15 C11        -42.3612 -40.9487   2.9518 C.3            1 noname            -0.0142
     16 C12        -43.8190 -41.3159   2.8083 C.ar           1 noname            -0.0544
     17 C13        -44.1929 -42.5694   2.3476 C.ar           1 noname            -0.0569
     18 C14        -45.5299 -42.9054   2.2131 C.ar           1 noname            -0.0605
     19 C15        -46.5101 -41.9911   2.5372 C.ar           1 noname            -0.0616
     20 C16        -46.1519 -40.7407   2.9953 C.ar           1 noname            -0.0605
     21 C17        -44.8147 -40.4054   3.1295 C.ar           1 noname            -0.0569
     22 C18        -36.1884 -42.1495   3.3326 C.2            1 noname             0.0696
     23 O2         -35.7952 -42.5549   4.4268 O.2            1 noname            -0.2901
     24 C19        -36.6466 -42.0640   0.9970 C.3            1 noname            -0.0112
     25 C20        -35.7962 -42.7576   2.0256 C.3            1 noname             0.0244
     26 H1         -42.1464 -40.0742   2.3252 H              1 noname            -0.0142
     27 H2         -42.1629 -40.6699   3.9937 H              1 noname            -0.0142
     28 H3         -43.4291 -43.2955   2.0894 H              1 noname            -0.0569
     29 H4         -45.8068 -43.8904   1.8519 H              1 noname            -0.0605
     30 H5         -47.5575 -42.2541   2.4321 H              1 noname            -0.0616
     31 H6         -46.9194 -40.0177   3.2513 H              1 noname            -0.0605
     32 H7         -44.5429 -39.4189   3.4903 H              1 noname            -0.0569
     33 H8         -41.6585 -42.9670   3.1771 H              1 noname             0.0144
     34 H9         -41.6820 -42.3757   1.5104 H              1 noname             0.0144
     35 H10        -39.5348 -40.3109  -0.1170 H              1 noname            -0.0133
     36 H11        -36.0580 -41.3214   0.4604 H              1 noname            -0.0112
     37 H12        -37.0487 -42.7884   0.2903 H              1 noname            -0.0112
     38 H13        -35.9957 -43.8281   2.0272 H              1 noname             0.0244
     39 H14        -34.7395 -42.5857   1.8262 H              1 noname             0.0244
     40 H15        -40.2981 -40.7722   4.5657 H              1 noname            -0.0806
     41 H16        -37.9439 -40.7537   5.1113 H              1 noname            -0.0779
     42 H17        -39.7919 -37.9057  -0.6902 H              1 noname            -0.0379
     43 H18        -38.3953 -36.2211   0.4834 H              1 noname            -0.0260
     44 H19        -36.8002 -36.9841   2.1782 H              1 noname             0.0003
     45 ****       -38.8387 -42.8984  -0.0543 LP             1 noname             0.0000
     46 ****       -40.4215 -43.0894   0.6227 LP             1 noname             0.0000
     47 ****       -36.5949 -39.2913   2.6878 LP             1 noname             0.0000
     48 ****       -36.3474 -42.3989   5.2457 LP             1 noname             0.0000
     49 ****       -34.9236 -43.0401   4.4964 LP             1 noname             0.0000
@<TRIPOS>BOND
    1    1    2 2     
    2    6    1 1     
    3    2    3 1     
    4    3    4 1     
    5    3   22 am    
    6    4    5 1     
    7    4    9 1     
    8    4   24 1     
    9    5    6 am    
   10    5    8 2     
   11    6    7 1     
   12    7   15 1     
   13    9   10 ar    
   14   14    9 ar    
   15   10   11 ar    
   16   11   12 ar    
   17   12   13 ar    
   18   13   14 ar    
   19   15   16 1     
   20   16   17 ar    
   21   21   16 ar    
   22   17   18 ar    
   23   18   19 ar    
   24   19   20 ar    
   25   20   21 ar    
   26   22   23 2     
   27   25   22 1     
   28   24   25 1     
   29   15   26 1     
   30   15   27 1     
   31   17   28 1     
   32   18   29 1     
   33   19   30 1     
   34   20   31 1     
   35   21   32 1     
   36    7   33 1     
   37    7   34 1     
   38   10   35 1     
   39   24   36 1     
   40   24   37 1     
   41   25   38 1     
   42   25   39 1     
   43    1   40 1     
   44    2   41 1     
   45   11   42 1     
   46   12   43 1     
   47   13   44 1     
   48    8   45 1     
   49    8   46 1     
   50   14   47 1     
   51   23   48 1     
   52   23   49 1     
@<TRIPOS>SUBSTRUCTURE
      1 noname         1
@<TRIPOS>SET
LONE_PAIRS      STATIC     ATOMS    <user>   **** ""
5 45 46 47 48 49
ATOM$BLUE        STATIC     ATOMS    COLORGROUP SYSTEM
5 45 46 47 48 49
@<TRIPOS>COMMENT
> <Gold.Version>
2022.3.0

> <Gold.Id.Protein>
unknown|6c5f_clean|pdb

> <Gold.Protein.ActiveResidues>
 LEU49   SER50   GLN58   ILE95   LEU96   ILE97   ARG98   PRO1    PHE2    LEU3   
 LEU30   LYS32   PRO33   ASP35   ARG36   VAL37   ASN38   ILE61   SER62   SER63  
 ILE64   GLY65   VAL66   VAL67   PHE100  LEU102  GLU103  SER104  TRP105  GLN106 
 ILE107  GLY108  LYS109  ILE110  THR112  VAL113  PRO1    GLN58   PHE2    LEU96  
 LEU30   LYS32   PRO33   PHE2    PRO1    PRO101  LEU102  GLU103  VAL37   ASN38  
 LEU49   SER50   ILE61   SER62   SER63   ILE64   ILE64   GLY65   VAL66   VAL67  
 PRO33   ARG36   VAL37   PRO1    SER104  TRP105  GLN106  ILE107  GLY108  LYS109 
 ILE110  PRO1    PHE2    LEU3    ILE110  VAL113  LEU96   ILE97   ARG98   PHE2   
 PRO1   

> <Gold.Score>
     Score     S(PLP)   S(hbond)     S(cho)   S(metal)  DE(clash)   DE(tors)     intcor
     58.03     -54.40       0.00       2.00       0.00       0.00       1.21       0.05

> <Gold.PLP.Fitness>
58.0324

> <Gold.PLP.PLP>
-54.4025

> <Gold.PLP.part.hbond>
0.0000

> <Gold.PLP.part.metal>
0.0000

> <Gold.PLP.part.buried>
1.6851

> <Gold.PLP.part.nonpolar>
-56.2580

> <Gold.PLP.part.repulsive>
0.4430

> <Gold.PLP.ligand.clash>
0.0000

> <Gold.PLP.ligand.torsion>
1.2110

> <Gold.PLP.Chemscore.Hbond>
0.0000

> <Gold.PLP.Chemscore.CHOScore>
2.0000

> <Gold.PLP.Chemscore.Metal>
0.0000

> <Gold.Chemscore.Hbonds>
donor molecule, donor type, donor heavy atom, donor atom, acceptor molecule, acceptor atom, score
      L1  C    13    44       P1  2116  1.00
      L1  C    13    44       P1  2115  1.00

> <Gold.PLP.Chemscore.Internal.Correction>
0.0520

> <Gold.PLP.Reference.RMSD>
4.8907

> <Gold.Rescore>
     Score         DG    S(hbond)    S(metal)    S(lipo)     H(rot)  DE(clash)    DE(int)     intcor
     23.94     -24.89       0.00        0.00     195.79       1.37       0.05       0.89       ----

> <Gold.Chemscore.Fitness>
23.9428

> <Gold.Chemscore.DG>
-24.8855

> <Gold.Chemscore.ZeroCoef>
-5.4800

> <Gold.Chemscore.Hbond>
0.0000

> <Gold.Chemscore.Metal>
0.0000

> <Gold.Chemscore.Lipo>
195.7902

> <Gold.Chemscore.Internal_Hbond>
0.0000

> <Gold.Chemscore.DEClash>
0.0530

> <Gold.Chemscore.DEInternal>
0.8897

> <Gold.Chemscore.Rot>
1.3679

> <Gold.Chemscore.Internal.Correction>
   9.000000E+99

> <Gold.Chemscore.Reference.RMSD>
0.0000

> <Gold.Chemscore.Hbond.Weighted>
-0.0000

> <Gold.Chemscore.Metal.Weighted>
-0.0000

> <Gold.Chemscore.Lipo.Weighted>
-22.9075

> <Gold.Chemscore.Internal_Hbond.Weighted>
0.0000

> <Gold.Chemscore.DEClash.Weighted>
0.0530

> <Gold.Chemscore.DEInternal.Weighted>
0.8897

> <Gold.Chemscore.Rot.Weighted>
3.5019

> <Gold.Chemscore.Internal.Correction.Weighted>
   9.000000E+99

> <Gold.Reference.RMSD>
4.8907

#       Name:                00000001
#       Creating user name   hitesit
#       Creation time:       Thu Mar  2 16:48:42 2023


#       File generated by GOLD software.
#

@<TRIPOS>MOLECULE
00000001|prep_VS_1|mol2|1|dock4
    49    52     1
SMALL
USER_CHARGES


@<TRIPOS>ATOM
      1 C1         -41.3082 -40.7679   3.0075 C.2            1 noname            -0.0806
      2 C2         -40.2103 -41.1189   3.6503 C.2            1 noname            -0.0779
      3 N1         -39.1650 -41.6785   2.9257 N.am           1 noname             0.0248
      4 C3         -39.0695 -41.3451   1.5106 C.3            1 noname             0.1485
      5 C4         -40.4471 -41.4995   0.8600 C.2            1 noname             0.0779
      6 N2         -41.4800 -41.0886   1.6505 N.am           1 noname             0.0223
      7 C5         -42.8286 -40.9641   1.0726 C.3            1 noname             0.0144
      8 O1         -40.6172 -41.9894  -0.2404 O.2            1 noname            -0.2820
      9 C6         -38.7410 -39.8504   1.3092 C.ar           1 noname             0.0167
     10 C7         -39.4792 -39.0496   0.4511 C.ar           1 noname            -0.0133
     11 C8         -39.1250 -37.7171   0.3264 C.ar           1 noname            -0.0379
     12 C9         -38.0599 -37.2249   1.0506 C.ar           1 noname            -0.0260
     13 C10        -37.3844 -38.0931   1.8799 C.ar           1 noname             0.0003
     14 N3         -37.7065 -39.3860   2.0189 N.ar           1 noname            -0.2412
     15 C11        -43.8972 -40.6898   2.1243 C.3            1 noname            -0.0142
     16 C12        -44.9539 -41.7686   2.1448 C.ar           1 noname            -0.0544
     17 C13        -44.6119 -43.0925   2.3772 C.ar           1 noname            -0.0569
     18 C14        -45.5805 -44.0825   2.3933 C.ar           1 noname            -0.0605
     19 C15        -46.9037 -43.7607   2.1761 C.ar           1 noname            -0.0616
     20 C16        -47.2572 -42.4484   1.9426 C.ar           1 noname            -0.0605
     21 C17        -46.2880 -41.4589   1.9268 C.ar           1 noname            -0.0569
     22 C18        -38.3272 -42.6930   3.3110 C.2            1 noname             0.0696
     23 O2         -38.4334 -43.2863   4.3847 O.2            1 noname            -0.2901
     24 C19        -37.9627 -42.2832   0.9934 C.3            1 noname            -0.0112
     25 C20        -37.7095 -43.2851   2.0863 C.3            1 noname             0.0244
     26 H1         -44.3725 -39.7237   1.9141 H              1 noname            -0.0142
     27 H2         -43.4324 -40.6249   3.1154 H              1 noname            -0.0142
     28 H3         -43.5733 -43.3557   2.5486 H              1 noname            -0.0569
     29 H4         -45.2974 -45.1136   2.5770 H              1 noname            -0.0605
     30 H5         -47.6627 -44.5360   2.1887 H              1 noname            -0.0616
     31 H6         -48.2969 -42.1902   1.7709 H              1 noname            -0.0605
     32 H7         -46.5760 -40.4293   1.7416 H              1 noname            -0.0569
     33 H8         -43.0777 -41.8915   0.5423 H              1 noname             0.0144
     34 H9         -42.8500 -40.1493   0.3393 H              1 noname             0.0144
     35 H10        -40.3142 -39.4574  -0.1091 H              1 noname            -0.0133
     36 H11        -37.0564 -41.7169   0.7843 H              1 noname            -0.0112
     37 H12        -38.2915 -42.7897   0.0871 H              1 noname            -0.0112
     38 H13        -38.1765 -44.2389   1.8458 H              1 noname             0.0244
     39 H14        -36.6399 -43.4308   2.2305 H              1 noname             0.0244
     40 H15        -42.0899 -40.2233   3.5351 H              1 noname            -0.0806
     41 H16        -40.1254 -40.9731   4.7261 H              1 noname            -0.0779
     42 H17        -39.6821 -37.0640  -0.3372 H              1 noname            -0.0379
     43 H18        -37.7628 -36.1845   0.9700 H              1 noname            -0.0260
     44 H19        -36.5458 -37.7088   2.4513 H              1 noname             0.0003
     45 ****       -39.8336 -42.3162  -0.7688 LP             1 noname             0.0000
     46 ****       -41.5406 -42.0653  -0.6167 LP             1 noname             0.0000
     47 ****       -37.1908 -39.9839   2.6326 LP             1 noname             0.0000
     48 ****       -39.1587 -43.0346   5.0255 LP             1 noname             0.0000
     49 ****       -37.7944 -44.0199   4.6160 LP             1 noname             0.0000
@<TRIPOS>BOND
    1    1    2 2     
    2    6    1 1     
    3    2    3 1     
    4    3    4 1     
    5    3   22 am    
    6    4    5 1     
    7    4    9 1     
    8    4   24 1     
    9    5    6 am    
   10    5    8 2     
   11    6    7 1     
   12    7   15 1     
   13    9   10 ar    
   14   14    9 ar    
   15   10   11 ar    
   16   11   12 ar    
   17   12   13 ar    
   18   13   14 ar    
   19   15   16 1     
   20   16   17 ar    
   21   21   16 ar    
   22   17   18 ar    
   23   18   19 ar    
   24   19   20 ar    
   25   20   21 ar    
   26   22   23 2     
   27   25   22 1     
   28   24   25 1     
   29   15   26 1     
   30   15   27 1     
   31   17   28 1     
   32   18   29 1     
   33   19   30 1     
   34   20   31 1     
   35   21   32 1     
   36    7   33 1     
   37    7   34 1     
   38   10   35 1     
   39   24   36 1     
   40   24   37 1     
   41   25   38 1     
   42   25   39 1     
   43    1   40 1     
   44    2   41 1     
   45   11   42 1     
   46   12   43 1     
   47   13   44 1     
   48    8   45 1     
   49    8   46 1     
   50   14   47 1     
   51   23   48 1     
   52   23   49 1     
@<TRIPOS>SUBSTRUCTURE
      1 noname         1
@<TRIPOS>SET
LONE_PAIRS      STATIC     ATOMS    <user>   **** ""
5 45 46 47 48 49
ATOM$BLUE        STATIC     ATOMS    COLORGROUP SYSTEM
5 45 46 47 48 49
@<TRIPOS>COMMENT
> <Gold.Version>
2022.3.0

> <Gold.Id.Protein>
unknown|6c5f_clean|pdb

> <Gold.Protein.ActiveResidues>
 LEU49   SER50   GLN58   ILE95   LEU96   ILE97   ARG98   PRO1    PHE2    LEU3   
 LEU30   LYS32   PRO33   ASP35   ARG36   VAL37   ASN38   ILE61   SER62   SER63  
 ILE64   GLY65   VAL66   VAL67   PHE100  LEU102  GLU103  SER104  TRP105  GLN106 
 ILE107  GLY108  LYS109  ILE110  THR112  VAL113  PRO1    GLN58   PHE2    LEU96  
 LEU30   LYS32   PRO33   PHE2    PRO1    PRO101  LEU102  GLU103  VAL37   ASN38  
 LEU49   SER50   ILE61   SER62   SER63   ILE64   ILE64   GLY65   VAL66   VAL67  
 PRO33   ARG36   VAL37   PRO1    SER104  TRP105  GLN106  ILE107  GLY108  LYS109 
 ILE110  PRO1    PHE2    LEU3    ILE110  VAL113  LEU96   ILE97   ARG98   PHE2   
 PRO1   

> <Gold.Score>
     Score     S(PLP)   S(hbond)     S(cho)   S(metal)  DE(clash)   DE(tors)     intcor
     56.42     -55.81       0.00       1.83       0.00       3.50       0.72       0.05

> <Gold.PLP.Fitness>
56.4236

> <Gold.PLP.PLP>
-55.8085

> <Gold.PLP.part.hbond>
0.0000

> <Gold.PLP.part.metal>
0.0000

> <Gold.PLP.part.buried>
-3.0129

> <Gold.PLP.part.nonpolar>
-52.9871

> <Gold.PLP.part.repulsive>
0.2511

> <Gold.PLP.ligand.clash>
3.5024

> <Gold.PLP.ligand.torsion>
0.7168

> <Gold.PLP.Chemscore.Hbond>
0.0000

> <Gold.PLP.Chemscore.CHOScore>
1.8330

> <Gold.PLP.Chemscore.Metal>
0.0000

> <Gold.Chemscore.Hbonds>
donor molecule, donor type, donor heavy atom, donor atom, acceptor molecule, acceptor atom, score
      L1  C    13    44       P1  2116  0.82
      L1  C    13    44       P1  2115  1.00

> <Gold.PLP.Chemscore.Internal.Correction>
0.0520

> <Gold.PLP.Reference.RMSD>
5.1212

> <Gold.Rescore>
     Score         DG    S(hbond)    S(metal)    S(lipo)     H(rot)  DE(clash)    DE(int)     intcor
     23.00     -24.42       0.00        0.00     191.78       1.37       0.11       1.30       ----

> <Gold.Chemscore.Fitness>
23.0007

> <Gold.Chemscore.DG>
-24.4158

> <Gold.Chemscore.ZeroCoef>
-5.4800

> <Gold.Chemscore.Hbond>
0.0000

> <Gold.Chemscore.Metal>
0.0000

> <Gold.Chemscore.Lipo>
191.7755

> <Gold.Chemscore.Internal_Hbond>
0.0000

> <Gold.Chemscore.DEClash>
0.1124

> <Gold.Chemscore.DEInternal>
1.3027

> <Gold.Chemscore.Rot>
1.3679

> <Gold.Chemscore.Internal.Correction>
   9.000000E+99

> <Gold.Chemscore.Reference.RMSD>
0.0000

> <Gold.Chemscore.Hbond.Weighted>
-0.0000

> <Gold.Chemscore.Metal.Weighted>
-0.0000

> <Gold.Chemscore.Lipo.Weighted>
-22.4377

> <Gold.Chemscore.Internal_Hbond.Weighted>
0.0000

> <Gold.Chemscore.DEClash.Weighted>
0.1124

> <Gold.Chemscore.DEInternal.Weighted>
1.3027

> <Gold.Chemscore.Rot.Weighted>
3.5019

> <Gold.Chemscore.Internal.Correction.Weighted>
   9.000000E+99

> <Gold.Reference.RMSD>
5.1212

#       Name:                00000001
#       Creating user name   hitesit
#       Creation time:       Thu Mar  2 16:48:45 2023


#       File generated by GOLD software.
#

@<TRIPOS>MOLECULE
00000001|prep_VS_1|mol2|1|dock8
    49    52     1
SMALL
USER_CHARGES


@<TRIPOS>ATOM
      1 C1         -40.5550 -39.1969   1.9194 C.2            1 noname            -0.0806
      2 C2         -39.3896 -38.7690   1.4717 C.2            1 noname            -0.0779
      3 N1         -38.4306 -39.7070   1.1095 N.am           1 noname             0.0248
      4 C3         -38.8963 -41.0245   0.6969 C.3            1 noname             0.1485
      5 C4         -39.9336 -41.5326   1.7022 C.2            1 noname             0.0779
      6 N2         -40.7715 -40.5625   2.1688 N.am           1 noname             0.0223
      7 C5         -41.9545 -40.9457   2.9572 C.3            1 noname             0.0144
      8 O1         -39.9806 -42.6839   2.0922 O.2            1 noname            -0.2820
      9 C6         -39.6848 -40.9490  -0.6280 C.ar           1 noname             0.0167
     10 C7         -39.6862 -39.8060  -1.4129 C.ar           1 noname            -0.0133
     11 C8         -40.4153 -39.8167  -2.5898 C.ar           1 noname            -0.0379
     12 C9         -41.1132 -40.9505  -2.9483 C.ar           1 noname            -0.0260
     13 C10        -41.0536 -42.0404  -2.1077 C.ar           1 noname             0.0003
     14 N3         -40.3560 -42.0563  -0.9642 N.ar           1 noname            -0.2412
     15 C11        -43.2330 -40.2792   2.4630 C.3            1 noname            -0.0142
     16 C12        -44.3745 -41.2627   2.3598 C.ar           1 noname            -0.0544
     17 C13        -44.1680 -42.6155   2.5852 C.ar           1 noname            -0.0569
     18 C14        -45.2141 -43.5181   2.4878 C.ar           1 noname            -0.0605
     19 C15        -46.4803 -43.0787   2.1629 C.ar           1 noname            -0.0616
     20 C16        -46.6990 -41.7364   1.9350 C.ar           1 noname            -0.0605
     21 C17        -45.6523 -40.8344   2.0326 C.ar           1 noname            -0.0569
     22 C18        -37.0750 -39.6367   1.3022 C.2            1 noname             0.0696
     23 O2         -36.5227 -38.7035   1.8855 O.2            1 noname            -0.2901
     24 C19        -37.5984 -41.8460   0.5830 C.3            1 noname            -0.0112
     25 C20        -36.5146 -41.0191   1.2186 C.3            1 noname             0.0244
     26 H1         -43.0513 -39.8333   1.4772 H              1 noname            -0.0142
     27 H2         -43.5171 -39.4713   3.1478 H              1 noname            -0.0142
     28 H3         -43.1753 -42.9710   2.8409 H              1 noname            -0.0569
     29 H4         -45.0370 -44.5733   2.6676 H              1 noname            -0.0605
     30 H5         -47.3000 -43.7855   2.0867 H              1 noname            -0.0616
     31 H6         -47.6933 -41.3858   1.6788 H              1 noname            -0.0605
     32 H7         -45.8343 -39.7803   1.8510 H              1 noname            -0.0569
     33 H8         -41.7898 -40.6709   4.0063 H              1 noname             0.0144
     34 H9         -42.0959 -42.0324   2.9195 H              1 noname             0.0144
     35 H10        -39.1294 -38.9247  -1.1122 H              1 noname            -0.0133
     36 H11        -37.3631 -42.0350  -0.4634 H              1 noname            -0.0112
     37 H12        -37.7056 -42.7940   1.1079 H              1 noname            -0.0112
     38 H13        -36.2794 -41.3967   2.2125 H              1 noname             0.0244
     39 H14        -35.6157 -41.0302   0.6040 H              1 noname             0.0244
     40 H15        -41.3580 -38.4833   2.0977 H              1 noname            -0.0806
     41 H16        -39.1838 -37.7029   1.3879 H              1 noname            -0.0779
     42 H17        -40.4374 -38.9382  -3.2261 H              1 noname            -0.0379
     43 H18        -41.6920 -40.9835  -3.8654 H              1 noname            -0.0260
     44 H19        -41.6016 -42.9342  -2.3871 H              1 noname             0.0003
     45 ****       -39.3192 -43.3536   1.7545 LP             1 noname             0.0000
     46 ****       -40.6806 -42.9606   2.7505 LP             1 noname             0.0000
     47 ****       -40.3376 -42.8688  -0.3814 LP             1 noname             0.0000
     48 ****       -37.0677 -37.9467   2.2462 LP             1 noname             0.0000
     49 ****       -35.5291 -38.7025   1.9985 LP             1 noname             0.0000
@<TRIPOS>BOND
    1    1    2 2     
    2    6    1 1     
    3    2    3 1     
    4    3    4 1     
    5    3   22 am    
    6    4    5 1     
    7    4    9 1     
    8    4   24 1     
    9    5    6 am    
   10    5    8 2     
   11    6    7 1     
   12    7   15 1     
   13    9   10 ar    
   14   14    9 ar    
   15   10   11 ar    
   16   11   12 ar    
   17   12   13 ar    
   18   13   14 ar    
   19   15   16 1     
   20   16   17 ar    
   21   21   16 ar    
   22   17   18 ar    
   23   18   19 ar    
   24   19   20 ar    
   25   20   21 ar    
   26   22   23 2     
   27   25   22 1     
   28   24   25 1     
   29   15   26 1     
   30   15   27 1     
   31   17   28 1     
   32   18   29 1     
   33   19   30 1     
   34   20   31 1     
   35   21   32 1     
   36    7   33 1     
   37    7   34 1     
   38   10   35 1     
   39   24   36 1     
   40   24   37 1     
   41   25   38 1     
   42   25   39 1     
   43    1   40 1     
   44    2   41 1     
   45   11   42 1     
   46   12   43 1     
   47   13   44 1     
   48    8   45 1     
   49    8   46 1     
   50   14   47 1     
   51   23   48 1     
   52   23   49 1     
@<TRIPOS>SUBSTRUCTURE
      1 noname         1
@<TRIPOS>SET
LONE_PAIRS      STATIC     ATOMS    <user>   **** ""
5 45 46 47 48 49
ATOM$BLUE        STATIC     ATOMS    COLORGROUP SYSTEM
5 45 46 47 48 49
@<TRIPOS>COMMENT
> <Gold.Version>
2022.3.0

> <Gold.Id.Protein>
unknown|6c5f_clean|pdb

> <Gold.Protein.ActiveResidues>
 LEU49   SER50   GLN58   ILE95   LEU96   ILE97   ARG98   PRO1    PHE2    LEU3   
 LEU30   LYS32   PRO33   ASP35   ARG36   VAL37   ASN38   ILE61   SER62   SER63  
 ILE64   GLY65   VAL66   VAL67   PHE100  LEU102  GLU103  SER104  TRP105  GLN106 
 ILE107  GLY108  LYS109  ILE110  THR112  VAL113  PRO1    GLN58   PHE2    LEU96  
 LEU30   LYS32   PRO33   PHE2    PRO1    PRO101  LEU102  GLU103  VAL37   ASN38  
 LEU49   SER50   ILE61   SER62   SER63   ILE64   ILE64   GLY65   VAL66   VAL67  
 PRO33   ARG36   VAL37   PRO1    SER104  TRP105  GLN106  ILE107  GLY108  LYS109 
 ILE110  PRO1    PHE2    LEU3    ILE110  VAL113  LEU96   ILE97   ARG98   PHE2   
 PRO1   

> <Gold.Score>
     Score     S(PLP)   S(hbond)     S(cho)   S(metal)  DE(clash)   DE(tors)     intcor
     53.52     -55.21       0.00       0.00       0.00       0.00       0.87       0.05

> <Gold.PLP.Fitness>
53.5238

> <Gold.PLP.PLP>
-55.2053

> <Gold.PLP.part.hbond>
0.0000

> <Gold.PLP.part.metal>
0.0000

> <Gold.PLP.part.buried>
-3.6905

> <Gold.PLP.part.nonpolar>
-52.4005

> <Gold.PLP.part.repulsive>
0.8437

> <Gold.PLP.ligand.clash>
0.0000

> <Gold.PLP.ligand.torsion>
0.8668

> <Gold.PLP.Chemscore.Hbond>
0.0000

> <Gold.PLP.Chemscore.CHOScore>
0.0000

> <Gold.PLP.Chemscore.Metal>
0.0000

> <Gold.PLP.Chemscore.Internal.Correction>
0.0520

> <Gold.PLP.Reference.RMSD>
4.8307

> <Gold.Rescore>
     Score         DG    S(hbond)    S(metal)    S(lipo)     H(rot)  DE(clash)    DE(int)     intcor
     22.78     -25.61       0.00        0.00     201.99       1.37       1.83       1.00       ----

> <Gold.Chemscore.Fitness>
22.7786

> <Gold.Chemscore.DG>
-25.6108

> <Gold.Chemscore.ZeroCoef>
-5.4800

> <Gold.Chemscore.Hbond>
0.0000

> <Gold.Chemscore.Metal>
0.0000

> <Gold.Chemscore.Lipo>
201.9894

> <Gold.Chemscore.Internal_Hbond>
0.0000

> <Gold.Chemscore.DEClash>
1.8312

> <Gold.Chemscore.DEInternal>
1.0011

> <Gold.Chemscore.Rot>
1.3679

> <Gold.Chemscore.Internal.Correction>
   9.000000E+99

> <Gold.Chemscore.Reference.RMSD>
0.0000

> <Gold.Chemscore.Hbond.Weighted>
-0.0000

> <Gold.Chemscore.Metal.Weighted>
-0.0000

> <Gold.Chemscore.Lipo.Weighted>
-23.6328

> <Gold.Chemscore.Internal_Hbond.Weighted>
0.0000

> <Gold.Chemscore.DEClash.Weighted>
1.8312

> <Gold.Chemscore.DEInternal.Weighted>
1.0011

> <Gold.Chemscore.Rot.Weighted>
3.5019

> <Gold.Chemscore.Internal.Correction.Weighted>
   9.000000E+99

> <Gold.Reference.RMSD>
4.8307

