#       Name:                CT1002167954
#       Creating user name   hitesit
#       Creation time:       Sun Apr 16 02:24:22 2023


#       File generated by GOLD software.
#

@<TRIPOS>MOLECULE
CT1002167954|ligand_prepared|mol2|1|dock4
    29    30     1
SMALL
NO_CHARGES


@<TRIPOS>ATOM
      1 C1         -44.5444  25.8988   3.0399 C.3            1 RES1               0.0000
      2 C2         -43.6504  25.3548   4.1728 C.ar           1 RES1               0.0000
      3 C3         -45.8448  25.1027   3.1006 C.2            1 RES1               0.0000
      4 C4         -44.7146  27.3898   3.3093 C.2            1 RES1               0.0000
      5 C5         -43.9336  25.7349   1.6286 C.3            1 RES1               0.0000
      6 C6         -44.2132  24.7302   5.2817 C.ar           1 RES1               0.0000
      7 C7         -42.2635  25.4676   4.1220 C.ar           1 RES1               0.0000
      8 N8         -46.9494  25.7336   3.5922 N.am           1 RES1               0.0000
      9 O9         -45.8910  23.9273   2.7592 O.2            1 RES1               0.0000
     10 N10        -45.9680  27.8468   3.6221 N.am           1 RES1               0.0000
     11 O11        -43.7715  28.1703   3.2698 O.2            1 RES1               0.0000
     12 C12        -44.8964  26.0718   0.5009 C.3            1 RES1               0.0000
     13 C13        -43.4184  24.2336   6.3016 C.ar           1 RES1               0.0000
     14 C14        -41.4705  24.9705   5.1430 C.ar           1 RES1               0.0000
     15 C15        -47.0873  27.0815   3.8059 C.2            1 RES1               0.0000
     16 C16        -42.0467  24.3530   6.2327 C.ar           1 RES1               0.0000
     17 O17        -48.1674  27.5598   4.1401 O.2            1 RES1               0.0000
     18 H18        -43.0534  26.3845   1.5472 H              1 RES1               0.0000
     19 H19        -43.5973  24.6978   1.5076 H              1 RES1               0.0000
     20 H20        -45.2910  24.6292   5.3545 H              1 RES1               0.0000
     21 H21        -41.7884  25.9505   3.2748 H              1 RES1               0.0000
     22 H22        -47.7467  25.1490   3.8224 H              1 RES1               0.0000
     23 H23        -46.0767  28.8505   3.7276 H              1 RES1               0.0000
     24 H24        -44.4178  25.9402  -0.4672 H              1 RES1               0.0000
     25 H25        -45.7725  25.4275   0.5362 H              1 RES1               0.0000
     26 H26        -45.2318  27.1042   0.5756 H              1 RES1               0.0000
     27 H27        -43.8768  23.7497   7.1577 H              1 RES1               0.0000
     28 H28        -40.3914  25.0673   5.0850 H              1 RES1               0.0000
     29 H29        -41.4243  23.9636   7.0316 H              1 RES1               0.0000
@<TRIPOS>BOND
    1    1    2 1     
    2    1    3 1     
    3    1    4 1     
    4    1    5 1     
    5    2    6 ar    
    6    2    7 ar    
    7    3    8 1     
    8    3    9 2     
    9    4   10 1     
   10    4   11 2     
   11    5   12 1     
   12    5   18 1     
   13    5   19 1     
   14    6   13 ar    
   15    6   20 1     
   16    7   14 ar    
   17    7   21 1     
   18    8   15 1     
   19    8   22 1     
   20   10   15 1     
   21   10   23 1     
   22   12   24 1     
   23   12   25 1     
   24   12   26 1     
   25   13   16 ar    
   26   13   27 1     
   27   14   16 ar    
   28   14   28 1     
   29   15   17 2     
   30   16   29 1     
@<TRIPOS>SUBSTRUCTURE
      1 RES1           1
@<TRIPOS>SET
DONOR_HYDROGENS      STATIC     ATOMS    <user>   **** ""
2 22 23
ATOM$RED        STATIC     ATOMS    COLORGROUP SYSTEM
2 22 23
@<TRIPOS>COMMENT
> <Gold.Version>
2022.3.0

> <Gold.Id.Protein>
unknown|7ta6_clean|pdb

> <Gold.Protein.RotatedTorsions>
[ 12165 12063 12062 12060 ] final  -40.55 input   59.99 | X-H torsion
[ 20658 20574 20578 20575 ] final -124.64 input   43.92 | X-H torsion
[ 2816 2645 2646 2647 ] final  165.44 input  110.81 | X-H torsion
[ 17263 17182 17186 17183 ] final  133.60 input   60.00 | X-H torsion
[ 17267 17185 17184 17183 ] final  134.84 input   59.97 | X-H torsion
[ 17444 17358 17359 17360 ] final   -6.79 input   71.00 | X-H torsion
[ 20662 20577 20576 20575 ] final -156.88 input   60.02 | X-H torsion
[ 20694 2648 2647 2646 ] final  113.98 input    0.00 | X-H torsion
[ 20700 20479 20478 20477 ] final   -6.85 input   -0.00 | X-H torsion

> <Gold.Protein.ActiveResidues>
 TRP28   LEU57   TYR119  GLY121  GLY122  VAL123  XCP1    LEU2    TRP4    CYS27  
 XCP29  

> <Gold.Protein.RotatedAtoms>
  -39.4521   28.5640   11.8836 H   0  0  0  0  0  0  0  0  0  0  0  0  # atno 2816 bound_to 2645
  -40.0579   22.1886    8.5178 H   0  0  0  0  0  0  0  0  0  0  0  0  # atno 12165 bound_to 12063
  -47.9161   31.8524    4.9717 H   0  0  0  0  0  0  0  0  0  0  0  0  # atno 17263 bound_to 17182
  -48.4246   32.5299    6.3963 H   0  0  0  0  0  0  0  0  0  0  0  0  # atno 17264 bound_to 17182
  -45.4948   32.9625    9.9851 H   0  0  0  0  0  0  0  0  0  0  0  0  # atno 17267 bound_to 17185
  -33.1467   26.3359    7.6054 H   0  0  0  0  0  0  0  0  0  0  0  0  # atno 17444 bound_to 17358
  -40.5293   30.9625    9.6624 H   0  0  0  0  0  0  0  0  0  0  0  0  # atno 20658 bound_to 20574
  -37.1599   33.8469    9.5963 H   0  0  0  0  0  0  0  0  0  0  0  0  # atno 20662 bound_to 20577
  -41.6433   31.0471    7.8629 LP  0  0  0  0  0  0  0  0  0  0  0  0  # atno 20694 bound_to 2648
  -39.9655   30.6582    7.6788 LP  0  0  0  0  0  0  0  0  0  0  0  0  # atno 20695 bound_to 2648
  -40.3305   23.0668    7.1753 LP  0  0  0  0  0  0  0  0  0  0  0  0  # atno 20696 bound_to 12063
  -39.3282   23.6314    8.3343 LP  0  0  0  0  0  0  0  0  0  0  0  0  # atno 20697 bound_to 12063
  -36.7854   30.5284   10.2480 LP  0  0  0  0  0  0  0  0  0  0  0  0  # atno 20700 bound_to 20479
  -38.2261   30.1892    9.3484 LP  0  0  0  0  0  0  0  0  0  0  0  0  # atno 20701 bound_to 20479
  -40.8735   31.4353   11.3102 LP  0  0  0  0  0  0  0  0  0  0  0  0  # atno 20702 bound_to 20574
  -39.0394   30.2212   11.5004 LP  0  0  0  0  0  0  0  0  0  0  0  0  # atno 20703 bound_to 2645
  -47.2499   33.2589    5.5045 LP  0  0  0  0  0  0  0  0  0  0  0  0  # atno 20704 bound_to 17182
  -45.7047   31.6241    9.0838 LP  0  0  0  0  0  0  0  0  0  0  0  0  # atno 20705 bound_to 17185
  -46.9751   32.5938    9.4191 LP  0  0  0  0  0  0  0  0  0  0  0  0  # atno 20706 bound_to 17185
  -33.9397   27.7868    6.8866 LP  0  0  0  0  0  0  0  0  0  0  0  0  # atno 20707 bound_to 17358
  -38.2294   32.7064    9.1436 LP  0  0  0  0  0  0  0  0  0  0  0  0  # atno 20708 bound_to 20577
  -37.9238   32.9601   10.7275 LP  0  0  0  0  0  0  0  0  0  0  0  0  # atno 20709 bound_to 20577

> <Gold.Score>
     Fitness  S(hb_ext) S(vdw_ext)  S(hb_int)    S(int)      intcor
     26.53       0.22      19.83       0.00      -0.95      -0.76

> <Gold.Goldscore.Fitness>
26.5271

> <Gold.Goldscore.Internal.Vdw>
-1.2188

> <Gold.Goldscore.Internal.Torsion>
-0.4952

> <Gold.Goldscore.External.Vdw>
19.8264

> <Gold.Goldscore.Internal.HBond>
0.0000

> <Gold.Goldscore.External.HBond>
0.2200

> <Gold.Goldscore.Internal.Correction>
-0.7597

> <Gold.Goldscore.Hbonds>
donor molecule, donor type, donor heavy atom, donor atom, acceptor molecule, acceptor atom, score
      P1  H 17578 17684       L1    17  0.11

> <Gold.Goldscore.Internal.Vdw.Weighted>
-1.2188

> <Gold.Goldscore.Internal.Torsion.Weighted>
-0.4952

> <Gold.Goldscore.External.Vdw.Weighted>
27.2613

> <Gold.Goldscore.Internal.HBond.Weighted>
0.0000

> <Gold.Goldscore.External.HBond.Weighted>
0.2200

> <Gold.Goldscore.Internal.Correction.Weighted>
-0.7597

> <Gold.Rescore>
     Score     S(PLP)   S(hbond)     S(cho)   S(metal)  DE(clash)   DE(tors)     intcor
     24.02     -26.23       0.00       0.00       0.00       0.00       1.11       ----

> <Gold.PLP.Fitness>
24.0183

> <Gold.PLP.PLP>
-26.2299

> <Gold.PLP.part.hbond>
0.0000

> <Gold.PLP.part.metal>
0.0000

> <Gold.PLP.part.buried>
-3.1701

> <Gold.PLP.part.nonpolar>
-24.4178

> <Gold.PLP.part.repulsive>
0.1292

> <Gold.PLP.ligand.clash>
0.0000

> <Gold.PLP.ligand.torsion>
1.1058

> <Gold.PLP.Chemscore.Hbond>
0.0000

> <Gold.PLP.Chemscore.CHOScore>
0.0000

> <Gold.PLP.Chemscore.Metal>
0.0000

> <Gold.PLP.Chemscore.Internal.Correction>
   9.000000E+99

