#       Name:                CT1002167954
#       Creating user name   hitesit
#       Creation time:       Sun Apr 16 02:24:24 2023


#       File generated by GOLD software.
#

@<TRIPOS>MOLECULE
CT1002167954|ligand_prepared|mol2|1|dock7
    29    30     1
SMALL
NO_CHARGES


@<TRIPOS>ATOM
      1 C1         -44.9197  25.6659   3.1989 C.3            1 RES1               0.0000
      2 C2         -43.8441  25.2491   4.2227 C.ar           1 RES1               0.0000
      3 C3         -44.5030  27.0366   2.6738 C.2            1 RES1               0.0000
      4 C4         -44.9429  24.5732   2.1358 C.2            1 RES1               0.0000
      5 C5         -46.3410  25.7804   3.7974 C.3            1 RES1               0.0000
      6 C6         -42.4918  25.3425   3.9076 C.ar           1 RES1               0.0000
      7 C7         -44.1881  24.7726   5.4850 C.ar           1 RES1               0.0000
      8 N8         -43.9944  27.1012   1.4100 N.am           1 RES1               0.0000
      9 O9         -44.5826  28.0397   3.3722 O.2            1 RES1               0.0000
     10 N10        -44.5491  24.9044   0.8658 N.am           1 RES1               0.0000
     11 O11        -45.2828  23.4243   2.3903 O.2            1 RES1               0.0000
     12 C12        -47.3819  26.2890   2.8125 C.3            1 RES1               0.0000
     13 C13        -41.5185  24.9758   4.8222 C.ar           1 RES1               0.0000
     14 C14        -43.2131  24.4062   6.3981 C.ar           1 RES1               0.0000
     15 C15        -44.0467  26.1113   0.4618 C.2            1 RES1               0.0000
     16 C16        -41.8784  24.5079   6.0681 C.ar           1 RES1               0.0000
     17 O17        -43.6623  26.3166  -0.6859 O.2            1 RES1               0.0000
     18 H18        -46.6516  24.7932   4.1611 H              1 RES1               0.0000
     19 H19        -46.3079  26.4597   4.6582 H              1 RES1               0.0000
     20 H20        -42.1895  25.7061   2.9311 H              1 RES1               0.0000
     21 H21        -45.2319  24.6832   5.7660 H              1 RES1               0.0000
     22 H22        -43.5323  27.9655   1.1456 H              1 RES1               0.0000
     23 H23        -44.6390  24.1847   0.1557 H              1 RES1               0.0000
     24 H24        -48.3608  26.3504   3.2833 H              1 RES1               0.0000
     25 H25        -47.1177  27.2800   2.4494 H              1 RES1               0.0000
     26 H26        -47.4593  25.6234   1.9552 H              1 RES1               0.0000
     27 H27        -40.4695  25.0563   4.5571 H              1 RES1               0.0000
     28 H28        -43.5010  24.0379   7.3772 H              1 RES1               0.0000
     29 H29        -41.1158  24.2210   6.7845 H              1 RES1               0.0000
@<TRIPOS>BOND
    1    1    2 1     
    2    1    3 1     
    3    1    4 1     
    4    1    5 1     
    5    2    6 ar    
    6    2    7 ar    
    7    3    8 1     
    8    3    9 2     
    9    4   10 1     
   10    4   11 2     
   11    5   12 1     
   12    5   18 1     
   13    5   19 1     
   14    6   13 ar    
   15    6   20 1     
   16    7   14 ar    
   17    7   21 1     
   18    8   15 1     
   19    8   22 1     
   20   10   15 1     
   21   10   23 1     
   22   12   24 1     
   23   12   25 1     
   24   12   26 1     
   25   13   16 ar    
   26   13   27 1     
   27   14   16 ar    
   28   14   28 1     
   29   15   17 2     
   30   16   29 1     
@<TRIPOS>SUBSTRUCTURE
      1 RES1           1
@<TRIPOS>SET
DONOR_HYDROGENS      STATIC     ATOMS    <user>   **** ""
2 22 23
ATOM$RED        STATIC     ATOMS    COLORGROUP SYSTEM
2 22 23
@<TRIPOS>COMMENT
> <Gold.Version>
2022.3.0

> <Gold.Id.Protein>
unknown|7ta6_clean|pdb

> <Gold.Protein.RotatedTorsions>
[ 12165 12063 12062 12060 ] final -102.00 input   59.99 | X-H torsion
[ 20658 20574 20578 20575 ] final  -32.36 input   43.92 | X-H torsion
[ 2816 2645 2646 2647 ] final   28.46 input  110.81 | X-H torsion
[ 17263 17182 17186 17183 ] final  158.62 input   60.00 | X-H torsion
[ 17267 17185 17184 17183 ] final  -66.82 input   59.97 | X-H torsion
[ 17444 17358 17359 17360 ] final   54.15 input   71.00 | X-H torsion
[ 20662 20577 20576 20575 ] final  117.66 input   60.02 | X-H torsion
[ 20694 2648 2647 2646 ] final   19.67 input    0.00 | X-H torsion
[ 20700 20479 20478 20477 ] final  -41.23 input   -0.00 | X-H torsion

> <Gold.Protein.ActiveResidues>
 TRP28   LEU57   TYR119  GLY121  GLY122  VAL123  XCP1    LEU2    TRP4    CYS27  
 XCP29  

> <Gold.Protein.RotatedAtoms>
  -39.5758   30.2133   11.8539 H   0  0  0  0  0  0  0  0  0  0  0  0  # atno 2816 bound_to 2645
  -40.4827   22.3070    7.6689 H   0  0  0  0  0  0  0  0  0  0  0  0  # atno 12165 bound_to 12063
  -48.1991   31.7368    5.2514 H   0  0  0  0  0  0  0  0  0  0  0  0  # atno 17263 bound_to 17182
  -48.2077   32.8785    6.4528 H   0  0  0  0  0  0  0  0  0  0  0  0  # atno 17264 bound_to 17182
  -46.8474   32.0740    9.1121 H   0  0  0  0  0  0  0  0  0  0  0  0  # atno 17267 bound_to 17185
  -33.7211   26.2391    6.8061 H   0  0  0  0  0  0  0  0  0  0  0  0  # atno 17444 bound_to 17358
  -39.8620   31.4367   10.6431 H   0  0  0  0  0  0  0  0  0  0  0  0  # atno 20658 bound_to 20574
  -37.8974   33.0819    8.8983 H   0  0  0  0  0  0  0  0  0  0  0  0  # atno 20662 bound_to 20577
  -40.9436   30.0020    7.6869 LP  0  0  0  0  0  0  0  0  0  0  0  0  # atno 20694 bound_to 2648
  -40.6653   31.7033    7.8548 LP  0  0  0  0  0  0  0  0  0  0  0  0  # atno 20695 bound_to 2648
  -39.7375   23.7455    7.5162 LP  0  0  0  0  0  0  0  0  0  0  0  0  # atno 20696 bound_to 12063
  -39.4932   22.8334    8.8485 LP  0  0  0  0  0  0  0  0  0  0  0  0  # atno 20697 bound_to 12063
  -37.0812   30.9453   10.2734 LP  0  0  0  0  0  0  0  0  0  0  0  0  # atno 20700 bound_to 20479
  -37.9302   29.7724    9.3229 LP  0  0  0  0  0  0  0  0  0  0  0  0  # atno 20701 bound_to 20479
  -41.5233   30.9735   10.3553 LP  0  0  0  0  0  0  0  0  0  0  0  0  # atno 20702 bound_to 20574
  -38.9195   28.6236   11.5292 LP  0  0  0  0  0  0  0  0  0  0  0  0  # atno 20703 bound_to 2645
  -47.1848   33.0295    5.1732 LP  0  0  0  0  0  0  0  0  0  0  0  0  # atno 20704 bound_to 17182
  -46.0683   33.1895   10.0044 LP  0  0  0  0  0  0  0  0  0  0  0  0  # atno 20705 bound_to 17185
  -45.2492   31.9233    9.3778 LP  0  0  0  0  0  0  0  0  0  0  0  0  # atno 20706 bound_to 17185
  -33.4693   27.8661    7.5412 LP  0  0  0  0  0  0  0  0  0  0  0  0  # atno 20707 bound_to 17358
  -38.2486   32.6233   10.4201 LP  0  0  0  0  0  0  0  0  0  0  0  0  # atno 20708 bound_to 20577
  -37.1625   33.8131   10.1533 LP  0  0  0  0  0  0  0  0  0  0  0  0  # atno 20709 bound_to 20577

> <Gold.Score>
     Fitness  S(hb_ext) S(vdw_ext)  S(hb_int)    S(int)      intcor
     24.75       0.00      18.14       0.00      -0.20      -0.76

> <Gold.Goldscore.Fitness>
24.7499

> <Gold.Goldscore.Internal.Vdw>
-0.5608

> <Gold.Goldscore.Internal.Torsion>
-0.3970

> <Gold.Goldscore.External.Vdw>
18.1440

> <Gold.Goldscore.Internal.HBond>
0.0000

> <Gold.Goldscore.External.HBond>
0.0000

> <Gold.Goldscore.Internal.Correction>
-0.7597

> <Gold.Goldscore.Internal.Vdw.Weighted>
-0.5608

> <Gold.Goldscore.Internal.Torsion.Weighted>
-0.3970

> <Gold.Goldscore.External.Vdw.Weighted>
24.9480

> <Gold.Goldscore.Internal.HBond.Weighted>
0.0000

> <Gold.Goldscore.External.HBond.Weighted>
0.0000

> <Gold.Goldscore.Internal.Correction.Weighted>
-0.7597

> <Gold.Rescore>
     Score     S(PLP)   S(hbond)     S(cho)   S(metal)  DE(clash)   DE(tors)     intcor
     26.31     -26.35       0.00       0.00       0.00       0.00       0.02       ----

> <Gold.PLP.Fitness>
26.3055

> <Gold.PLP.PLP>
-26.3514

> <Gold.PLP.part.hbond>
0.0000

> <Gold.PLP.part.metal>
0.0000

> <Gold.PLP.part.buried>
-2.0651

> <Gold.PLP.part.nonpolar>
-25.9757

> <Gold.PLP.part.repulsive>
0.0999

> <Gold.PLP.ligand.clash>
0.0000

> <Gold.PLP.ligand.torsion>
0.0229

> <Gold.PLP.Chemscore.Hbond>
0.0000

> <Gold.PLP.Chemscore.CHOScore>
0.0000

> <Gold.PLP.Chemscore.Metal>
0.0000

> <Gold.PLP.Chemscore.Internal.Correction>
   9.000000E+99

