#       Name:                CT1002167954
#       Creating user name   hitesit
#       Creation time:       Sun Apr 16 02:24:21 2023


#       File generated by GOLD software.
#

@<TRIPOS>MOLECULE
CT1002167954|ligand_prepared|mol2|1|dock2
    29    30     1
SMALL
NO_CHARGES


@<TRIPOS>ATOM
      1 C1         -41.1132  25.1130   3.1024 C.3            1 RES1               0.0000
      2 C2         -42.0855  24.9036   4.2812 C.ar           1 RES1               0.0000
      3 C3         -40.6301  26.5572   3.1968 C.2            1 RES1               0.0000
      4 C4         -40.0090  24.0752   3.2707 C.2            1 RES1               0.0000
      5 C5         -41.7601  24.9013   1.7137 C.3            1 RES1               0.0000
      6 C6         -41.6025  24.6699   5.5652 C.ar           1 RES1               0.0000
      7 C7         -43.4656  24.9440   4.1010 C.ar           1 RES1               0.0000
      8 N8         -39.3545  26.7697   3.6302 N.am           1 RES1               0.0000
      9 O9         -41.3698  27.4971   2.9329 O.2            1 RES1               0.0000
     10 N10        -38.7413  24.5236   3.5350 N.am           1 RES1               0.0000
     11 O11        -40.2283  22.8727   3.1934 O.2            1 RES1               0.0000
     12 C12        -40.7615  24.8924   0.5671 C.3            1 RES1               0.0000
     13 C13        -42.4676  24.4861   6.6311 C.ar           1 RES1               0.0000
     14 C14        -44.3290  24.7597   5.1683 C.ar           1 RES1               0.0000
     15 C15        -38.3700  25.8224   3.7528 C.2            1 RES1               0.0000
     16 C16        -43.8312  24.5313   6.4335 C.ar           1 RES1               0.0000
     17 O17        -37.2198  26.1418   4.0396 O.2            1 RES1               0.0000
     18 H18        -42.3013  23.9471   1.7181 H              1 RES1               0.0000
     19 H19        -42.4910  25.7005   1.5391 H              1 RES1               0.0000
     20 H20        -40.5325  24.6284   5.7396 H              1 RES1               0.0000
     21 H21        -43.8797  25.1211   3.1142 H              1 RES1               0.0000
     22 H22        -39.1102  27.7208   3.8870 H              1 RES1               0.0000
     23 H23        -38.0065  23.8245   3.5727 H              1 RES1               0.0000
     24 H24        -41.2676  24.7406  -0.3840 H              1 RES1               0.0000
     25 H25        -40.2228  25.8364   0.5174 H              1 RES1               0.0000
     26 H26        -40.0341  24.0934   0.6952 H              1 RES1               0.0000
     27 H27        -42.0708  24.3053   7.6246 H              1 RES1               0.0000
     28 H28        -45.4015  24.7955   5.0080 H              1 RES1               0.0000
     29 H29        -44.5087  24.3877   7.2687 H              1 RES1               0.0000
@<TRIPOS>BOND
    1    1    2 1     
    2    1    3 1     
    3    1    4 1     
    4    1    5 1     
    5    2    6 ar    
    6    2    7 ar    
    7    3    8 1     
    8    3    9 2     
    9    4   10 1     
   10    4   11 2     
   11    5   12 1     
   12    5   18 1     
   13    5   19 1     
   14    6   13 ar    
   15    6   20 1     
   16    7   14 ar    
   17    7   21 1     
   18    8   15 1     
   19    8   22 1     
   20   10   15 1     
   21   10   23 1     
   22   12   24 1     
   23   12   25 1     
   24   12   26 1     
   25   13   16 ar    
   26   13   27 1     
   27   14   16 ar    
   28   14   28 1     
   29   15   17 2     
   30   16   29 1     
@<TRIPOS>SUBSTRUCTURE
      1 RES1           1
@<TRIPOS>SET
DONOR_HYDROGENS      STATIC     ATOMS    <user>   **** ""
2 22 23
ATOM$RED        STATIC     ATOMS    COLORGROUP SYSTEM
2 22 23
@<TRIPOS>COMMENT
> <Gold.Version>
2022.3.0

> <Gold.Id.Protein>
unknown|7ta6_clean|pdb

> <Gold.Protein.RotatedTorsions>
[ 12165 12063 12062 12060 ] final  102.17 input   59.99 | X-H torsion
[ 20658 20574 20578 20575 ] final -161.40 input   43.92 | X-H torsion
[ 2816 2645 2646 2647 ] final   59.03 input  110.81 | X-H torsion
[ 17263 17182 17186 17183 ] final  -54.55 input   60.00 | X-H torsion
[ 17267 17185 17184 17183 ] final  135.72 input   59.97 | X-H torsion
[ 17444 17358 17359 17360 ] final   53.29 input   71.00 | X-H torsion
[ 20662 20577 20576 20575 ] final -133.02 input   60.02 | X-H torsion
[ 20694 2648 2647 2646 ] final   18.90 input    0.00 | X-H torsion
[ 20700 20479 20478 20477 ] final   36.95 input   -0.00 | X-H torsion

> <Gold.Protein.ActiveResidues>
 TRP28   LEU57   TYR119  GLY121  GLY122  VAL123  XCP1    LEU2    TRP4    CYS27  
 XCP29  

> <Gold.Protein.RotatedAtoms>
  -39.8616   29.9143   12.0744 H   0  0  0  0  0  0  0  0  0  0  0  0  # atno 2816 bound_to 2645
  -39.4350   23.7694    8.0081 H   0  0  0  0  0  0  0  0  0  0  0  0  # atno 12165 bound_to 12063
  -47.9039   33.1823    6.3407 H   0  0  0  0  0  0  0  0  0  0  0  0  # atno 17263 bound_to 17182
  -47.2492   32.6890    4.9002 H   0  0  0  0  0  0  0  0  0  0  0  0  # atno 17264 bound_to 17182
  -45.5061   32.9710    9.9880 H   0  0  0  0  0  0  0  0  0  0  0  0  # atno 17267 bound_to 17185
  -33.7112   26.2335    6.8154 H   0  0  0  0  0  0  0  0  0  0  0  0  # atno 17444 bound_to 17358
  -41.0731   30.8792    9.7596 H   0  0  0  0  0  0  0  0  0  0  0  0  # atno 20658 bound_to 20574
  -37.1412   33.8482    9.9833 H   0  0  0  0  0  0  0  0  0  0  0  0  # atno 20662 bound_to 20577
  -40.9321   30.0003    7.6857 LP  0  0  0  0  0  0  0  0  0  0  0  0  # atno 20694 bound_to 2648
  -40.6767   31.7050    7.8559 LP  0  0  0  0  0  0  0  0  0  0  0  0  # atno 20695 bound_to 2648
  -39.8252   22.3700    8.7411 LP  0  0  0  0  0  0  0  0  0  0  0  0  # atno 20696 bound_to 12063
  -40.4609   22.7358    7.2821 LP  0  0  0  0  0  0  0  0  0  0  0  0  # atno 20697 bound_to 12063
  -36.7773   29.9339    9.9953 LP  0  0  0  0  0  0  0  0  0  0  0  0  # atno 20700 bound_to 20479
  -38.2341   30.7837    9.6011 LP  0  0  0  0  0  0  0  0  0  0  0  0  # atno 20701 bound_to 20479
  -40.3439   31.5163   11.2155 LP  0  0  0  0  0  0  0  0  0  0  0  0  # atno 20702 bound_to 20574
  -38.6427   28.9132   11.3156 LP  0  0  0  0  0  0  0  0  0  0  0  0  # atno 20703 bound_to 2645
  -48.4197   31.7917    5.6292 LP  0  0  0  0  0  0  0  0  0  0  0  0  # atno 20704 bound_to 17182
  -45.6916   31.6275    9.0890 LP  0  0  0  0  0  0  0  0  0  0  0  0  # atno 20705 bound_to 17185
  -46.9769   32.5818    9.4110 LP  0  0  0  0  0  0  0  0  0  0  0  0  # atno 20706 bound_to 17185
  -33.4774   27.8707    7.5335 LP  0  0  0  0  0  0  0  0  0  0  0  0  # atno 20707 bound_to 17358
  -38.0103   32.9540    8.9370 LP  0  0  0  0  0  0  0  0  0  0  0  0  # atno 20708 bound_to 20577
  -38.1618   32.7112   10.5447 LP  0  0  0  0  0  0  0  0  0  0  0  0  # atno 20709 bound_to 20577

> <Gold.Score>
     Fitness  S(hb_ext) S(vdw_ext)  S(hb_int)    S(int)      intcor
     27.37       0.00      19.98       0.00      -0.10      -0.76

> <Gold.Goldscore.Fitness>
27.3730

> <Gold.Goldscore.Internal.Vdw>
-0.3634

> <Gold.Goldscore.Internal.Torsion>
-0.4943

> <Gold.Goldscore.External.Vdw>
19.9788

> <Gold.Goldscore.Internal.HBond>
0.0000

> <Gold.Goldscore.External.HBond>
0.0000

> <Gold.Goldscore.Internal.Correction>
-0.7597

> <Gold.Goldscore.Internal.Vdw.Weighted>
-0.3634

> <Gold.Goldscore.Internal.Torsion.Weighted>
-0.4943

> <Gold.Goldscore.External.Vdw.Weighted>
27.4709

> <Gold.Goldscore.Internal.HBond.Weighted>
0.0000

> <Gold.Goldscore.External.HBond.Weighted>
0.0000

> <Gold.Goldscore.Internal.Correction.Weighted>
-0.7597

> <Gold.Rescore>
     Score     S(PLP)   S(hbond)     S(cho)   S(metal)  DE(clash)   DE(tors)     intcor
     24.74     -26.74       0.00       0.00       0.00       0.00       1.00       ----

> <Gold.PLP.Fitness>
24.7372

> <Gold.PLP.PLP>
-26.7366

> <Gold.PLP.part.hbond>
0.0000

> <Gold.PLP.part.metal>
0.0000

> <Gold.PLP.part.buried>
-3.0838

> <Gold.PLP.part.nonpolar>
-23.7495

> <Gold.PLP.part.repulsive>
0.0837

> <Gold.PLP.ligand.clash>
0.0000

> <Gold.PLP.ligand.torsion>
0.9997

> <Gold.PLP.Chemscore.Hbond>
0.0000

> <Gold.PLP.Chemscore.CHOScore>
0.0000

> <Gold.PLP.Chemscore.Metal>
0.0000

> <Gold.PLP.Chemscore.Internal.Correction>
   9.000000E+99

