#       Name:                CT1002167954
#       Creating user name   hitesit
#       Creation time:       Sun Apr 16 02:24:24 2023


#       File generated by GOLD software.
#

@<TRIPOS>MOLECULE
CT1002167954|ligand_prepared|mol2|1|dock8
    29    30     1
SMALL
NO_CHARGES


@<TRIPOS>ATOM
      1 C1         -41.3321  25.5317   3.2882 C.3            1 RES1               0.0000
      2 C2         -42.4100  25.1021   4.3042 C.ar           1 RES1               0.0000
      3 C3         -41.2107  24.3897   2.2835 C.2            1 RES1               0.0000
      4 C4         -41.8160  26.8445   2.6823 C.2            1 RES1               0.0000
      5 C5         -39.9423  25.7805   3.9193 C.3            1 RES1               0.0000
      6 C6         -43.7506  25.4053   4.0858 C.ar           1 RES1               0.0000
      7 C7         -42.0801  24.4009   5.4609 C.ar           1 RES1               0.0000
      8 N8         -41.7402  24.5819   1.0415 N.am           1 RES1               0.0000
      9 O9         -40.6935  23.3223   2.5889 O.2            1 RES1               0.0000
     10 N10        -42.1356  26.8575   1.3499 N.am           1 RES1               0.0000
     11 O11        -41.9393  27.8636   3.3505 O.2            1 RES1               0.0000
     12 C12        -38.9591  26.4685   2.9855 C.3            1 RES1               0.0000
     13 C13        -44.7264  25.0189   4.9896 C.ar           1 RES1               0.0000
     14 C14        -43.0575  24.0157   6.3636 C.ar           1 RES1               0.0000
     15 C15        -42.1490  25.7782   0.5090 C.2            1 RES1               0.0000
     16 C16        -44.3807  24.3236   6.1287 C.ar           1 RES1               0.0000
     17 O17        -42.5010  25.8587  -0.6644 O.2            1 RES1               0.0000
     18 H18        -40.0677  26.3980   4.8172 H              1 RES1               0.0000
     19 H19        -39.5186  24.8178   4.2309 H              1 RES1               0.0000
     20 H20        -44.0413  25.9539   3.1962 H              1 RES1               0.0000
     21 H21        -41.0454  24.1487   5.6669 H              1 RES1               0.0000
     22 H22        -41.8417  23.7602   0.4543 H              1 RES1               0.0000
     23 H23        -42.3868  27.7549   0.9475 H              1 RES1               0.0000
     24 H24        -38.0005  26.6190   3.4776 H              1 RES1               0.0000
     25 H25        -38.7914  25.8697   2.0927 H              1 RES1               0.0000
     26 H26        -39.3372  27.4405   2.6755 H              1 RES1               0.0000
     27 H27        -45.7661  25.2649   4.8008 H              1 RES1               0.0000
     28 H28        -42.7808  23.4691   7.2591 H              1 RES1               0.0000
     29 H29        -45.1453  24.0207   6.8364 H              1 RES1               0.0000
@<TRIPOS>BOND
    1    1    2 1     
    2    1    3 1     
    3    1    4 1     
    4    1    5 1     
    5    2    6 ar    
    6    2    7 ar    
    7    3    8 1     
    8    3    9 2     
    9    4   10 1     
   10    4   11 2     
   11    5   12 1     
   12    5   18 1     
   13    5   19 1     
   14    6   13 ar    
   15    6   20 1     
   16    7   14 ar    
   17    7   21 1     
   18    8   15 1     
   19    8   22 1     
   20   10   15 1     
   21   10   23 1     
   22   12   24 1     
   23   12   25 1     
   24   12   26 1     
   25   13   16 ar    
   26   13   27 1     
   27   14   16 ar    
   28   14   28 1     
   29   15   17 2     
   30   16   29 1     
@<TRIPOS>SUBSTRUCTURE
      1 RES1           1
@<TRIPOS>SET
DONOR_HYDROGENS      STATIC     ATOMS    <user>   **** ""
2 22 23
ATOM$RED        STATIC     ATOMS    COLORGROUP SYSTEM
2 22 23
@<TRIPOS>COMMENT
> <Gold.Version>
2022.3.0

> <Gold.Id.Protein>
unknown|7ta6_clean|pdb

> <Gold.Protein.RotatedTorsions>
[ 12165 12063 12062 12060 ] final  -65.76 input   59.99 | X-H torsion
[ 20658 20574 20578 20575 ] final    9.05 input   43.92 | X-H torsion
[ 2816 2645 2646 2647 ] final   76.24 input  110.81 | X-H torsion
[ 17263 17182 17186 17183 ] final -140.60 input   60.00 | X-H torsion
[ 17267 17185 17184 17183 ] final   81.40 input   59.97 | X-H torsion
[ 17444 17358 17359 17360 ] final  -86.03 input   71.00 | X-H torsion
[ 20662 20577 20576 20575 ] final   69.54 input   60.02 | X-H torsion
[ 20694 2648 2647 2646 ] final -176.54 input    0.00 | X-H torsion
[ 20700 20479 20478 20477 ] final  -33.27 input   -0.00 | X-H torsion

> <Gold.Protein.ActiveResidues>
 TRP28   LEU57   TYR119  GLY121  GLY122  VAL123  XCP1    LEU2    TRP4    CYS27  
 XCP29  

> <Gold.Protein.RotatedAtoms>
  -39.9507   29.6763   12.1534 H   0  0  0  0  0  0  0  0  0  0  0  0  # atno 2816 bound_to 2645
  -40.2880   22.1242    8.1864 H   0  0  0  0  0  0  0  0  0  0  0  0  # atno 12165 bound_to 12063
  -48.5451   32.0728    6.0908 H   0  0  0  0  0  0  0  0  0  0  0  0  # atno 17263 bound_to 17182
  -47.5156   33.3673    5.9839 H   0  0  0  0  0  0  0  0  0  0  0  0  # atno 17264 bound_to 17182
  -45.1370   32.2868    9.6329 H   0  0  0  0  0  0  0  0  0  0  0  0  # atno 17267 bound_to 17185
  -33.2905   27.4702    8.0955 H   0  0  0  0  0  0  0  0  0  0  0  0  # atno 17444 bound_to 17358
  -40.2110   31.5349   11.1539 H   0  0  0  0  0  0  0  0  0  0  0  0  # atno 20658 bound_to 20574
  -38.3193   32.6043    9.3193 H   0  0  0  0  0  0  0  0  0  0  0  0  # atno 20662 bound_to 20577
  -40.9086   31.7060    7.8755 LP  0  0  0  0  0  0  0  0  0  0  0  0  # atno 20694 bound_to 2648
  -40.7003   29.9993    7.6662 LP  0  0  0  0  0  0  0  0  0  0  0  0  # atno 20695 bound_to 2648
  -40.1100   23.4127    7.2087 LP  0  0  0  0  0  0  0  0  0  0  0  0  # atno 20696 bound_to 12063
  -39.3169   23.3504    8.6348 LP  0  0  0  0  0  0  0  0  0  0  0  0  # atno 20697 bound_to 12063
  -36.9946   30.8625   10.2830 LP  0  0  0  0  0  0  0  0  0  0  0  0  # atno 20700 bound_to 20479
  -38.0169   29.8551    9.3134 LP  0  0  0  0  0  0  0  0  0  0  0  0  # atno 20701 bound_to 20479
  -41.1835   30.8779    9.8578 LP  0  0  0  0  0  0  0  0  0  0  0  0  # atno 20702 bound_to 20574
  -38.5564   29.1438   11.2391 LP  0  0  0  0  0  0  0  0  0  0  0  0  # atno 20703 bound_to 2645
  -47.5255   32.2168    4.8079 LP  0  0  0  0  0  0  0  0  0  0  0  0  # atno 20704 bound_to 17182
  -46.5353   31.7633    8.9862 LP  0  0  0  0  0  0  0  0  0  0  0  0  # atno 20705 bound_to 17185
  -46.5049   33.1352    9.8714 LP  0  0  0  0  0  0  0  0  0  0  0  0  # atno 20706 bound_to 17185
  -33.8220   26.8578    6.4852 LP  0  0  0  0  0  0  0  0  0  0  0  0  # atno 20707 bound_to 17358
  -37.7738   33.1209   10.7633 LP  0  0  0  0  0  0  0  0  0  0  0  0  # atno 20708 bound_to 20577
  -37.2127   33.7961    9.3864 LP  0  0  0  0  0  0  0  0  0  0  0  0  # atno 20709 bound_to 20577

> <Gold.Score>
     Fitness  S(hb_ext) S(vdw_ext)  S(hb_int)    S(int)      intcor
     24.80       0.18      18.21       0.00      -0.42      -0.76

> <Gold.Goldscore.Fitness>
24.7991

> <Gold.Goldscore.Internal.Vdw>
-0.5967

> <Gold.Goldscore.Internal.Torsion>
-0.5790

> <Gold.Goldscore.External.Vdw>
18.2096

> <Gold.Goldscore.Internal.HBond>
0.0000

> <Gold.Goldscore.External.HBond>
0.1781

> <Gold.Goldscore.Internal.Correction>
-0.7585

> <Gold.Goldscore.Hbonds>
donor molecule, donor type, donor heavy atom, donor atom, acceptor molecule, acceptor atom, score
      P1  H  2655  2822       L1    11  0.09

> <Gold.Goldscore.Internal.Vdw.Weighted>
-0.5967

> <Gold.Goldscore.Internal.Torsion.Weighted>
-0.5790

> <Gold.Goldscore.External.Vdw.Weighted>
25.0382

> <Gold.Goldscore.Internal.HBond.Weighted>
0.0000

> <Gold.Goldscore.External.HBond.Weighted>
0.1781

> <Gold.Goldscore.Internal.Correction.Weighted>
-0.7585

> <Gold.Rescore>
     Score     S(PLP)   S(hbond)     S(cho)   S(metal)  DE(clash)   DE(tors)     intcor
     23.15     -25.20       0.00       0.00       0.00       0.02       1.02       ----

> <Gold.PLP.Fitness>
23.1454

> <Gold.PLP.PLP>
-25.2043

> <Gold.PLP.part.hbond>
0.0000

> <Gold.PLP.part.metal>
0.0000

> <Gold.PLP.part.buried>
-1.9682

> <Gold.PLP.part.nonpolar>
-22.0780

> <Gold.PLP.part.repulsive>
0.0669

> <Gold.PLP.ligand.clash>
0.0186

> <Gold.PLP.ligand.torsion>
1.0201

> <Gold.PLP.Chemscore.Hbond>
0.0000

> <Gold.PLP.Chemscore.CHOScore>
0.0000

> <Gold.PLP.Chemscore.Metal>
0.0000

> <Gold.PLP.Chemscore.Internal.Correction>
   9.000000E+99

