#       Name:                CT1002167954
#       Creating user name   hitesit
#       Creation time:       Sun Apr 16 02:24:21 2023


#       File generated by GOLD software.
#

@<TRIPOS>MOLECULE
CT1002167954|ligand_prepared|mol2|1|dock1
    29    30     1
SMALL
NO_CHARGES


@<TRIPOS>ATOM
      1 C1         -41.0450  25.5833   3.2433 C.3            1 RES1               0.0000
      2 C2         -42.0700  25.1773   4.3218 C.ar           1 RES1               0.0000
      3 C3         -40.3469  26.8356   3.7656 C.2            1 RES1               0.0000
      4 C4         -40.1197  24.3852   3.0616 C.2            1 RES1               0.0000
      5 C5         -41.6783  25.9102   1.8709 C.3            1 RES1               0.0000
      6 C6         -41.6507  24.8250   5.6012 C.ar           1 RES1               0.0000
      7 C7         -43.4361  25.1528   4.0536 C.ar           1 RES1               0.0000
      8 N8         -39.0663  26.7038   4.2157 N.am           1 RES1               0.0000
      9 O9         -40.9247  27.9142   3.8185 O.2            1 RES1               0.0000
     10 N10        -38.8057  24.5280   3.4234 N.am           1 RES1               0.0000
     11 O11        -40.5203  23.3136   2.6241 O.2            1 RES1               0.0000
     12 C12        -40.6655  26.2980   0.8050 C.3            1 RES1               0.0000
     13 C13        -42.5639  24.4642   6.5779 C.ar           1 RES1               0.0000
     14 C14        -44.3477  24.7915   5.0318 C.ar           1 RES1               0.0000
     15 C15        -38.2439  25.6233   4.0208 C.2            1 RES1               0.0000
     16 C16        -43.9129  24.4476   6.2941 C.ar           1 RES1               0.0000
     17 O17        -37.0665  25.6564   4.3668 O.2            1 RES1               0.0000
     18 H18        -42.2390  25.0339   1.5230 H              1 RES1               0.0000
     19 H19        -42.3903  26.7351   1.9981 H              1 RES1               0.0000
     20 H20        -40.5929  24.8298   5.8423 H              1 RES1               0.0000
     21 H21        -43.8009  25.4185   3.0672 H              1 RES1               0.0000
     22 H22        -38.6848  27.4804   4.7464 H              1 RES1               0.0000
     23 H23        -38.1892  23.7454   3.2291 H              1 RES1               0.0000
     24 H24        -41.1625  26.5171  -0.1377 H              1 RES1               0.0000
     25 H25        -40.1069  27.1815   1.1069 H              1 RES1               0.0000
     26 H26        -39.9565  25.4905   0.6347 H              1 RES1               0.0000
     27 H27        -42.2166  24.1931   7.5694 H              1 RES1               0.0000
     28 H28        -45.4084  24.7793   4.8038 H              1 RES1               0.0000
     29 H29        -44.6282  24.1653   7.0595 H              1 RES1               0.0000
@<TRIPOS>BOND
    1    1    2 1     
    2    1    3 1     
    3    1    4 1     
    4    1    5 1     
    5    2    6 ar    
    6    2    7 ar    
    7    3    8 1     
    8    3    9 2     
    9    4   10 1     
   10    4   11 2     
   11    5   12 1     
   12    5   18 1     
   13    5   19 1     
   14    6   13 ar    
   15    6   20 1     
   16    7   14 ar    
   17    7   21 1     
   18    8   15 1     
   19    8   22 1     
   20   10   15 1     
   21   10   23 1     
   22   12   24 1     
   23   12   25 1     
   24   12   26 1     
   25   13   16 ar    
   26   13   27 1     
   27   14   16 ar    
   28   14   28 1     
   29   15   17 2     
   30   16   29 1     
@<TRIPOS>SUBSTRUCTURE
      1 RES1           1
@<TRIPOS>SET
DONOR_HYDROGENS      STATIC     ATOMS    <user>   **** ""
2 22 23
ATOM$RED        STATIC     ATOMS    COLORGROUP SYSTEM
2 22 23
@<TRIPOS>COMMENT
> <Gold.Version>
2022.3.0

> <Gold.Id.Protein>
unknown|7ta6_clean|pdb

> <Gold.Protein.RotatedTorsions>
[ 12165 12063 12062 12060 ] final  -53.57 input   59.99 | X-H torsion
[ 20658 20574 20578 20575 ] final  100.72 input   43.92 | X-H torsion
[ 2816 2645 2646 2647 ] final  -19.33 input  110.81 | X-H torsion
[ 17263 17182 17186 17183 ] final   86.79 input   60.00 | X-H torsion
[ 17267 17185 17184 17183 ] final -168.74 input   59.97 | X-H torsion
[ 17444 17358 17359 17360 ] final -167.67 input   71.00 | X-H torsion
[ 20662 20577 20576 20575 ] final -148.49 input   60.02 | X-H torsion
[ 20694 2648 2647 2646 ] final   18.29 input    0.00 | X-H torsion
[ 20700 20479 20478 20477 ] final   99.22 input   -0.00 | X-H torsion

> <Gold.Protein.ActiveResidues>
 TRP28   LEU57   TYR119  GLY121  GLY122  VAL123  XCP1    LEU2    TRP4    CYS27  
 XCP29  

> <Gold.Protein.RotatedAtoms>
  -38.9856   30.2201   11.4413 H   0  0  0  0  0  0  0  0  0  0  0  0  # atno 2816 bound_to 2645
  -40.1834   22.1355    8.3550 H   0  0  0  0  0  0  0  0  0  0  0  0  # atno 12165 bound_to 12063
  -47.4019   32.3853    4.8002 H   0  0  0  0  0  0  0  0  0  0  0  0  # atno 17263 bound_to 17182
  -48.5300   31.9391    5.9294 H   0  0  0  0  0  0  0  0  0  0  0  0  # atno 17264 bound_to 17182
  -46.3525   33.1722    9.9265 H   0  0  0  0  0  0  0  0  0  0  0  0  # atno 17267 bound_to 17185
  -34.1441   27.9476    7.2775 H   0  0  0  0  0  0  0  0  0  0  0  0  # atno 17444 bound_to 17358
  -41.4330   31.2218   10.9997 H   0  0  0  0  0  0  0  0  0  0  0  0  # atno 20658 bound_to 20574
  -37.1408   33.8609    9.7313 H   0  0  0  0  0  0  0  0  0  0  0  0  # atno 20662 bound_to 20577
  -40.9230   29.9991    7.6848 LP  0  0  0  0  0  0  0  0  0  0  0  0  # atno 20694 bound_to 2648
  -40.6858   31.7062    7.8568 LP  0  0  0  0  0  0  0  0  0  0  0  0  # atno 20695 bound_to 2648
  -40.2243   23.2524    7.1724 LP  0  0  0  0  0  0  0  0  0  0  0  0  # atno 20696 bound_to 12063
  -39.3079   23.4993    8.5013 LP  0  0  0  0  0  0  0  0  0  0  0  0  # atno 20697 bound_to 12063
  -37.4157   29.5520    9.4966 LP  0  0  0  0  0  0  0  0  0  0  0  0  # atno 20700 bound_to 20479
  -37.5957   31.1656   10.0998 LP  0  0  0  0  0  0  0  0  0  0  0  0  # atno 20701 bound_to 20479
  -39.9935   31.1828   10.0079 LP  0  0  0  0  0  0  0  0  0  0  0  0  # atno 20702 bound_to 20574
  -39.4912   28.6170   11.9289 LP  0  0  0  0  0  0  0  0  0  0  0  0  # atno 20703 bound_to 2645
  -47.6528   33.3158    6.1333 LP  0  0  0  0  0  0  0  0  0  0  0  0  # atno 20704 bound_to 17182
  -45.1484   32.1470    9.5437 LP  0  0  0  0  0  0  0  0  0  0  0  0  # atno 20705 bound_to 17185
  -46.6675   31.8596    9.0181 LP  0  0  0  0  0  0  0  0  0  0  0  0  # atno 20706 bound_to 17185
  -33.1228   26.4669    7.1551 LP  0  0  0  0  0  0  0  0  0  0  0  0  # atno 20707 bound_to 17358
  -38.1597   32.7863    9.0554 LP  0  0  0  0  0  0  0  0  0  0  0  0  # atno 20708 bound_to 20577
  -38.0128   32.8661   10.6798 LP  0  0  0  0  0  0  0  0  0  0  0  0  # atno 20709 bound_to 20577

> <Gold.Score>
     Fitness  S(hb_ext) S(vdw_ext)  S(hb_int)    S(int)      intcor
     28.27       0.00      20.57       0.00      -0.02      -0.77

> <Gold.Goldscore.Fitness>
28.2726

> <Gold.Goldscore.Internal.Vdw>
-0.4170

> <Gold.Goldscore.Internal.Torsion>
-0.3675

> <Gold.Goldscore.External.Vdw>
20.5729

> <Gold.Goldscore.Internal.HBond>
0.0000

> <Gold.Goldscore.External.HBond>
0.0000

> <Gold.Goldscore.Internal.Correction>
-0.7693

> <Gold.Goldscore.Internal.Vdw.Weighted>
-0.4170

> <Gold.Goldscore.Internal.Torsion.Weighted>
-0.3675

> <Gold.Goldscore.External.Vdw.Weighted>
28.2877

> <Gold.Goldscore.Internal.HBond.Weighted>
0.0000

> <Gold.Goldscore.External.HBond.Weighted>
0.0000

> <Gold.Goldscore.Internal.Correction.Weighted>
-0.7693

> <Gold.Rescore>
     Score     S(PLP)   S(hbond)     S(cho)   S(metal)  DE(clash)   DE(tors)     intcor
     26.39     -26.43       0.00       0.00       0.00       0.00       0.02       ----

> <Gold.PLP.Fitness>
26.3915

> <Gold.PLP.PLP>
-26.4305

> <Gold.PLP.part.hbond>
0.0000

> <Gold.PLP.part.metal>
0.0000

> <Gold.PLP.part.buried>
-3.0495

> <Gold.PLP.part.nonpolar>
-24.2543

> <Gold.PLP.part.repulsive>
0.0819

> <Gold.PLP.ligand.clash>
0.0000

> <Gold.PLP.ligand.torsion>
0.0195

> <Gold.PLP.Chemscore.Hbond>
0.0000

> <Gold.PLP.Chemscore.CHOScore>
0.0000

> <Gold.PLP.Chemscore.Metal>
0.0000

> <Gold.PLP.Chemscore.Internal.Correction>
   9.000000E+99

