#       Name:                CT1002167954
#       Creating user name   hitesit
#       Creation time:       Sun Apr 16 02:24:23 2023


#       File generated by GOLD software.
#

@<TRIPOS>MOLECULE
CT1002167954|ligand_prepared|mol2|1|dock5
    29    30     1
SMALL
NO_CHARGES


@<TRIPOS>ATOM
      1 C1         -41.4451  24.5475   2.8437 C.3            1 RES1               0.0000
      2 C2         -42.1925  24.6093   4.1914 C.ar           1 RES1               0.0000
      3 C3         -39.9593  24.6598   3.1723 C.2            1 RES1               0.0000
      4 C4         -41.8409  23.2249   2.1966 C.2            1 RES1               0.0000
      5 C5         -41.8201  25.6877   1.8685 C.3            1 RES1               0.0000
      6 C6         -43.5836  24.6247   4.2302 C.ar           1 RES1               0.0000
      7 C7         -41.5060  24.6486   5.4021 C.ar           1 RES1               0.0000
      8 N8         -39.2023  23.5300   3.0697 N.am           1 RES1               0.0000
      9 O9         -39.4671  25.7146   3.5537 O.2            1 RES1               0.0000
     10 N10        -40.8669  22.2761   2.0273 N.am           1 RES1               0.0000
     11 O11        -42.9910  22.9896   1.8470 O.2            1 RES1               0.0000
     12 C12        -41.1316  25.5891   0.5163 C.3            1 RES1               0.0000
     13 C13        -44.2638  24.6745   5.4357 C.ar           1 RES1               0.0000
     14 C14        -42.1882  24.6986   6.6065 C.ar           1 RES1               0.0000
     15 C15        -39.5721  22.3569   2.4624 C.2            1 RES1               0.0000
     16 C16        -43.5667  24.7111   6.6245 C.ar           1 RES1               0.0000
     17 O17        -38.7689  21.4393   2.3213 O.2            1 RES1               0.0000
     18 H18        -42.9060  25.6769   1.7135 H              1 RES1               0.0000
     19 H19        -41.5567  26.6476   2.3296 H              1 RES1               0.0000
     20 H20        -44.1491  24.5989   3.3047 H              1 RES1               0.0000
     21 H21        -40.4214  24.6407   5.4121 H              1 RES1               0.0000
     22 H22        -38.2756  23.5601   3.4828 H              1 RES1               0.0000
     23 H23        -41.1314  21.4313   1.5307 H              1 RES1               0.0000
     24 H24        -41.4295  26.4127  -0.1292 H              1 RES1               0.0000
     25 H25        -40.0501  25.6222   0.6307 H              1 RES1               0.0000
     26 H26        -41.3914  24.6572   0.0182 H              1 RES1               0.0000
     27 H27        -45.3487  24.6855   5.4444 H              1 RES1               0.0000
     28 H28        -41.6355  24.7279   7.5397 H              1 RES1               0.0000
     29 H29        -44.0998  24.7497   7.5687 H              1 RES1               0.0000
@<TRIPOS>BOND
    1    1    2 1     
    2    1    3 1     
    3    1    4 1     
    4    1    5 1     
    5    2    6 ar    
    6    2    7 ar    
    7    3    8 1     
    8    3    9 2     
    9    4   10 1     
   10    4   11 2     
   11    5   12 1     
   12    5   18 1     
   13    5   19 1     
   14    6   13 ar    
   15    6   20 1     
   16    7   14 ar    
   17    7   21 1     
   18    8   15 1     
   19    8   22 1     
   20   10   15 1     
   21   10   23 1     
   22   12   24 1     
   23   12   25 1     
   24   12   26 1     
   25   13   16 ar    
   26   13   27 1     
   27   14   16 ar    
   28   14   28 1     
   29   15   17 2     
   30   16   29 1     
@<TRIPOS>SUBSTRUCTURE
      1 RES1           1
@<TRIPOS>SET
DONOR_HYDROGENS      STATIC     ATOMS    <user>   **** ""
2 22 23
ATOM$RED        STATIC     ATOMS    COLORGROUP SYSTEM
2 22 23
@<TRIPOS>COMMENT
> <Gold.Version>
2022.3.0

> <Gold.Id.Protein>
unknown|7ta6_clean|pdb

> <Gold.Protein.RotatedTorsions>
[ 12165 12063 12062 12060 ] final  -82.48 input   59.99 | X-H torsion
[ 20658 20574 20578 20575 ] final    3.15 input   43.92 | X-H torsion
[ 2816 2645 2646 2647 ] final  -59.16 input  110.81 | X-H torsion
[ 17263 17182 17186 17183 ] final  170.57 input   60.00 | X-H torsion
[ 17267 17185 17184 17183 ] final  172.15 input   59.97 | X-H torsion
[ 17444 17358 17359 17360 ] final   83.17 input   71.00 | X-H torsion
[ 20662 20577 20576 20575 ] final -103.15 input   60.02 | X-H torsion
[ 20694 2648 2647 2646 ] final   57.83 input    0.00 | X-H torsion
[ 20700 20479 20478 20477 ] final  -75.98 input   -0.00 | X-H torsion

> <Gold.Protein.ActiveResidues>
 TRP28   LEU57   TYR119  GLY121  GLY122  VAL123  XCP1    LEU2    TRP4    CYS27  
 XCP29  

> <Gold.Protein.RotatedAtoms>
  -38.6103   29.8057   11.2084 H   0  0  0  0  0  0  0  0  0  0  0  0  # atno 2816 bound_to 2645
  -40.4026   22.1698    7.9437 H   0  0  0  0  0  0  0  0  0  0  0  0  # atno 12165 bound_to 12063
  -48.3149   31.7352    5.4135 H   0  0  0  0  0  0  0  0  0  0  0  0  # atno 17263 bound_to 17182
  -48.0780   33.0271    6.4244 H   0  0  0  0  0  0  0  0  0  0  0  0  # atno 17264 bound_to 17182
  -46.0512   33.1834   10.0014 H   0  0  0  0  0  0  0  0  0  0  0  0  # atno 17267 bound_to 17185
  -34.0370   26.5281    6.5703 H   0  0  0  0  0  0  0  0  0  0  0  0  # atno 17444 bound_to 17358
  -40.1401   31.5306   11.0966 H   0  0  0  0  0  0  0  0  0  0  0  0  # atno 20658 bound_to 20574
  -37.2681   33.6893   10.4212 H   0  0  0  0  0  0  0  0  0  0  0  0  # atno 20662 bound_to 20577
  -41.4401   30.2646    7.7579 LP  0  0  0  0  0  0  0  0  0  0  0  0  # atno 20694 bound_to 2648
  -40.1688   31.4407    7.7837 LP  0  0  0  0  0  0  0  0  0  0  0  0  # atno 20695 bound_to 2648
  -39.9393   23.5981    7.3167 LP  0  0  0  0  0  0  0  0  0  0  0  0  # atno 20696 bound_to 12063
  -39.3721   23.1190    8.7712 LP  0  0  0  0  0  0  0  0  0  0  0  0  # atno 20697 bound_to 12063
  -37.5305   31.1581   10.1306 LP  0  0  0  0  0  0  0  0  0  0  0  0  # atno 20700 bound_to 20479
  -37.4810   29.5595    9.4658 LP  0  0  0  0  0  0  0  0  0  0  0  0  # atno 20701 bound_to 20479
  -41.2525   30.8820    9.9136 LP  0  0  0  0  0  0  0  0  0  0  0  0  # atno 20702 bound_to 20574
  -39.8548   29.0184   12.1544 LP  0  0  0  0  0  0  0  0  0  0  0  0  # atno 20703 bound_to 2645
  -47.1984   32.8846    5.0414 LP  0  0  0  0  0  0  0  0  0  0  0  0  # atno 20704 bound_to 17182
  -45.2575   31.9118    9.3686 LP  0  0  0  0  0  0  0  0  0  0  0  0  # atno 20705 bound_to 17185
  -46.8619   32.0836    9.1178 LP  0  0  0  0  0  0  0  0  0  0  0  0  # atno 20706 bound_to 17185
  -33.2106   27.6294    7.7343 LP  0  0  0  0  0  0  0  0  0  0  0  0  # atno 20707 bound_to 17358
  -37.6831   33.3106    8.8934 LP  0  0  0  0  0  0  0  0  0  0  0  0  # atno 20708 bound_to 20577
  -38.3612   32.5146   10.1476 LP  0  0  0  0  0  0  0  0  0  0  0  0  # atno 20709 bound_to 20577

> <Gold.Score>
     Fitness  S(hb_ext) S(vdw_ext)  S(hb_int)    S(int)      intcor
     27.19       0.00      21.52       0.00      -2.39      -0.76

> <Gold.Goldscore.Fitness>
27.1931

> <Gold.Goldscore.Internal.Vdw>
-2.7744

> <Gold.Goldscore.Internal.Torsion>
-0.3781

> <Gold.Goldscore.External.Vdw>
21.5170

> <Gold.Goldscore.Internal.HBond>
0.0000

> <Gold.Goldscore.External.HBond>
0.0000

> <Gold.Goldscore.Internal.Correction>
-0.7597

> <Gold.Goldscore.Internal.Vdw.Weighted>
-2.7744

> <Gold.Goldscore.Internal.Torsion.Weighted>
-0.3781

> <Gold.Goldscore.External.Vdw.Weighted>
29.5859

> <Gold.Goldscore.Internal.HBond.Weighted>
0.0000

> <Gold.Goldscore.External.HBond.Weighted>
0.0000

> <Gold.Goldscore.Internal.Correction.Weighted>
-0.7597

> <Gold.Rescore>
     Score     S(PLP)   S(hbond)     S(cho)   S(metal)  DE(clash)   DE(tors)     intcor
     22.07     -23.70       0.00       0.00       0.00       0.58       0.53       ----

> <Gold.PLP.Fitness>
22.0705

> <Gold.PLP.PLP>
-23.7037

> <Gold.PLP.part.hbond>
0.0000

> <Gold.PLP.part.metal>
0.0000

> <Gold.PLP.part.buried>
-2.5170

> <Gold.PLP.part.nonpolar>
-21.1310

> <Gold.PLP.part.repulsive>
0.1904

> <Gold.PLP.ligand.clash>
0.5804

> <Gold.PLP.ligand.torsion>
0.5264

> <Gold.PLP.Chemscore.Hbond>
0.0000

> <Gold.PLP.Chemscore.CHOScore>
0.0000

> <Gold.PLP.Chemscore.Metal>
0.0000

> <Gold.PLP.Chemscore.Internal.Correction>
   9.000000E+99

