#       Name:                CT1002167954
#       Creating user name   hitesit
#       Creation time:       Sun Apr 16 02:24:22 2023


#       File generated by GOLD software.
#

@<TRIPOS>MOLECULE
CT1002167954|ligand_prepared|mol2|1|dock3
    29    30     1
SMALL
NO_CHARGES


@<TRIPOS>ATOM
      1 C1         -44.6393  25.3474   2.8992 C.3            1 RES1               0.0000
      2 C2         -43.7567  25.0192   4.1207 C.ar           1 RES1               0.0000
      3 C3         -44.9000  24.0215   2.1904 C.2            1 RES1               0.0000
      4 C4         -45.8945  26.0171   3.4474 C.2            1 RES1               0.0000
      5 C5         -43.9789  26.3199   1.8944 C.3            1 RES1               0.0000
      6 C6         -44.3313  24.7678   5.3630 C.ar           1 RES1               0.0000
      7 C7         -42.3692  24.9617   4.0203 C.ar           1 RES1               0.0000
      8 N8         -46.1441  23.4755   2.3091 N.am           1 RES1               0.0000
      9 O9         -44.0160  23.4442   1.5695 O.2            1 RES1               0.0000
     10 N10        -47.0882  25.3600   3.3026 N.am           1 RES1               0.0000
     11 O11        -45.8581  27.1002   4.0182 O.2            1 RES1               0.0000
     12 C12        -44.9449  26.8903   0.8679 C.3            1 RES1               0.0000
     13 C13        -43.5474  24.4668   6.4645 C.ar           1 RES1               0.0000
     14 C14        -41.5871  24.6608   5.1232 C.ar           1 RES1               0.0000
     15 C15        -47.2655  24.1056   2.7857 C.2            1 RES1               0.0000
     16 C16        -42.1750  24.4127   6.3453 C.ar           1 RES1               0.0000
     17 O17        -48.3638  23.5591   2.7388 O.2            1 RES1               0.0000
     18 H18        -43.5255  27.1491   2.4515 H              1 RES1               0.0000
     19 H19        -43.1752  25.7911   1.3672 H              1 RES1               0.0000
     20 H20        -45.4095  24.8083   5.4766 H              1 RES1               0.0000
     21 H21        -41.8848  25.1543   3.0691 H              1 RES1               0.0000
     22 H22        -46.2504  22.5094   2.0166 H              1 RES1               0.0000
     23 H23        -47.9220  25.8517   3.6084 H              1 RES1               0.0000
     24 H24        -44.4304  27.5660   0.1878 H              1 RES1               0.0000
     25 H25        -45.3956  26.0946   0.2785 H              1 RES1               0.0000
     26 H26        -45.7437  27.4445   1.3563 H              1 RES1               0.0000
     27 H27        -44.0149  24.2738   7.4244 H              1 RES1               0.0000
     28 H28        -40.5073  24.6198   5.0250 H              1 RES1               0.0000
     29 H29        -41.5612  24.1765   7.2083 H              1 RES1               0.0000
@<TRIPOS>BOND
    1    1    2 1     
    2    1    3 1     
    3    1    4 1     
    4    1    5 1     
    5    2    6 ar    
    6    2    7 ar    
    7    3    8 1     
    8    3    9 2     
    9    4   10 1     
   10    4   11 2     
   11    5   12 1     
   12    5   18 1     
   13    5   19 1     
   14    6   13 ar    
   15    6   20 1     
   16    7   14 ar    
   17    7   21 1     
   18    8   15 1     
   19    8   22 1     
   20   10   15 1     
   21   10   23 1     
   22   12   24 1     
   23   12   25 1     
   24   12   26 1     
   25   13   16 ar    
   26   13   27 1     
   27   14   16 ar    
   28   14   28 1     
   29   15   17 2     
   30   16   29 1     
@<TRIPOS>SUBSTRUCTURE
      1 RES1           1
@<TRIPOS>SET
DONOR_HYDROGENS      STATIC     ATOMS    <user>   **** ""
2 22 23
ATOM$RED        STATIC     ATOMS    COLORGROUP SYSTEM
2 22 23
@<TRIPOS>COMMENT
> <Gold.Version>
2022.3.0

> <Gold.Id.Protein>
unknown|7ta6_clean|pdb

> <Gold.Protein.RotatedTorsions>
[ 12165 12063 12062 12060 ] final   74.53 input   59.99 | X-H torsion
[ 20658 20574 20578 20575 ] final   27.81 input   43.92 | X-H torsion
[ 2816 2645 2646 2647 ] final -113.45 input  110.81 | X-H torsion
[ 17263 17182 17186 17183 ] final   11.72 input   60.00 | X-H torsion
[ 17267 17185 17184 17183 ] final  119.70 input   59.97 | X-H torsion
[ 17444 17358 17359 17360 ] final  -84.02 input   71.00 | X-H torsion
[ 20662 20577 20576 20575 ] final  -46.98 input   60.02 | X-H torsion
[ 20694 2648 2647 2646 ] final  120.53 input    0.00 | X-H torsion
[ 20700 20479 20478 20477 ] final   19.85 input   -0.00 | X-H torsion

> <Gold.Protein.ActiveResidues>
 TRP28   LEU57   TYR119  GLY121  GLY122  VAL123  XCP1    LEU2    TRP4    CYS27  
 XCP29  

> <Gold.Protein.RotatedAtoms>
  -38.5873   28.9958   11.2494 H   0  0  0  0  0  0  0  0  0  0  0  0  # atno 2816 bound_to 2645
  -39.3196   23.5797    8.3962 H   0  0  0  0  0  0  0  0  0  0  0  0  # atno 12165 bound_to 12063
  -47.2538   33.2841    5.5276 H   0  0  0  0  0  0  0  0  0  0  0  0  # atno 17263 bound_to 17182
  -47.8940   31.8668    4.9548 H   0  0  0  0  0  0  0  0  0  0  0  0  # atno 17264 bound_to 17182
  -45.3241   32.7976    9.9179 H   0  0  0  0  0  0  0  0  0  0  0  0  # atno 17267 bound_to 17185
  -33.2733   27.4409    8.1003 H   0  0  0  0  0  0  0  0  0  0  0  0  # atno 17444 bound_to 17358
  -40.4669   31.5254   11.2873 H   0  0  0  0  0  0  0  0  0  0  0  0  # atno 20658 bound_to 20574
  -37.8142   33.0814   10.7533 H   0  0  0  0  0  0  0  0  0  0  0  0  # atno 20662 bound_to 20577
  -41.6147   31.1414    7.8711 LP  0  0  0  0  0  0  0  0  0  0  0  0  # atno 20694 bound_to 2648
  -39.9941   30.5639    7.6706 LP  0  0  0  0  0  0  0  0  0  0  0  0  # atno 20695 bound_to 2648
  -40.1097   22.1588    8.4630 LP  0  0  0  0  0  0  0  0  0  0  0  0  # atno 20696 bound_to 12063
  -40.2927   23.1380    7.1691 LP  0  0  0  0  0  0  0  0  0  0  0  0  # atno 20697 bound_to 12063
  -36.7268   30.1550   10.1172 LP  0  0  0  0  0  0  0  0  0  0  0  0  # atno 20700 bound_to 20479
  -38.2846   30.5626    9.4791 LP  0  0  0  0  0  0  0  0  0  0  0  0  # atno 20701 bound_to 20479
  -40.9343   30.8872    9.7279 LP  0  0  0  0  0  0  0  0  0  0  0  0  # atno 20702 bound_to 20574
  -39.8770   29.8029   12.1147 LP  0  0  0  0  0  0  0  0  0  0  0  0  # atno 20703 bound_to 2645
  -48.4253   32.5013    6.3766 LP  0  0  0  0  0  0  0  0  0  0  0  0  # atno 20704 bound_to 17182
  -45.9407   31.5948    9.0120 LP  0  0  0  0  0  0  0  0  0  0  0  0  # atno 20705 bound_to 17185
  -46.9111   32.7891    9.5585 LP  0  0  0  0  0  0  0  0  0  0  0  0  # atno 20706 bound_to 17185
  -33.8361   26.8818    6.4813 LP  0  0  0  0  0  0  0  0  0  0  0  0  # atno 20707 bound_to 17358
  -37.1945   33.8133    9.4380 LP  0  0  0  0  0  0  0  0  0  0  0  0  # atno 20708 bound_to 20577
  -38.3003   32.6236    9.2688 LP  0  0  0  0  0  0  0  0  0  0  0  0  # atno 20709 bound_to 20577

> <Gold.Score>
     Fitness  S(hb_ext) S(vdw_ext)  S(hb_int)    S(int)      intcor
     27.76       0.04      20.64       0.00      -0.66      -0.76

> <Gold.Goldscore.Fitness>
27.7619

> <Gold.Goldscore.Internal.Vdw>
-0.7837

> <Gold.Goldscore.Internal.Torsion>
-0.6322

> <Gold.Goldscore.External.Vdw>
20.6371

> <Gold.Goldscore.Internal.HBond>
0.0000

> <Gold.Goldscore.External.HBond>
0.0421

> <Gold.Goldscore.Internal.Correction>
-0.7597

> <Gold.Goldscore.Hbonds>
donor molecule, donor type, donor heavy atom, donor atom, acceptor molecule, acceptor atom, score
      P1  H 12484 12549       L1    17  0.02

> <Gold.Goldscore.Internal.Vdw.Weighted>
-0.7837

> <Gold.Goldscore.Internal.Torsion.Weighted>
-0.6322

> <Gold.Goldscore.External.Vdw.Weighted>
28.3760

> <Gold.Goldscore.Internal.HBond.Weighted>
0.0000

> <Gold.Goldscore.External.HBond.Weighted>
0.0421

> <Gold.Goldscore.Internal.Correction.Weighted>
-0.7597

> <Gold.Rescore>
     Score     S(PLP)   S(hbond)     S(cho)   S(metal)  DE(clash)   DE(tors)     intcor
     27.17     -27.06       0.79       0.00       0.00       0.00       1.13       ----

> <Gold.PLP.Fitness>
27.1720

> <Gold.PLP.PLP>
-27.0588

> <Gold.PLP.part.hbond>
-1.0000

> <Gold.PLP.part.metal>
0.0000

> <Gold.PLP.part.buried>
-3.4851

> <Gold.PLP.part.nonpolar>
-22.9907

> <Gold.PLP.part.repulsive>
0.3011

> <Gold.PLP.ligand.clash>
0.0000

> <Gold.PLP.ligand.torsion>
1.1329

> <Gold.PLP.Chemscore.Hbond>
0.7930

> <Gold.PLP.Chemscore.CHOScore>
0.0000

> <Gold.PLP.Chemscore.Metal>
0.0000

> <Gold.Chemscore.Hbonds>
donor molecule, donor type, donor heavy atom, donor atom, acceptor molecule, acceptor atom, score
      P1  H 12484 12549       L1    17  0.20

> <Gold.PLP.Chemscore.Internal.Correction>
   9.000000E+99

