#       Name:                CT1002167954
#       Creating user name   hitesit
#       Creation time:       Sun Apr 16 02:24:25 2023


#       File generated by GOLD software.
#

@<TRIPOS>MOLECULE
CT1002167954|ligand_prepared|mol2|1|dock9
    29    30     1
SMALL
NO_CHARGES


@<TRIPOS>ATOM
      1 C1         -46.0404  25.9381   3.1151 C.3            1 RES1               0.0000
      2 C2         -47.2191  26.8122   3.5899 C.ar           1 RES1               0.0000
      3 C3         -45.1756  26.8297   2.2289 C.2            1 RES1               0.0000
      4 C4         -45.3389  25.4463   4.3763 C.2            1 RES1               0.0000
      5 C5         -46.4715  24.7001   2.2946 C.3            1 RES1               0.0000
      6 C6         -47.1554  28.1992   3.4963 C.ar           1 RES1               0.0000
      7 C7         -48.3757  26.2469   4.1203 C.ar           1 RES1               0.0000
      8 N8         -43.9890  27.2672   2.7393 N.am           1 RES1               0.0000
      9 O9         -45.5471  27.1759   1.1143 O.2            1 RES1               0.0000
     10 N10        -44.0608  25.8811   4.6111 N.am           1 RES1               0.0000
     11 O11        -45.8873  24.6993   5.1772 O.2            1 RES1               0.0000
     12 C12        -45.3068  23.9115   1.7169 C.3            1 RES1               0.0000
     13 C13        -48.2108  28.9924   3.9150 C.ar           1 RES1               0.0000
     14 C14        -49.4299  27.0419   4.5387 C.ar           1 RES1               0.0000
     15 C15        -43.3652  26.7936   3.8655 C.2            1 RES1               0.0000
     16 C16        -49.3488  28.4144   4.4360 C.ar           1 RES1               0.0000
     17 O17        -42.2395  27.1763   4.1711 O.2            1 RES1               0.0000
     18 H18        -47.0616  24.0372   2.9393 H              1 RES1               0.0000
     19 H19        -47.1175  25.0295   1.4714 H              1 RES1               0.0000
     20 H20        -46.2669  28.6721   3.0912 H              1 RES1               0.0000
     21 H21        -48.4612  25.1694   4.2117 H              1 RES1               0.0000
     22 H22        -43.5223  28.0159   2.2373 H              1 RES1               0.0000
     23 H23        -43.5836  25.4881   5.4162 H              1 RES1               0.0000
     24 H24        -45.6646  23.0540   1.1508 H              1 RES1               0.0000
     25 H25        -44.7125  24.5334   1.0507 H              1 RES1               0.0000
     26 H26        -44.6569  23.5469   2.5098 H              1 RES1               0.0000
     27 H27        -48.1415  30.0721   3.8333 H              1 RES1               0.0000
     28 H28        -50.3234  26.5828   4.9487 H              1 RES1               0.0000
     29 H29        -50.1756  29.0359   4.7635 H              1 RES1               0.0000
@<TRIPOS>BOND
    1    1    2 1     
    2    1    3 1     
    3    1    4 1     
    4    1    5 1     
    5    2    6 ar    
    6    2    7 ar    
    7    3    8 1     
    8    3    9 2     
    9    4   10 1     
   10    4   11 2     
   11    5   12 1     
   12    5   18 1     
   13    5   19 1     
   14    6   13 ar    
   15    6   20 1     
   16    7   14 ar    
   17    7   21 1     
   18    8   15 1     
   19    8   22 1     
   20   10   15 1     
   21   10   23 1     
   22   12   24 1     
   23   12   25 1     
   24   12   26 1     
   25   13   16 ar    
   26   13   27 1     
   27   14   16 ar    
   28   14   28 1     
   29   15   17 2     
   30   16   29 1     
@<TRIPOS>SUBSTRUCTURE
      1 RES1           1
@<TRIPOS>SET
DONOR_HYDROGENS      STATIC     ATOMS    <user>   **** ""
2 22 23
ATOM$RED        STATIC     ATOMS    COLORGROUP SYSTEM
2 22 23
@<TRIPOS>COMMENT
> <Gold.Version>
2022.3.0

> <Gold.Id.Protein>
unknown|7ta6_clean|pdb

> <Gold.Protein.RotatedTorsions>
[ 12165 12063 12062 12060 ] final   -0.49 input   59.99 | X-H torsion
[ 20658 20574 20578 20575 ] final  -57.16 input   43.92 | X-H torsion
[ 2816 2645 2646 2647 ] final    5.66 input  110.81 | X-H torsion
[ 17263 17182 17186 17183 ] final   49.07 input   60.00 | X-H torsion
[ 17267 17185 17184 17183 ] final   96.91 input   59.97 | X-H torsion
[ 17444 17358 17359 17360 ] final  -88.19 input   71.00 | X-H torsion
[ 20662 20577 20576 20575 ] final  -27.05 input   60.02 | X-H torsion
[ 20694 2648 2647 2646 ] final   82.79 input    0.00 | X-H torsion
[ 20700 20479 20478 20477 ] final  164.68 input   -0.00 | X-H torsion

> <Gold.Protein.ActiveResidues>
 TRP28   LEU57   TYR119  GLY121  GLY122  VAL123  XCP1    LEU2    TRP4    CYS27  
 XCP29  

> <Gold.Protein.RotatedAtoms>
  -39.2978   30.2925   11.6541 H   0  0  0  0  0  0  0  0  0  0  0  0  # atno 2816 bound_to 2645
  -39.6523   22.5777    8.8261 H   0  0  0  0  0  0  0  0  0  0  0  0  # atno 12165 bound_to 12063
  -47.1882   32.9112    5.0461 H   0  0  0  0  0  0  0  0  0  0  0  0  # atno 17263 bound_to 17182
  -48.3017   31.7334    5.3923 H   0  0  0  0  0  0  0  0  0  0  0  0  # atno 17264 bound_to 17182
  -45.1659   32.5011    9.7636 H   0  0  0  0  0  0  0  0  0  0  0  0  # atno 17267 bound_to 17185
  -33.3095   27.5010    8.0893 H   0  0  0  0  0  0  0  0  0  0  0  0  # atno 17444 bound_to 17358
  -39.8520   31.3167   10.2822 H   0  0  0  0  0  0  0  0  0  0  0  0  # atno 20658 bound_to 20574
  -38.0278   32.8543   10.6644 H   0  0  0  0  0  0  0  0  0  0  0  0  # atno 20662 bound_to 20577
  -41.6271   30.5848    7.8096 LP  0  0  0  0  0  0  0  0  0  0  0  0  # atno 20694 bound_to 2648
  -39.9818   31.1205    7.7321 LP  0  0  0  0  0  0  0  0  0  0  0  0  # atno 20695 bound_to 2648
  -40.5031   22.5042    7.4411 LP  0  0  0  0  0  0  0  0  0  0  0  0  # atno 20696 bound_to 12063
  -39.5641   23.8020    7.7579 LP  0  0  0  0  0  0  0  0  0  0  0  0  # atno 20697 bound_to 12063
  -38.1739   30.0746    9.3262 LP  0  0  0  0  0  0  0  0  0  0  0  0  # atno 20700 bound_to 20479
  -36.8375   30.6430   10.2702 LP  0  0  0  0  0  0  0  0  0  0  0  0  # atno 20701 bound_to 20479
  -41.5330   31.0903   10.7067 LP  0  0  0  0  0  0  0  0  0  0  0  0  # atno 20702 bound_to 20574
  -39.1889   28.5469   11.7227 LP  0  0  0  0  0  0  0  0  0  0  0  0  # atno 20703 bound_to 2645
  -48.0883   33.0002    6.4201 LP  0  0  0  0  0  0  0  0  0  0  0  0  # atno 20704 bound_to 17182
  -46.3057   31.6549    8.9685 LP  0  0  0  0  0  0  0  0  0  0  0  0  # atno 20705 bound_to 17185
  -46.7055   33.0276    9.7575 LP  0  0  0  0  0  0  0  0  0  0  0  0  # atno 20706 bound_to 17185
  -33.8064   26.8326    6.4903 LP  0  0  0  0  0  0  0  0  0  0  0  0  # atno 20707 bound_to 17358
  -37.1330   33.8645    9.7543 LP  0  0  0  0  0  0  0  0  0  0  0  0  # atno 20708 bound_to 20577
  -38.1468   32.8009    9.0419 LP  0  0  0  0  0  0  0  0  0  0  0  0  # atno 20709 bound_to 20577

> <Gold.Score>
     Fitness  S(hb_ext) S(vdw_ext)  S(hb_int)    S(int)      intcor
     22.39       0.79      16.77       0.00      -1.46      -0.76

> <Gold.Goldscore.Fitness>
22.3879

> <Gold.Goldscore.Internal.Vdw>
-1.8040

> <Gold.Goldscore.Internal.Torsion>
-0.4159

> <Gold.Goldscore.External.Vdw>
16.7708

> <Gold.Goldscore.Internal.HBond>
0.0000

> <Gold.Goldscore.External.HBond>
0.7893

> <Gold.Goldscore.Internal.Correction>
-0.7585

> <Gold.Goldscore.Hbonds>
donor molecule, donor type, donor heavy atom, donor atom, acceptor molecule, acceptor atom, score
      P1  H  2655  2822       L1    17  0.39

> <Gold.Goldscore.Internal.Vdw.Weighted>
-1.8040

> <Gold.Goldscore.Internal.Torsion.Weighted>
-0.4159

> <Gold.Goldscore.External.Vdw.Weighted>
23.0599

> <Gold.Goldscore.Internal.HBond.Weighted>
0.0000

> <Gold.Goldscore.External.HBond.Weighted>
0.7893

> <Gold.Goldscore.Internal.Correction.Weighted>
-0.7585

> <Gold.Rescore>
     Score     S(PLP)   S(hbond)     S(cho)   S(metal)  DE(clash)   DE(tors)     intcor
     21.75     -23.04       0.31       0.00       0.00       1.77       0.23       ----

> <Gold.PLP.Fitness>
21.7494

> <Gold.PLP.PLP>
-23.0390

> <Gold.PLP.part.hbond>
-1.0049

> <Gold.PLP.part.metal>
0.0000

> <Gold.PLP.part.buried>
-2.1035

> <Gold.PLP.part.nonpolar>
-21.2135

> <Gold.PLP.part.repulsive>
0.1663

> <Gold.PLP.ligand.clash>
1.7740

> <Gold.PLP.ligand.torsion>
0.2270

> <Gold.PLP.Chemscore.Hbond>
0.3128

> <Gold.PLP.Chemscore.CHOScore>
0.0000

> <Gold.PLP.Chemscore.Metal>
0.0000

> <Gold.Chemscore.Hbonds>
donor molecule, donor type, donor heavy atom, donor atom, acceptor molecule, acceptor atom, score
      P1  H  2655  2822       L1    17  0.39

> <Gold.PLP.Chemscore.Internal.Correction>
   9.000000E+99

