#       Name:                CT1002167954
#       Creating user name   hitesit
#       Creation time:       Sun Apr 16 02:24:25 2023


#       File generated by GOLD software.
#

@<TRIPOS>MOLECULE
CT1002167954|ligand_prepared|mol2|1|dock10
    29    30     1
SMALL
NO_CHARGES


@<TRIPOS>ATOM
      1 C1         -44.0756  26.1956   3.4483 C.3            1 RES1               0.0000
      2 C2         -45.4938  26.7720   3.6359 C.ar           1 RES1               0.0000
      3 C3         -44.0473  25.5719   2.0560 C.2            1 RES1               0.0000
      4 C4         -43.1130  27.3646   3.6260 C.2            1 RES1               0.0000
      5 C5         -43.7016  25.1075   4.4816 C.3            1 RES1               0.0000
      6 C6         -46.5122  25.9885   4.1704 C.ar           1 RES1               0.0000
      7 C7         -45.7978  28.0839   3.2821 C.ar           1 RES1               0.0000
      8 N8         -43.3615  26.2341   1.0808 N.am           1 RES1               0.0000
      9 O9         -44.6505  24.5351   1.8079 O.2            1 RES1               0.0000
     10 N10        -42.3792  27.7630   2.5394 N.am           1 RES1               0.0000
     11 O11        -42.9956  27.9550   4.6927 O.2            1 RES1               0.0000
     12 C12        -42.2163  24.7846   4.5217 C.3            1 RES1               0.0000
     13 C13        -47.7875  26.4988   4.3478 C.ar           1 RES1               0.0000
     14 C14        -47.0739  28.5922   3.4601 C.ar           1 RES1               0.0000
     15 C15        -42.4824  27.2706   1.2670 C.2            1 RES1               0.0000
     16 C16        -48.0691  27.8009   3.9932 C.ar           1 RES1               0.0000
     17 O17        -41.8272  27.7178   0.3300 O.2            1 RES1               0.0000
     18 H18        -44.0171  25.4429   5.4773 H              1 RES1               0.0000
     19 H19        -44.2560  24.1908   4.2454 H              1 RES1               0.0000
     20 H20        -46.3100  24.9607   4.4530 H              1 RES1               0.0000
     21 H21        -45.0309  28.7243   2.8599 H              1 RES1               0.0000
     22 H22        -43.5167  25.9308   0.1247 H              1 RES1               0.0000
     23 H23        -41.6924  28.4943   2.6935 H              1 RES1               0.0000
     24 H24        -42.0086  24.0157   5.2629 H              1 RES1               0.0000
     25 H25        -41.8737  24.4238   3.5541 H              1 RES1               0.0000
     26 H26        -41.6362  25.6685   4.7787 H              1 RES1               0.0000
     27 H27        -48.5675  25.8715   4.7665 H              1 RES1               0.0000
     28 H28        -47.2912  29.6174   3.1790 H              1 RES1               0.0000
     29 H29        -49.0681  28.2006   4.1326 H              1 RES1               0.0000
@<TRIPOS>BOND
    1    1    2 1     
    2    1    3 1     
    3    1    4 1     
    4    1    5 1     
    5    2    6 ar    
    6    2    7 ar    
    7    3    8 1     
    8    3    9 2     
    9    4   10 1     
   10    4   11 2     
   11    5   12 1     
   12    5   18 1     
   13    5   19 1     
   14    6   13 ar    
   15    6   20 1     
   16    7   14 ar    
   17    7   21 1     
   18    8   15 1     
   19    8   22 1     
   20   10   15 1     
   21   10   23 1     
   22   12   24 1     
   23   12   25 1     
   24   12   26 1     
   25   13   16 ar    
   26   13   27 1     
   27   14   16 ar    
   28   14   28 1     
   29   15   17 2     
   30   16   29 1     
@<TRIPOS>SUBSTRUCTURE
      1 RES1           1
@<TRIPOS>SET
DONOR_HYDROGENS      STATIC     ATOMS    <user>   **** ""
2 22 23
ATOM$RED        STATIC     ATOMS    COLORGROUP SYSTEM
2 22 23
@<TRIPOS>COMMENT
> <Gold.Version>
2022.3.0

> <Gold.Id.Protein>
unknown|7ta6_clean|pdb

> <Gold.Protein.RotatedTorsions>
[ 12165 12063 12062 12060 ] final  -92.45 input   59.99 | X-H torsion
[ 20658 20574 20578 20575 ] final  -55.81 input   43.92 | X-H torsion
[ 2816 2645 2646 2647 ] final -143.59 input  110.81 | X-H torsion
[ 17263 17182 17186 17183 ] final    4.37 input   60.00 | X-H torsion
[ 17267 17185 17184 17183 ] final   21.91 input   59.97 | X-H torsion
[ 17444 17358 17359 17360 ] final -176.03 input   71.00 | X-H torsion
[ 20662 20577 20576 20575 ] final  132.39 input   60.02 | X-H torsion
[ 20694 2648 2647 2646 ] final   -2.98 input    0.00 | X-H torsion
[ 20700 20479 20478 20477 ] final  162.12 input   -0.00 | X-H torsion

> <Gold.Protein.ActiveResidues>
 TRP28   LEU57   TYR119  GLY121  GLY122  VAL123  XCP1    LEU2    TRP4    CYS27  
 XCP29  

> <Gold.Protein.RotatedAtoms>
  -38.8324   28.6558   11.4445 H   0  0  0  0  0  0  0  0  0  0  0  0  # atno 2816 bound_to 2645
  -40.4514   22.2293    7.8004 H   0  0  0  0  0  0  0  0  0  0  0  0  # atno 12165 bound_to 12063
  -47.2989   33.3251    5.6341 H   0  0  0  0  0  0  0  0  0  0  0  0  # atno 17263 bound_to 17182
  -47.8063   31.9301    4.8968 H   0  0  0  0  0  0  0  0  0  0  0  0  # atno 17264 bound_to 17182
  -45.6047   31.6629    9.1283 H   0  0  0  0  0  0  0  0  0  0  0  0  # atno 17267 bound_to 17185
  -34.2110   27.8986    7.1620 H   0  0  0  0  0  0  0  0  0  0  0  0  # atno 17444 bound_to 17358
  -39.8484   31.3240   10.3014 H   0  0  0  0  0  0  0  0  0  0  0  0  # atno 20658 bound_to 20574
  -37.7348   33.2585    8.8898 H   0  0  0  0  0  0  0  0  0  0  0  0  # atno 20662 bound_to 20577
  -40.6048   30.0172    7.6602 LP  0  0  0  0  0  0  0  0  0  0  0  0  # atno 20694 bound_to 2648
  -41.0040   31.6881    7.8814 LP  0  0  0  0  0  0  0  0  0  0  0  0  # atno 20695 bound_to 2648
  -39.8353   23.6838    7.4099 LP  0  0  0  0  0  0  0  0  0  0  0  0  # atno 20696 bound_to 12063
  -39.4270   22.9734    8.8224 LP  0  0  0  0  0  0  0  0  0  0  0  0  # atno 20697 bound_to 12063
  -38.1551   30.0410    9.3215 LP  0  0  0  0  0  0  0  0  0  0  0  0  # atno 20700 bound_to 20479
  -36.8563   30.6766   10.2749 LP  0  0  0  0  0  0  0  0  0  0  0  0  # atno 20701 bound_to 20479
  -41.5366   31.0832   10.6880 LP  0  0  0  0  0  0  0  0  0  0  0  0  # atno 20702 bound_to 20574
  -39.6396   30.1323   11.9258 LP  0  0  0  0  0  0  0  0  0  0  0  0  # atno 20703 bound_to 2645
  -48.4672   32.3986    6.3288 LP  0  0  0  0  0  0  0  0  0  0  0  0  # atno 20704 bound_to 17182
  -46.9833   32.4969    9.3552 LP  0  0  0  0  0  0  0  0  0  0  0  0  # atno 20705 bound_to 17185
  -45.5858   33.0299   10.0107 LP  0  0  0  0  0  0  0  0  0  0  0  0  # atno 20706 bound_to 17185
  -33.0681   26.5070    7.2497 LP  0  0  0  0  0  0  0  0  0  0  0  0  # atno 20707 bound_to 17358
  -38.3406   32.5336   10.2154 LP  0  0  0  0  0  0  0  0  0  0  0  0  # atno 20708 bound_to 20577
  -37.2341   33.7250   10.3667 LP  0  0  0  0  0  0  0  0  0  0  0  0  # atno 20709 bound_to 20577

> <Gold.Score>
     Fitness  S(hb_ext) S(vdw_ext)  S(hb_int)    S(int)      intcor
     22.16       0.90      15.94       0.00      -0.65      -0.76

> <Gold.Goldscore.Fitness>
22.1599

> <Gold.Goldscore.Internal.Vdw>
-0.7359

> <Gold.Goldscore.Internal.Torsion>
-0.6717

> <Gold.Goldscore.External.Vdw>
15.9371

> <Gold.Goldscore.Internal.HBond>
0.0000

> <Gold.Goldscore.External.HBond>
0.8955

> <Gold.Goldscore.Internal.Correction>
-0.7585

> <Gold.Goldscore.Hbonds>
donor molecule, donor type, donor heavy atom, donor atom, acceptor molecule, acceptor atom, score
      P1  H  2655  2822       L1    11  0.45

> <Gold.Goldscore.Internal.Vdw.Weighted>
-0.7359

> <Gold.Goldscore.Internal.Torsion.Weighted>
-0.6717

> <Gold.Goldscore.External.Vdw.Weighted>
21.9135

> <Gold.Goldscore.Internal.HBond.Weighted>
0.0000

> <Gold.Goldscore.External.HBond.Weighted>
0.8955

> <Gold.Goldscore.Internal.Correction.Weighted>
-0.7585

> <Gold.Rescore>
     Score     S(PLP)   S(hbond)     S(cho)   S(metal)  DE(clash)   DE(tors)     intcor
     27.12     -26.42       1.00       0.00       0.00       0.00       1.15       ----

> <Gold.PLP.Fitness>
27.1203

> <Gold.PLP.PLP>
-26.4177

> <Gold.PLP.part.hbond>
-1.0000

> <Gold.PLP.part.metal>
0.0000

> <Gold.PLP.part.buried>
-2.2966

> <Gold.PLP.part.nonpolar>
-22.4640

> <Gold.PLP.part.repulsive>
0.0988

> <Gold.PLP.ligand.clash>
0.0000

> <Gold.PLP.ligand.torsion>
1.1487

> <Gold.PLP.Chemscore.Hbond>
1.0000

> <Gold.PLP.Chemscore.CHOScore>
0.0000

> <Gold.PLP.Chemscore.Metal>
0.0000

> <Gold.Chemscore.Hbonds>
donor molecule, donor type, donor heavy atom, donor atom, acceptor molecule, acceptor atom, score
      P1  H  2655  2822       L1    11  0.87

> <Gold.PLP.Chemscore.Internal.Correction>
   9.000000E+99

