#       Name:                GA Fitting Points
#       Creating user name   hitesit
#       Creation time:       Sun Apr 16 02:23:47 2023


#       Fitting Points Used by GA Software.
#

@<TRIPOS>MOLECULE
GA Fitting Points
  5612    0    0
SMALL
NO_CHARGES


@<TRIPOS>ATOM
      1 ****       257.2500 352.0000 -58.7500 Du        
      2 ****       257.2500 352.2500 -59.0000 Du        
      3 ****       257.2500 352.2500 -58.7500 Du        
      4 ****       257.2500 352.5000 -59.0000 Du        
      5 ****       257.5000 350.7500 -58.2500 Du        
      6 ****       257.5000 351.0000 -58.5000 Du        
      7 ****       257.5000 351.0000 -58.2500 Du        
      8 ****       257.5000 351.0000 -58.0000 Du        
      9 ****       257.5000 351.2500 -58.7500 Du        
     10 ****       257.5000 351.2500 -58.5000 Du        
     11 ****       257.5000 351.2500 -58.2500 Du        
     12 ****       257.5000 351.2500 -58.0000 Du        
     13 ****       257.5000 351.5000 -59.0000 Du        
     14 ****       257.5000 351.5000 -58.7500 Du        
     15 ****       257.5000 351.5000 -58.5000 Du        
     16 ****       257.5000 351.5000 -58.2500 Du        
     17 ****       257.5000 351.7500 -59.0000 Du        
     18 ****       257.5000 351.7500 -58.7500 Du        
     19 ****       257.5000 351.7500 -58.5000 Du        
     20 ****       257.5000 351.7500 -58.2500 Du        
     21 ****       257.5000 352.0000 -59.2500 Du        
     22 ****       257.5000 352.0000 -59.0000 Du        
     23 ****       257.5000 352.0000 -58.7500 Du        
     24 ****       257.5000 352.0000 -58.5000 Du        
     25 ****       257.5000 352.2500 -59.2500 Du        
     26 ****       257.5000 352.2500 -59.0000 Du        
     27 ****       257.5000 352.2500 -58.7500 Du        
     28 ****       257.5000 352.5000 -59.5000 Du        
     29 ****       257.5000 352.5000 -59.2500 Du        
     30 ****       257.5000 352.5000 -59.0000 Du        
     31 ****       257.5000 352.7500 -59.7500 Du        
     32 ****       257.5000 352.7500 -59.5000 Du        
     33 ****       257.5000 352.7500 -59.2500 Du        
     34 ****       257.5000 352.7500 -59.0000 Du        
     35 ****       257.5000 353.0000 -59.7500 Du        
     36 ****       257.5000 353.0000 -59.5000 Du        
     37 ****       257.5000 353.0000 -59.2500 Du        
     38 ****       257.5000 353.2500 -59.7500 Du        
     39 ****       257.5000 353.2500 -59.5000 Du        
     40 ****       257.7500 350.7500 -58.7500 Du        
     41 ****       257.7500 350.7500 -58.5000 Du        
     42 ****       257.7500 350.7500 -58.2500 Du        
     43 ****       257.7500 350.7500 -58.0000 Du        
     44 ****       257.7500 351.0000 -58.7500 Du        
     45 ****       257.7500 351.0000 -58.5000 Du        
     46 ****       257.7500 351.0000 -58.2500 Du        
     47 ****       257.7500 351.0000 -58.0000 Du        
     48 ****       257.7500 351.2500 -59.0000 Du        
     49 ****       257.7500 351.2500 -58.7500 Du        
     50 ****       257.7500 351.2500 -58.5000 Du        
     51 ****       257.7500 351.2500 -58.2500 Du        
     52 ****       257.7500 351.2500 -58.0000 Du        
     53 ****       257.7500 351.5000 -59.2500 Du        
     54 ****       257.7500 351.5000 -59.0000 Du        
     55 ****       257.7500 351.5000 -58.7500 Du        
     56 ****       257.7500 351.5000 -58.5000 Du        
     57 ****       257.7500 351.5000 -58.2500 Du        
     58 ****       257.7500 351.5000 -58.0000 Du        
     59 ****       257.7500 351.7500 -59.5000 Du        
     60 ****       257.7500 351.7500 -59.2500 Du        
     61 ****       257.7500 351.7500 -59.0000 Du        
     62 ****       257.7500 351.7500 -58.7500 Du        
     63 ****       257.7500 351.7500 -58.5000 Du        
     64 ****       257.7500 351.7500 -58.2500 Du        
     65 ****       257.7500 352.0000 -59.5000 Du        
     66 ****       257.7500 352.0000 -59.2500 Du        
     67 ****       257.7500 352.0000 -59.0000 Du        
     68 ****       257.7500 352.0000 -58.7500 Du        
     69 ****       257.7500 352.0000 -58.5000 Du        
     70 ****       257.7500 352.0000 -58.2500 Du        
     71 ****       257.7500 352.2500 -59.7500 Du        
     72 ****       257.7500 352.2500 -59.5000 Du        
     73 ****       257.7500 352.2500 -59.2500 Du        
     74 ****       257.7500 352.2500 -59.0000 Du        
     75 ****       257.7500 352.2500 -58.7500 Du        
     76 ****       257.7500 352.5000 -60.0000 Du        
     77 ****       257.7500 352.5000 -59.7500 Du        
     78 ****       257.7500 352.5000 -59.5000 Du        
     79 ****       257.7500 352.5000 -59.2500 Du        
     80 ****       257.7500 352.5000 -59.0000 Du        
     81 ****       257.7500 352.7500 -60.0000 Du        
     82 ****       257.7500 352.7500 -59.7500 Du        
     83 ****       257.7500 352.7500 -59.5000 Du        
     84 ****       257.7500 352.7500 -59.2500 Du        
     85 ****       257.7500 352.7500 -59.0000 Du        
     86 ****       257.7500 353.0000 -60.2500 Du        
     87 ****       257.7500 353.0000 -60.0000 Du        
     88 ****       257.7500 353.0000 -59.7500 Du        
     89 ****       257.7500 353.0000 -59.5000 Du        
     90 ****       257.7500 353.0000 -59.2500 Du        
     91 ****       257.7500 353.2500 -60.2500 Du        
     92 ****       257.7500 353.2500 -60.0000 Du        
     93 ****       257.7500 353.2500 -59.7500 Du        
     94 ****       257.7500 353.2500 -59.5000 Du        
     95 ****       257.7500 353.5000 -60.2500 Du        
     96 ****       257.7500 353.5000 -60.0000 Du        
     97 ****       257.7500 353.5000 -59.7500 Du        
     98 ****       258.0000 350.5000 -58.5000 Du        
     99 ****       258.0000 350.7500 -59.0000 Du        
    100 ****       258.0000 350.7500 -58.7500 Du        
    101 ****       258.0000 350.7500 -58.5000 Du        
    102 ****       258.0000 350.7500 -58.2500 Du        
    103 ****       258.0000 350.7500 -58.0000 Du        
    104 ****       258.0000 351.0000 -59.2500 Du        
    105 ****       258.0000 351.0000 -59.0000 Du        
    106 ****       258.0000 351.0000 -58.7500 Du        
    107 ****       258.0000 351.0000 -58.5000 Du        
    108 ****       258.0000 351.0000 -58.2500 Du        
    109 ****       258.0000 351.0000 -58.0000 Du        
    110 ****       258.0000 351.0000 -57.7500 Du        
    111 ****       258.0000 351.2500 -59.2500 Du        
    112 ****       258.0000 351.2500 -59.0000 Du        
    113 ****       258.0000 351.2500 -58.7500 Du        
    114 ****       258.0000 351.2500 -58.5000 Du        
    115 ****       258.0000 351.2500 -58.2500 Du        
    116 ****       258.0000 351.2500 -58.0000 Du        
    117 ****       258.0000 351.2500 -57.7500 Du        
    118 ****       258.0000 351.5000 -59.5000 Du        
    119 ****       258.0000 351.5000 -59.2500 Du        
    120 ****       258.0000 351.5000 -59.0000 Du        
    121 ****       258.0000 351.5000 -58.7500 Du        
    122 ****       258.0000 351.5000 -58.5000 Du        
    123 ****       258.0000 351.5000 -58.2500 Du        
    124 ****       258.0000 351.5000 -58.0000 Du        
    125 ****       258.0000 351.7500 -59.7500 Du        
    126 ****       258.0000 351.7500 -59.5000 Du        
    127 ****       258.0000 351.7500 -59.2500 Du        
    128 ****       258.0000 351.7500 -59.0000 Du        
    129 ****       258.0000 351.7500 -58.7500 Du        
    130 ****       258.0000 351.7500 -58.5000 Du        
    131 ****       258.0000 351.7500 -58.2500 Du        
    132 ****       258.0000 351.7500 -58.0000 Du        
    133 ****       258.0000 352.0000 -60.0000 Du        
    134 ****       258.0000 352.0000 -59.7500 Du        
    135 ****       258.0000 352.0000 -59.5000 Du        
    136 ****       258.0000 352.0000 -59.2500 Du        
    137 ****       258.0000 352.0000 -59.0000 Du        
    138 ****       258.0000 352.0000 -58.7500 Du        
    139 ****       258.0000 352.0000 -58.5000 Du        
    140 ****       258.0000 352.2500 -60.2500 Du        
    141 ****       258.0000 352.2500 -60.0000 Du        
    142 ****       258.0000 352.2500 -59.7500 Du        
    143 ****       258.0000 352.2500 -59.5000 Du        
    144 ****       258.0000 352.2500 -59.2500 Du        
    145 ****       258.0000 352.2500 -59.0000 Du        
    146 ****       258.0000 352.2500 -58.7500 Du        
    147 ****       258.0000 352.5000 -60.2500 Du        
    148 ****       258.0000 352.5000 -60.0000 Du        
    149 ****       258.0000 352.5000 -59.7500 Du        
    150 ****       258.0000 352.5000 -59.5000 Du        
    151 ****       258.0000 352.5000 -59.2500 Du        
    152 ****       258.0000 352.5000 -59.0000 Du        
    153 ****       258.0000 352.7500 -60.5000 Du        
    154 ****       258.0000 352.7500 -60.2500 Du        
    155 ****       258.0000 352.7500 -60.0000 Du        
    156 ****       258.0000 352.7500 -59.7500 Du        
    157 ****       258.0000 352.7500 -59.5000 Du        
    158 ****       258.0000 352.7500 -59.2500 Du        
    159 ****       258.0000 352.7500 -59.0000 Du        
    160 ****       258.0000 353.0000 -60.7500 Du        
    161 ****       258.0000 353.0000 -60.5000 Du        
    162 ****       258.0000 353.0000 -60.2500 Du        
    163 ****       258.0000 353.0000 -60.0000 Du        
    164 ****       258.0000 353.0000 -59.7500 Du        
    165 ****       258.0000 353.0000 -59.5000 Du        
    166 ****       258.0000 353.0000 -59.2500 Du        
    167 ****       258.0000 353.2500 -60.7500 Du        
    168 ****       258.0000 353.2500 -60.5000 Du        
    169 ****       258.0000 353.2500 -60.2500 Du        
    170 ****       258.0000 353.2500 -60.0000 Du        
    171 ****       258.0000 353.2500 -59.7500 Du        
    172 ****       258.0000 353.2500 -59.5000 Du        
    173 ****       258.0000 353.5000 -60.7500 Du        
    174 ****       258.0000 353.5000 -60.5000 Du        
    175 ****       258.0000 353.5000 -60.2500 Du        
    176 ****       258.0000 353.5000 -60.0000 Du        
    177 ****       258.0000 353.5000 -59.7500 Du        
    178 ****       258.0000 353.7500 -61.0000 Du        
    179 ****       258.0000 353.7500 -60.7500 Du        
    180 ****       258.0000 353.7500 -60.5000 Du        
    181 ****       258.0000 353.7500 -60.2500 Du        
    182 ****       258.0000 353.7500 -60.0000 Du        
    183 ****       258.0000 354.0000 -61.0000 Du        
    184 ****       258.0000 354.0000 -60.7500 Du        
    185 ****       258.0000 354.0000 -60.5000 Du        
    186 ****       258.2500 350.5000 -59.0000 Du        
    187 ****       258.2500 350.5000 -58.7500 Du        
    188 ****       258.2500 350.5000 -58.5000 Du        
    189 ****       258.2500 350.7500 -59.2500 Du        
    190 ****       258.2500 350.7500 -59.0000 Du        
    191 ****       258.2500 350.7500 -58.7500 Du        
    192 ****       258.2500 350.7500 -58.5000 Du        
    193 ****       258.2500 350.7500 -58.2500 Du        
    194 ****       258.2500 351.0000 -59.5000 Du        
    195 ****       258.2500 351.0000 -59.2500 Du        
    196 ****       258.2500 351.0000 -59.0000 Du        
    197 ****       258.2500 351.0000 -58.7500 Du        
    198 ****       258.2500 351.0000 -58.5000 Du        
    199 ****       258.2500 351.0000 -58.2500 Du        
    200 ****       258.2500 351.0000 -58.0000 Du        
    201 ****       258.2500 351.0000 -57.7500 Du        
    202 ****       258.2500 351.2500 -59.7500 Du        
    203 ****       258.2500 351.2500 -59.5000 Du        
    204 ****       258.2500 351.2500 -59.2500 Du        
    205 ****       258.2500 351.2500 -59.0000 Du        
    206 ****       258.2500 351.2500 -58.7500 Du        
    207 ****       258.2500 351.2500 -58.5000 Du        
    208 ****       258.2500 351.2500 -58.2500 Du        
    209 ****       258.2500 351.2500 -58.0000 Du        
    210 ****       258.2500 351.2500 -57.7500 Du        
    211 ****       258.2500 351.5000 -60.0000 Du        
    212 ****       258.2500 351.5000 -59.7500 Du        
    213 ****       258.2500 351.5000 -59.5000 Du        
    214 ****       258.2500 351.5000 -59.2500 Du        
    215 ****       258.2500 351.5000 -59.0000 Du        
    216 ****       258.2500 351.5000 -58.7500 Du        
    217 ****       258.2500 351.5000 -58.5000 Du        
    218 ****       258.2500 351.5000 -58.2500 Du        
    219 ****       258.2500 351.5000 -58.0000 Du        
    220 ****       258.2500 351.7500 -60.2500 Du        
    221 ****       258.2500 351.7500 -60.0000 Du        
    222 ****       258.2500 351.7500 -59.7500 Du        
    223 ****       258.2500 351.7500 -59.5000 Du        
    224 ****       258.2500 351.7500 -59.2500 Du        
    225 ****       258.2500 351.7500 -59.0000 Du        
    226 ****       258.2500 351.7500 -58.7500 Du        
    227 ****       258.2500 351.7500 -58.5000 Du        
    228 ****       258.2500 351.7500 -58.2500 Du        
    229 ****       258.2500 352.0000 -60.5000 Du        
    230 ****       258.2500 352.0000 -60.2500 Du        
    231 ****       258.2500 352.0000 -60.0000 Du        
    232 ****       258.2500 352.0000 -59.7500 Du        
    233 ****       258.2500 352.0000 -59.5000 Du        
    234 ****       258.2500 352.0000 -59.2500 Du        
    235 ****       258.2500 352.0000 -59.0000 Du        
    236 ****       258.2500 352.0000 -58.7500 Du        
    237 ****       258.2500 352.0000 -58.5000 Du        
    238 ****       258.2500 352.2500 -60.7500 Du        
    239 ****       258.2500 352.2500 -60.5000 Du        
    240 ****       258.2500 352.2500 -60.2500 Du        
    241 ****       258.2500 352.2500 -60.0000 Du        
    242 ****       258.2500 352.2500 -59.7500 Du        
    243 ****       258.2500 352.2500 -59.5000 Du        
    244 ****       258.2500 352.2500 -59.2500 Du        
    245 ****       258.2500 352.2500 -59.0000 Du        
    246 ****       258.2500 352.2500 -58.7500 Du        
    247 ****       258.2500 352.5000 -60.7500 Du        
    248 ****       258.2500 352.5000 -60.5000 Du        
    249 ****       258.2500 352.5000 -60.2500 Du        
    250 ****       258.2500 352.5000 -60.0000 Du        
    251 ****       258.2500 352.5000 -59.7500 Du        
    252 ****       258.2500 352.5000 -59.5000 Du        
    253 ****       258.2500 352.5000 -59.2500 Du        
    254 ****       258.2500 352.5000 -59.0000 Du        
    255 ****       258.2500 352.7500 -61.0000 Du        
    256 ****       258.2500 352.7500 -60.7500 Du        
    257 ****       258.2500 352.7500 -60.5000 Du        
    258 ****       258.2500 352.7500 -60.2500 Du        
    259 ****       258.2500 352.7500 -60.0000 Du        
    260 ****       258.2500 352.7500 -59.7500 Du        
    261 ****       258.2500 352.7500 -59.5000 Du        
    262 ****       258.2500 352.7500 -59.2500 Du        
    263 ****       258.2500 353.0000 -61.0000 Du        
    264 ****       258.2500 353.0000 -60.7500 Du        
    265 ****       258.2500 353.0000 -60.5000 Du        
    266 ****       258.2500 353.0000 -60.2500 Du        
    267 ****       258.2500 353.0000 -60.0000 Du        
    268 ****       258.2500 353.0000 -59.7500 Du        
    269 ****       258.2500 353.0000 -59.5000 Du        
    270 ****       258.2500 353.0000 -59.2500 Du        
    271 ****       258.2500 353.2500 -61.0000 Du        
    272 ****       258.2500 353.2500 -60.7500 Du        
    273 ****       258.2500 353.2500 -60.5000 Du        
    274 ****       258.2500 353.2500 -60.2500 Du        
    275 ****       258.2500 353.2500 -60.0000 Du        
    276 ****       258.2500 353.2500 -59.7500 Du        
    277 ****       258.2500 353.2500 -59.5000 Du        
    278 ****       258.2500 353.5000 -61.2500 Du        
    279 ****       258.2500 353.5000 -61.0000 Du        
    280 ****       258.2500 353.5000 -60.7500 Du        
    281 ****       258.2500 353.5000 -60.5000 Du        
    282 ****       258.2500 353.5000 -60.2500 Du        
    283 ****       258.2500 353.5000 -60.0000 Du        
    284 ****       258.2500 353.5000 -59.7500 Du        
    285 ****       258.2500 353.7500 -61.2500 Du        
    286 ****       258.2500 353.7500 -61.0000 Du        
    287 ****       258.2500 353.7500 -60.7500 Du        
    288 ****       258.2500 353.7500 -60.5000 Du        
    289 ****       258.2500 353.7500 -60.2500 Du        
    290 ****       258.2500 353.7500 -60.0000 Du        
    291 ****       258.2500 353.7500 -59.7500 Du        
    292 ****       258.2500 354.0000 -61.2500 Du        
    293 ****       258.2500 354.0000 -61.0000 Du        
    294 ****       258.2500 354.0000 -60.7500 Du        
    295 ****       258.2500 354.0000 -60.5000 Du        
    296 ****       258.2500 354.0000 -60.2500 Du        
    297 ****       258.2500 354.2500 -61.2500 Du        
    298 ****       258.2500 354.2500 -61.0000 Du        
    299 ****       258.2500 354.2500 -60.7500 Du        
    300 ****       258.5000 350.5000 -59.2500 Du        
    301 ****       258.5000 350.5000 -59.0000 Du        
    302 ****       258.5000 350.5000 -58.7500 Du        
    303 ****       258.5000 350.5000 -58.5000 Du        
    304 ****       258.5000 350.7500 -59.5000 Du        
    305 ****       258.5000 350.7500 -59.2500 Du        
    306 ****       258.5000 350.7500 -59.0000 Du        
    307 ****       258.5000 350.7500 -58.7500 Du        
    308 ****       258.5000 350.7500 -58.5000 Du        
    309 ****       258.5000 350.7500 -58.2500 Du        
    310 ****       258.5000 351.0000 -60.0000 Du        
    311 ****       258.5000 351.0000 -59.7500 Du        
    312 ****       258.5000 351.0000 -59.5000 Du        
    313 ****       258.5000 351.0000 -59.2500 Du        
    314 ****       258.5000 351.0000 -59.0000 Du        
    315 ****       258.5000 351.0000 -58.7500 Du        
    316 ****       258.5000 351.0000 -58.5000 Du        
    317 ****       258.5000 351.0000 -58.2500 Du        
    318 ****       258.5000 351.0000 -58.0000 Du        
    319 ****       258.5000 351.2500 -60.2500 Du        
    320 ****       258.5000 351.2500 -60.0000 Du        
    321 ****       258.5000 351.2500 -59.7500 Du        
    322 ****       258.5000 351.2500 -59.5000 Du        
    323 ****       258.5000 351.2500 -59.2500 Du        
    324 ****       258.5000 351.2500 -59.0000 Du        
    325 ****       258.5000 351.2500 -58.7500 Du        
    326 ****       258.5000 351.2500 -58.5000 Du        
    327 ****       258.5000 351.2500 -58.2500 Du        
    328 ****       258.5000 351.2500 -58.0000 Du        
    329 ****       258.5000 351.2500 -57.7500 Du        
    330 ****       258.5000 351.5000 -60.5000 Du        
    331 ****       258.5000 351.5000 -60.2500 Du        
    332 ****       258.5000 351.5000 -60.0000 Du        
    333 ****       258.5000 351.5000 -59.7500 Du        
    334 ****       258.5000 351.5000 -59.5000 Du        
    335 ****       258.5000 351.5000 -59.2500 Du        
    336 ****       258.5000 351.5000 -59.0000 Du        
    337 ****       258.5000 351.5000 -58.7500 Du        
    338 ****       258.5000 351.5000 -58.5000 Du        
    339 ****       258.5000 351.5000 -58.2500 Du        
    340 ****       258.5000 351.5000 -58.0000 Du        
    341 ****       258.5000 351.7500 -60.7500 Du        
    342 ****       258.5000 351.7500 -60.5000 Du        
    343 ****       258.5000 351.7500 -60.2500 Du        
    344 ****       258.5000 351.7500 -60.0000 Du        
    345 ****       258.5000 351.7500 -59.7500 Du        
    346 ****       258.5000 351.7500 -59.5000 Du        
    347 ****       258.5000 351.7500 -59.2500 Du        
    348 ****       258.5000 351.7500 -59.0000 Du        
    349 ****       258.5000 351.7500 -58.7500 Du        
    350 ****       258.5000 351.7500 -58.5000 Du        
    351 ****       258.5000 351.7500 -58.2500 Du        
    352 ****       258.5000 352.0000 -61.0000 Du        
    353 ****       258.5000 352.0000 -60.7500 Du        
    354 ****       258.5000 352.0000 -60.5000 Du        
    355 ****       258.5000 352.0000 -60.2500 Du        
    356 ****       258.5000 352.0000 -60.0000 Du        
    357 ****       258.5000 352.0000 -59.7500 Du        
    358 ****       258.5000 352.0000 -59.5000 Du        
    359 ****       258.5000 352.0000 -59.2500 Du        
    360 ****       258.5000 352.0000 -59.0000 Du        
    361 ****       258.5000 352.0000 -58.7500 Du        
    362 ****       258.5000 352.0000 -58.5000 Du        
    363 ****       258.5000 352.2500 -61.0000 Du        
    364 ****       258.5000 352.2500 -60.7500 Du        
    365 ****       258.5000 352.2500 -60.5000 Du        
    366 ****       258.5000 352.2500 -60.2500 Du        
    367 ****       258.5000 352.2500 -60.0000 Du        
    368 ****       258.5000 352.2500 -59.7500 Du        
    369 ****       258.5000 352.2500 -59.5000 Du        
    370 ****       258.5000 352.2500 -59.2500 Du        
    371 ****       258.5000 352.2500 -59.0000 Du        
    372 ****       258.5000 352.2500 -58.7500 Du        
    373 ****       258.5000 352.5000 -61.2500 Du        
    374 ****       258.5000 352.5000 -61.0000 Du        
    375 ****       258.5000 352.5000 -60.7500 Du        
    376 ****       258.5000 352.5000 -60.5000 Du        
    377 ****       258.5000 352.5000 -60.2500 Du        
    378 ****       258.5000 352.5000 -60.0000 Du        
    379 ****       258.5000 352.5000 -59.7500 Du        
    380 ****       258.5000 352.5000 -59.5000 Du        
    381 ****       258.5000 352.5000 -59.2500 Du        
    382 ****       258.5000 352.5000 -59.0000 Du        
    383 ****       258.5000 352.7500 -61.2500 Du        
    384 ****       258.5000 352.7500 -61.0000 Du        
    385 ****       258.5000 352.7500 -60.7500 Du        
    386 ****       258.5000 352.7500 -60.5000 Du        
    387 ****       258.5000 352.7500 -60.2500 Du        
    388 ****       258.5000 352.7500 -60.0000 Du        
    389 ****       258.5000 352.7500 -59.7500 Du        
    390 ****       258.5000 352.7500 -59.5000 Du        
    391 ****       258.5000 352.7500 -59.2500 Du        
    392 ****       258.5000 353.0000 -61.2500 Du        
    393 ****       258.5000 353.0000 -61.0000 Du        
    394 ****       258.5000 353.0000 -60.7500 Du        
    395 ****       258.5000 353.0000 -60.5000 Du        
    396 ****       258.5000 353.0000 -60.2500 Du        
    397 ****       258.5000 353.0000 -60.0000 Du        
    398 ****       258.5000 353.0000 -59.7500 Du        
    399 ****       258.5000 353.0000 -59.5000 Du        
    400 ****       258.5000 353.0000 -59.2500 Du        
    401 ****       258.5000 353.2500 -61.2500 Du        
    402 ****       258.5000 353.2500 -61.0000 Du        
    403 ****       258.5000 353.2500 -60.7500 Du        
    404 ****       258.5000 353.2500 -60.5000 Du        
    405 ****       258.5000 353.2500 -60.2500 Du        
    406 ****       258.5000 353.2500 -60.0000 Du        
    407 ****       258.5000 353.2500 -59.7500 Du        
    408 ****       258.5000 353.2500 -59.5000 Du        
    409 ****       258.5000 353.5000 -61.5000 Du        
    410 ****       258.5000 353.5000 -61.2500 Du        
    411 ****       258.5000 353.5000 -61.0000 Du        
    412 ****       258.5000 353.5000 -60.7500 Du        
    413 ****       258.5000 353.5000 -60.5000 Du        
    414 ****       258.5000 353.5000 -60.2500 Du        
    415 ****       258.5000 353.5000 -60.0000 Du        
    416 ****       258.5000 353.5000 -59.7500 Du        
    417 ****       258.5000 353.5000 -59.5000 Du        
    418 ****       258.5000 353.7500 -61.5000 Du        
    419 ****       258.5000 353.7500 -61.2500 Du        
    420 ****       258.5000 353.7500 -61.0000 Du        
    421 ****       258.5000 353.7500 -60.7500 Du        
    422 ****       258.5000 353.7500 -60.5000 Du        
    423 ****       258.5000 353.7500 -60.2500 Du        
    424 ****       258.5000 353.7500 -60.0000 Du        
    425 ****       258.5000 353.7500 -59.7500 Du        
    426 ****       258.5000 354.0000 -61.5000 Du        
    427 ****       258.5000 354.0000 -61.2500 Du        
    428 ****       258.5000 354.0000 -61.0000 Du        
    429 ****       258.5000 354.0000 -60.7500 Du        
    430 ****       258.5000 354.0000 -60.5000 Du        
    431 ****       258.5000 354.0000 -60.2500 Du        
    432 ****       258.5000 354.0000 -60.0000 Du        
    433 ****       258.5000 354.2500 -61.5000 Du        
    434 ****       258.5000 354.2500 -61.2500 Du        
    435 ****       258.5000 354.2500 -61.0000 Du        
    436 ****       258.5000 354.2500 -60.7500 Du        
    437 ****       258.5000 354.2500 -60.5000 Du        
    438 ****       258.5000 354.5000 -61.2500 Du        
    439 ****       258.7500 350.5000 -59.5000 Du        
    440 ****       258.7500 350.5000 -59.2500 Du        
    441 ****       258.7500 350.5000 -59.0000 Du        
    442 ****       258.7500 350.5000 -58.7500 Du        
    443 ****       258.7500 350.7500 -60.0000 Du        
    444 ****       258.7500 350.7500 -59.7500 Du        
    445 ****       258.7500 350.7500 -59.5000 Du        
    446 ****       258.7500 350.7500 -59.2500 Du        
    447 ****       258.7500 350.7500 -59.0000 Du        
    448 ****       258.7500 350.7500 -58.7500 Du        
    449 ****       258.7500 350.7500 -58.5000 Du        
    450 ****       258.7500 350.7500 -58.2500 Du        
    451 ****       258.7500 351.0000 -60.5000 Du        
    452 ****       258.7500 351.0000 -60.2500 Du        
    453 ****       258.7500 351.0000 -60.0000 Du        
    454 ****       258.7500 351.0000 -59.7500 Du        
    455 ****       258.7500 351.0000 -59.5000 Du        
    456 ****       258.7500 351.0000 -59.2500 Du        
    457 ****       258.7500 351.0000 -59.0000 Du        
    458 ****       258.7500 351.0000 -58.7500 Du        
    459 ****       258.7500 351.0000 -58.5000 Du        
    460 ****       258.7500 351.0000 -58.2500 Du        
    461 ****       258.7500 351.0000 -58.0000 Du        
    462 ****       258.7500 351.2500 -60.7500 Du        
    463 ****       258.7500 351.2500 -60.5000 Du        
    464 ****       258.7500 351.2500 -60.2500 Du        
    465 ****       258.7500 351.2500 -60.0000 Du        
    466 ****       258.7500 351.2500 -59.7500 Du        
    467 ****       258.7500 351.2500 -59.5000 Du        
    468 ****       258.7500 351.2500 -59.2500 Du        
    469 ****       258.7500 351.2500 -59.0000 Du        
    470 ****       258.7500 351.2500 -58.7500 Du        
    471 ****       258.7500 351.2500 -58.5000 Du        
    472 ****       258.7500 351.2500 -58.2500 Du        
    473 ****       258.7500 351.2500 -58.0000 Du        
    474 ****       258.7500 351.2500 -57.7500 Du        
    475 ****       258.7500 351.5000 -61.2500 Du        
    476 ****       258.7500 351.5000 -61.0000 Du        
    477 ****       258.7500 351.5000 -60.7500 Du        
    478 ****       258.7500 351.5000 -60.5000 Du        
    479 ****       258.7500 351.5000 -60.2500 Du        
    480 ****       258.7500 351.5000 -60.0000 Du        
    481 ****       258.7500 351.5000 -59.7500 Du        
    482 ****       258.7500 351.5000 -59.5000 Du        
    483 ****       258.7500 351.5000 -59.2500 Du        
    484 ****       258.7500 351.5000 -59.0000 Du        
    485 ****       258.7500 351.5000 -58.7500 Du        
    486 ****       258.7500 351.5000 -58.5000 Du        
    487 ****       258.7500 351.5000 -58.2500 Du        
    488 ****       258.7500 351.5000 -58.0000 Du        
    489 ****       258.7500 351.7500 -61.2500 Du        
    490 ****       258.7500 351.7500 -61.0000 Du        
    491 ****       258.7500 351.7500 -60.7500 Du        
    492 ****       258.7500 351.7500 -60.5000 Du        
    493 ****       258.7500 351.7500 -60.2500 Du        
    494 ****       258.7500 351.7500 -60.0000 Du        
    495 ****       258.7500 351.7500 -59.7500 Du        
    496 ****       258.7500 351.7500 -59.5000 Du        
    497 ****       258.7500 351.7500 -59.2500 Du        
    498 ****       258.7500 351.7500 -59.0000 Du        
    499 ****       258.7500 351.7500 -58.7500 Du        
    500 ****       258.7500 351.7500 -58.5000 Du        
    501 ****       258.7500 351.7500 -58.2500 Du        
    502 ****       258.7500 352.0000 -61.5000 Du        
    503 ****       258.7500 352.0000 -61.2500 Du        
    504 ****       258.7500 352.0000 -61.0000 Du        
    505 ****       258.7500 352.0000 -60.7500 Du        
    506 ****       258.7500 352.0000 -60.5000 Du        
    507 ****       258.7500 352.0000 -60.2500 Du        
    508 ****       258.7500 352.0000 -60.0000 Du        
    509 ****       258.7500 352.0000 -59.7500 Du        
    510 ****       258.7500 352.0000 -59.5000 Du        
    511 ****       258.7500 352.0000 -59.2500 Du        
    512 ****       258.7500 352.0000 -59.0000 Du        
    513 ****       258.7500 352.0000 -58.7500 Du        
    514 ****       258.7500 352.2500 -61.5000 Du        
    515 ****       258.7500 352.2500 -61.2500 Du        
    516 ****       258.7500 352.2500 -61.0000 Du        
    517 ****       258.7500 352.2500 -60.7500 Du        
    518 ****       258.7500 352.2500 -60.5000 Du        
    519 ****       258.7500 352.2500 -60.2500 Du        
    520 ****       258.7500 352.2500 -60.0000 Du        
    521 ****       258.7500 352.2500 -59.7500 Du        
    522 ****       258.7500 352.2500 -59.5000 Du        
    523 ****       258.7500 352.2500 -59.2500 Du        
    524 ****       258.7500 352.2500 -59.0000 Du        
    525 ****       258.7500 352.2500 -58.7500 Du        
    526 ****       258.7500 352.5000 -61.5000 Du        
    527 ****       258.7500 352.5000 -61.2500 Du        
    528 ****       258.7500 352.5000 -61.0000 Du        
    529 ****       258.7500 352.5000 -60.7500 Du        
    530 ****       258.7500 352.5000 -60.5000 Du        
    531 ****       258.7500 352.5000 -60.2500 Du        
    532 ****       258.7500 352.5000 -60.0000 Du        
    533 ****       258.7500 352.5000 -59.7500 Du        
    534 ****       258.7500 352.5000 -59.5000 Du        
    535 ****       258.7500 352.5000 -59.2500 Du        
    536 ****       258.7500 352.5000 -59.0000 Du        
    537 ****       258.7500 352.7500 -61.5000 Du        
    538 ****       258.7500 352.7500 -61.2500 Du        
    539 ****       258.7500 352.7500 -61.0000 Du        
    540 ****       258.7500 352.7500 -60.7500 Du        
    541 ****       258.7500 352.7500 -60.5000 Du        
    542 ****       258.7500 352.7500 -60.2500 Du        
    543 ****       258.7500 352.7500 -60.0000 Du        
    544 ****       258.7500 352.7500 -59.7500 Du        
    545 ****       258.7500 352.7500 -59.5000 Du        
    546 ****       258.7500 352.7500 -59.2500 Du        
    547 ****       258.7500 353.0000 -61.5000 Du        
    548 ****       258.7500 353.0000 -61.2500 Du        
    549 ****       258.7500 353.0000 -61.0000 Du        
    550 ****       258.7500 353.0000 -60.7500 Du        
    551 ****       258.7500 353.0000 -60.5000 Du        
    552 ****       258.7500 353.0000 -60.2500 Du        
    553 ****       258.7500 353.0000 -60.0000 Du        
    554 ****       258.7500 353.0000 -59.7500 Du        
    555 ****       258.7500 353.0000 -59.5000 Du        
    556 ****       258.7500 353.0000 -59.2500 Du        
    557 ****       258.7500 353.2500 -61.5000 Du        
    558 ****       258.7500 353.2500 -61.2500 Du        
    559 ****       258.7500 353.2500 -61.0000 Du        
    560 ****       258.7500 353.2500 -60.7500 Du        
    561 ****       258.7500 353.2500 -60.5000 Du        
    562 ****       258.7500 353.2500 -60.2500 Du        
    563 ****       258.7500 353.2500 -60.0000 Du        
    564 ****       258.7500 353.2500 -59.7500 Du        
    565 ****       258.7500 353.2500 -59.5000 Du        
    566 ****       258.7500 353.5000 -61.7500 Du        
    567 ****       258.7500 353.5000 -61.5000 Du        
    568 ****       258.7500 353.5000 -61.2500 Du        
    569 ****       258.7500 353.5000 -61.0000 Du        
    570 ****       258.7500 353.5000 -60.7500 Du        
    571 ****       258.7500 353.5000 -60.5000 Du        
    572 ****       258.7500 353.5000 -60.2500 Du        
    573 ****       258.7500 353.5000 -60.0000 Du        
    574 ****       258.7500 353.5000 -59.7500 Du        
    575 ****       258.7500 353.5000 -59.5000 Du        
    576 ****       258.7500 353.7500 -61.7500 Du        
    577 ****       258.7500 353.7500 -61.5000 Du        
    578 ****       258.7500 353.7500 -61.2500 Du        
    579 ****       258.7500 353.7500 -61.0000 Du        
    580 ****       258.7500 353.7500 -60.7500 Du        
    581 ****       258.7500 353.7500 -60.5000 Du        
    582 ****       258.7500 353.7500 -60.2500 Du        
    583 ****       258.7500 353.7500 -60.0000 Du        
    584 ****       258.7500 353.7500 -59.7500 Du        
    585 ****       258.7500 354.0000 -61.7500 Du        
    586 ****       258.7500 354.0000 -61.5000 Du        
    587 ****       258.7500 354.0000 -61.2500 Du        
    588 ****       258.7500 354.0000 -61.0000 Du        
    589 ****       258.7500 354.0000 -60.7500 Du        
    590 ****       258.7500 354.0000 -60.5000 Du        
    591 ****       258.7500 354.0000 -60.2500 Du        
    592 ****       258.7500 354.0000 -60.0000 Du        
    593 ****       258.7500 354.2500 -61.5000 Du        
    594 ****       258.7500 354.2500 -61.2500 Du        
    595 ****       258.7500 354.2500 -61.0000 Du        
    596 ****       258.7500 354.2500 -60.7500 Du        
    597 ****       258.7500 354.2500 -60.5000 Du        
    598 ****       258.7500 354.2500 -60.2500 Du        
    599 ****       258.7500 354.5000 -61.2500 Du        
    600 ****       258.7500 354.5000 -61.0000 Du        
    601 ****       259.0000 350.2500 -59.2500 Du        
    602 ****       259.0000 350.5000 -59.7500 Du        
    603 ****       259.0000 350.5000 -59.5000 Du        
    604 ****       259.0000 350.5000 -59.2500 Du        
    605 ****       259.0000 350.5000 -59.0000 Du        
    606 ****       259.0000 350.5000 -58.7500 Du        
    607 ****       259.0000 350.7500 -60.2500 Du        
    608 ****       259.0000 350.7500 -60.0000 Du        
    609 ****       259.0000 350.7500 -59.7500 Du        
    610 ****       259.0000 350.7500 -59.5000 Du        
    611 ****       259.0000 350.7500 -59.2500 Du        
    612 ****       259.0000 350.7500 -59.0000 Du        
    613 ****       259.0000 350.7500 -58.7500 Du        
    614 ****       259.0000 350.7500 -58.5000 Du        
    615 ****       259.0000 350.7500 -58.2500 Du        
    616 ****       259.0000 351.0000 -60.7500 Du        
    617 ****       259.0000 351.0000 -60.5000 Du        
    618 ****       259.0000 351.0000 -60.2500 Du        
    619 ****       259.0000 351.0000 -60.0000 Du        
    620 ****       259.0000 351.0000 -59.7500 Du        
    621 ****       259.0000 351.0000 -59.5000 Du        
    622 ****       259.0000 351.0000 -59.2500 Du        
    623 ****       259.0000 351.0000 -59.0000 Du        
    624 ****       259.0000 351.0000 -58.7500 Du        
    625 ****       259.0000 351.0000 -58.5000 Du        
    626 ****       259.0000 351.0000 -58.2500 Du        
    627 ****       259.0000 351.0000 -58.0000 Du        
    628 ****       259.0000 351.2500 -61.2500 Du        
    629 ****       259.0000 351.2500 -61.0000 Du        
    630 ****       259.0000 351.2500 -60.7500 Du        
    631 ****       259.0000 351.2500 -60.5000 Du        
    632 ****       259.0000 351.2500 -60.2500 Du        
    633 ****       259.0000 351.2500 -60.0000 Du        
    634 ****       259.0000 351.2500 -59.7500 Du        
    635 ****       259.0000 351.2500 -59.5000 Du        
    636 ****       259.0000 351.2500 -59.2500 Du        
    637 ****       259.0000 351.2500 -59.0000 Du        
    638 ****       259.0000 351.2500 -58.7500 Du        
    639 ****       259.0000 351.2500 -58.5000 Du        
    640 ****       259.0000 351.2500 -58.2500 Du        
    641 ****       259.0000 351.2500 -58.0000 Du        
    642 ****       259.0000 351.5000 -61.5000 Du        
    643 ****       259.0000 351.5000 -61.2500 Du        
    644 ****       259.0000 351.5000 -61.0000 Du        
    645 ****       259.0000 351.5000 -60.7500 Du        
    646 ****       259.0000 351.5000 -60.5000 Du        
    647 ****       259.0000 351.5000 -60.2500 Du        
    648 ****       259.0000 351.5000 -60.0000 Du        
    649 ****       259.0000 351.5000 -59.7500 Du        
    650 ****       259.0000 351.5000 -59.5000 Du        
    651 ****       259.0000 351.5000 -59.2500 Du        
    652 ****       259.0000 351.5000 -59.0000 Du        
    653 ****       259.0000 351.5000 -58.7500 Du        
    654 ****       259.0000 351.5000 -58.5000 Du        
    655 ****       259.0000 351.5000 -58.2500 Du        
    656 ****       259.0000 351.7500 -61.5000 Du        
    657 ****       259.0000 351.7500 -61.2500 Du        
    658 ****       259.0000 351.7500 -61.0000 Du        
    659 ****       259.0000 351.7500 -60.7500 Du        
    660 ****       259.0000 351.7500 -60.5000 Du        
    661 ****       259.0000 351.7500 -60.2500 Du        
    662 ****       259.0000 351.7500 -60.0000 Du        
    663 ****       259.0000 351.7500 -59.7500 Du        
    664 ****       259.0000 351.7500 -59.5000 Du        
    665 ****       259.0000 351.7500 -59.2500 Du        
    666 ****       259.0000 351.7500 -59.0000 Du        
    667 ****       259.0000 351.7500 -58.7500 Du        
    668 ****       259.0000 351.7500 -58.5000 Du        
    669 ****       259.0000 352.0000 -61.5000 Du        
    670 ****       259.0000 352.0000 -61.2500 Du        
    671 ****       259.0000 352.0000 -61.0000 Du        
    672 ****       259.0000 352.0000 -60.7500 Du        
    673 ****       259.0000 352.0000 -60.5000 Du        
    674 ****       259.0000 352.0000 -60.2500 Du        
    675 ****       259.0000 352.0000 -60.0000 Du        
    676 ****       259.0000 352.0000 -59.7500 Du        
    677 ****       259.0000 352.0000 -59.5000 Du        
    678 ****       259.0000 352.0000 -59.2500 Du        
    679 ****       259.0000 352.0000 -59.0000 Du        
    680 ****       259.0000 352.0000 -58.7500 Du        
    681 ****       259.0000 352.2500 -61.7500 Du        
    682 ****       259.0000 352.2500 -61.5000 Du        
    683 ****       259.0000 352.2500 -61.2500 Du        
    684 ****       259.0000 352.2500 -61.0000 Du        
    685 ****       259.0000 352.2500 -60.7500 Du        
    686 ****       259.0000 352.2500 -60.5000 Du        
    687 ****       259.0000 352.2500 -60.2500 Du        
    688 ****       259.0000 352.2500 -60.0000 Du        
    689 ****       259.0000 352.2500 -59.7500 Du        
    690 ****       259.0000 352.2500 -59.5000 Du        
    691 ****       259.0000 352.2500 -59.2500 Du        
    692 ****       259.0000 352.2500 -59.0000 Du        
    693 ****       259.0000 352.5000 -61.7500 Du        
    694 ****       259.0000 352.5000 -61.5000 Du        
    695 ****       259.0000 352.5000 -61.2500 Du        
    696 ****       259.0000 352.5000 -61.0000 Du        
    697 ****       259.0000 352.5000 -60.7500 Du        
    698 ****       259.0000 352.5000 -60.5000 Du        
    699 ****       259.0000 352.5000 -60.2500 Du        
    700 ****       259.0000 352.5000 -60.0000 Du        
    701 ****       259.0000 352.5000 -59.7500 Du        
    702 ****       259.0000 352.5000 -59.5000 Du        
    703 ****       259.0000 352.5000 -59.2500 Du        
    704 ****       259.0000 352.7500 -61.7500 Du        
    705 ****       259.0000 352.7500 -61.5000 Du        
    706 ****       259.0000 352.7500 -61.2500 Du        
    707 ****       259.0000 352.7500 -61.0000 Du        
    708 ****       259.0000 352.7500 -60.7500 Du        
    709 ****       259.0000 352.7500 -60.5000 Du        
    710 ****       259.0000 352.7500 -60.2500 Du        
    711 ****       259.0000 352.7500 -60.0000 Du        
    712 ****       259.0000 352.7500 -59.7500 Du        
    713 ****       259.0000 352.7500 -59.5000 Du        
    714 ****       259.0000 352.7500 -59.2500 Du        
    715 ****       259.0000 353.0000 -61.7500 Du        
    716 ****       259.0000 353.0000 -61.5000 Du        
    717 ****       259.0000 353.0000 -61.2500 Du        
    718 ****       259.0000 353.0000 -61.0000 Du        
    719 ****       259.0000 353.0000 -60.7500 Du        
    720 ****       259.0000 353.0000 -60.5000 Du        
    721 ****       259.0000 353.0000 -60.2500 Du        
    722 ****       259.0000 353.0000 -60.0000 Du        
    723 ****       259.0000 353.0000 -59.7500 Du        
    724 ****       259.0000 353.0000 -59.5000 Du        
    725 ****       259.0000 353.2500 -61.7500 Du        
    726 ****       259.0000 353.2500 -61.5000 Du        
    727 ****       259.0000 353.2500 -61.2500 Du        
    728 ****       259.0000 353.2500 -61.0000 Du        
    729 ****       259.0000 353.2500 -60.7500 Du        
    730 ****       259.0000 353.2500 -60.5000 Du        
    731 ****       259.0000 353.2500 -60.2500 Du        
    732 ****       259.0000 353.2500 -60.0000 Du        
    733 ****       259.0000 353.2500 -59.7500 Du        
    734 ****       259.0000 353.2500 -59.5000 Du        
    735 ****       259.0000 353.5000 -61.7500 Du        
    736 ****       259.0000 353.5000 -61.5000 Du        
    737 ****       259.0000 353.5000 -61.2500 Du        
    738 ****       259.0000 353.5000 -61.0000 Du        
    739 ****       259.0000 353.5000 -60.7500 Du        
    740 ****       259.0000 353.5000 -60.5000 Du        
    741 ****       259.0000 353.5000 -60.2500 Du        
    742 ****       259.0000 353.5000 -60.0000 Du        
    743 ****       259.0000 353.5000 -59.7500 Du        
    744 ****       259.0000 353.5000 -59.5000 Du        
    745 ****       259.0000 353.7500 -61.7500 Du        
    746 ****       259.0000 353.7500 -61.5000 Du        
    747 ****       259.0000 353.7500 -61.2500 Du        
    748 ****       259.0000 353.7500 -61.0000 Du        
    749 ****       259.0000 353.7500 -60.7500 Du        
    750 ****       259.0000 353.7500 -60.5000 Du        
    751 ****       259.0000 353.7500 -60.2500 Du        
    752 ****       259.0000 353.7500 -60.0000 Du        
    753 ****       259.0000 353.7500 -59.7500 Du        
    754 ****       259.0000 354.0000 -61.7500 Du        
    755 ****       259.0000 354.0000 -61.5000 Du        
    756 ****       259.0000 354.0000 -61.2500 Du        
    757 ****       259.0000 354.0000 -61.0000 Du        
    758 ****       259.0000 354.0000 -60.7500 Du        
    759 ****       259.0000 354.0000 -60.5000 Du        
    760 ****       259.0000 354.0000 -60.2500 Du        
    761 ****       259.0000 354.0000 -60.0000 Du        
    762 ****       259.0000 354.2500 -61.5000 Du        
    763 ****       259.0000 354.2500 -61.2500 Du        
    764 ****       259.0000 354.2500 -61.0000 Du        
    765 ****       259.0000 354.2500 -60.7500 Du        
    766 ****       259.0000 354.2500 -60.5000 Du        
    767 ****       259.0000 354.2500 -60.2500 Du        
    768 ****       259.0000 354.5000 -61.2500 Du        
    769 ****       259.0000 354.5000 -61.0000 Du        
    770 ****       259.2500 350.2500 -59.5000 Du        
    771 ****       259.2500 350.2500 -59.2500 Du        
    772 ****       259.2500 350.5000 -60.0000 Du        
    773 ****       259.2500 350.5000 -59.7500 Du        
    774 ****       259.2500 350.5000 -59.5000 Du        
    775 ****       259.2500 350.5000 -59.2500 Du        
    776 ****       259.2500 350.5000 -59.0000 Du        
    777 ****       259.2500 350.5000 -58.7500 Du        
    778 ****       259.2500 350.7500 -60.5000 Du        
    779 ****       259.2500 350.7500 -60.2500 Du        
    780 ****       259.2500 350.7500 -60.0000 Du        
    781 ****       259.2500 350.7500 -59.7500 Du        
    782 ****       259.2500 350.7500 -59.5000 Du        
    783 ****       259.2500 350.7500 -59.2500 Du        
    784 ****       259.2500 350.7500 -59.0000 Du        
    785 ****       259.2500 350.7500 -58.7500 Du        
    786 ****       259.2500 350.7500 -58.5000 Du        
    787 ****       259.2500 351.0000 -61.0000 Du        
    788 ****       259.2500 351.0000 -60.7500 Du        
    789 ****       259.2500 351.0000 -60.5000 Du        
    790 ****       259.2500 351.0000 -60.2500 Du        
    791 ****       259.2500 351.0000 -60.0000 Du        
    792 ****       259.2500 351.0000 -59.7500 Du        
    793 ****       259.2500 351.0000 -59.5000 Du        
    794 ****       259.2500 351.0000 -59.2500 Du        
    795 ****       259.2500 351.0000 -59.0000 Du        
    796 ****       259.2500 351.0000 -58.7500 Du        
    797 ****       259.2500 351.0000 -58.5000 Du        
    798 ****       259.2500 351.0000 -58.2500 Du        
    799 ****       259.2500 351.2500 -61.2500 Du        
    800 ****       259.2500 351.2500 -61.0000 Du        
    801 ****       259.2500 351.2500 -60.7500 Du        
    802 ****       259.2500 351.2500 -60.5000 Du        
    803 ****       259.2500 351.2500 -60.2500 Du        
    804 ****       259.2500 351.2500 -60.0000 Du        
    805 ****       259.2500 351.2500 -59.7500 Du        
    806 ****       259.2500 351.2500 -59.5000 Du        
    807 ****       259.2500 351.2500 -59.2500 Du        
    808 ****       259.2500 351.2500 -59.0000 Du        
    809 ****       259.2500 351.2500 -58.7500 Du        
    810 ****       259.2500 351.2500 -58.5000 Du        
    811 ****       259.2500 351.2500 -58.2500 Du        
    812 ****       259.2500 351.2500 -58.0000 Du        
    813 ****       259.2500 351.5000 -61.5000 Du        
    814 ****       259.2500 351.5000 -61.2500 Du        
    815 ****       259.2500 351.5000 -61.0000 Du        
    816 ****       259.2500 351.5000 -60.7500 Du        
    817 ****       259.2500 351.5000 -60.5000 Du        
    818 ****       259.2500 351.5000 -60.2500 Du        
    819 ****       259.2500 351.5000 -60.0000 Du        
    820 ****       259.2500 351.5000 -59.7500 Du        
    821 ****       259.2500 351.5000 -59.5000 Du        
    822 ****       259.2500 351.5000 -59.2500 Du        
    823 ****       259.2500 351.5000 -59.0000 Du        
    824 ****       259.2500 351.5000 -58.7500 Du        
    825 ****       259.2500 351.5000 -58.5000 Du        
    826 ****       259.2500 351.5000 -58.2500 Du        
    827 ****       259.2500 351.7500 -61.7500 Du        
    828 ****       259.2500 351.7500 -61.5000 Du        
    829 ****       259.2500 351.7500 -61.2500 Du        
    830 ****       259.2500 351.7500 -61.0000 Du        
    831 ****       259.2500 351.7500 -60.7500 Du        
    832 ****       259.2500 351.7500 -60.5000 Du        
    833 ****       259.2500 351.7500 -60.2500 Du        
    834 ****       259.2500 351.7500 -60.0000 Du        
    835 ****       259.2500 351.7500 -59.7500 Du        
    836 ****       259.2500 351.7500 -59.5000 Du        
    837 ****       259.2500 351.7500 -59.2500 Du        
    838 ****       259.2500 351.7500 -59.0000 Du        
    839 ****       259.2500 351.7500 -58.7500 Du        
    840 ****       259.2500 352.0000 -61.7500 Du        
    841 ****       259.2500 352.0000 -61.5000 Du        
    842 ****       259.2500 352.0000 -61.2500 Du        
    843 ****       259.2500 352.0000 -61.0000 Du        
    844 ****       259.2500 352.0000 -60.7500 Du        
    845 ****       259.2500 352.0000 -60.5000 Du        
    846 ****       259.2500 352.0000 -60.2500 Du        
    847 ****       259.2500 352.0000 -60.0000 Du        
    848 ****       259.2500 352.0000 -59.7500 Du        
    849 ****       259.2500 352.0000 -59.5000 Du        
    850 ****       259.2500 352.0000 -59.2500 Du        
    851 ****       259.2500 352.0000 -59.0000 Du        
    852 ****       259.2500 352.2500 -61.7500 Du        
    853 ****       259.2500 352.2500 -61.5000 Du        
    854 ****       259.2500 352.2500 -61.2500 Du        
    855 ****       259.2500 352.2500 -61.0000 Du        
    856 ****       259.2500 352.2500 -60.7500 Du        
    857 ****       259.2500 352.2500 -60.5000 Du        
    858 ****       259.2500 352.2500 -60.2500 Du        
    859 ****       259.2500 352.2500 -60.0000 Du        
    860 ****       259.2500 352.2500 -59.7500 Du        
    861 ****       259.2500 352.2500 -59.5000 Du        
    862 ****       259.2500 352.2500 -59.2500 Du        
    863 ****       259.2500 352.5000 -61.7500 Du        
    864 ****       259.2500 352.5000 -61.5000 Du        
    865 ****       259.2500 352.5000 -61.2500 Du        
    866 ****       259.2500 352.5000 -61.0000 Du        
    867 ****       259.2500 352.5000 -60.7500 Du        
    868 ****       259.2500 352.5000 -60.5000 Du        
    869 ****       259.2500 352.5000 -60.2500 Du        
    870 ****       259.2500 352.5000 -60.0000 Du        
    871 ****       259.2500 352.5000 -59.7500 Du        
    872 ****       259.2500 352.5000 -59.5000 Du        
    873 ****       259.2500 352.5000 -59.2500 Du        
    874 ****       259.2500 352.7500 -61.7500 Du        
    875 ****       259.2500 352.7500 -61.5000 Du        
    876 ****       259.2500 352.7500 -61.2500 Du        
    877 ****       259.2500 352.7500 -61.0000 Du        
    878 ****       259.2500 352.7500 -60.7500 Du        
    879 ****       259.2500 352.7500 -60.5000 Du        
    880 ****       259.2500 352.7500 -60.2500 Du        
    881 ****       259.2500 352.7500 -60.0000 Du        
    882 ****       259.2500 352.7500 -59.7500 Du        
    883 ****       259.2500 352.7500 -59.5000 Du        
    884 ****       259.2500 353.0000 -61.7500 Du        
    885 ****       259.2500 353.0000 -61.5000 Du        
    886 ****       259.2500 353.0000 -61.2500 Du        
    887 ****       259.2500 353.0000 -61.0000 Du        
    888 ****       259.2500 353.0000 -60.7500 Du        
    889 ****       259.2500 353.0000 -60.5000 Du        
    890 ****       259.2500 353.0000 -60.2500 Du        
    891 ****       259.2500 353.0000 -60.0000 Du        
    892 ****       259.2500 353.0000 -59.7500 Du        
    893 ****       259.2500 353.0000 -59.5000 Du        
    894 ****       259.2500 353.2500 -61.7500 Du        
    895 ****       259.2500 353.2500 -61.5000 Du        
    896 ****       259.2500 353.2500 -61.2500 Du        
    897 ****       259.2500 353.2500 -61.0000 Du        
    898 ****       259.2500 353.2500 -60.7500 Du        
    899 ****       259.2500 353.2500 -60.5000 Du        
    900 ****       259.2500 353.2500 -60.2500 Du        
    901 ****       259.2500 353.2500 -60.0000 Du        
    902 ****       259.2500 353.2500 -59.7500 Du        
    903 ****       259.2500 353.2500 -59.5000 Du        
    904 ****       259.2500 353.5000 -61.7500 Du        
    905 ****       259.2500 353.5000 -61.5000 Du        
    906 ****       259.2500 353.5000 -61.2500 Du        
    907 ****       259.2500 353.5000 -61.0000 Du        
    908 ****       259.2500 353.5000 -60.7500 Du        
    909 ****       259.2500 353.5000 -60.5000 Du        
    910 ****       259.2500 353.5000 -60.2500 Du        
    911 ****       259.2500 353.5000 -60.0000 Du        
    912 ****       259.2500 353.5000 -59.7500 Du        
    913 ****       259.2500 353.7500 -61.7500 Du        
    914 ****       259.2500 353.7500 -61.5000 Du        
    915 ****       259.2500 353.7500 -61.2500 Du        
    916 ****       259.2500 353.7500 -61.0000 Du        
    917 ****       259.2500 353.7500 -60.7500 Du        
    918 ****       259.2500 353.7500 -60.5000 Du        
    919 ****       259.2500 353.7500 -60.2500 Du        
    920 ****       259.2500 353.7500 -60.0000 Du        
    921 ****       259.2500 353.7500 -59.7500 Du        
    922 ****       259.2500 354.0000 -61.5000 Du        
    923 ****       259.2500 354.0000 -61.2500 Du        
    924 ****       259.2500 354.0000 -61.0000 Du        
    925 ****       259.2500 354.0000 -60.7500 Du        
    926 ****       259.2500 354.0000 -60.5000 Du        
    927 ****       259.2500 354.0000 -60.2500 Du        
    928 ****       259.2500 354.0000 -60.0000 Du        
    929 ****       259.2500 354.2500 -61.5000 Du        
    930 ****       259.2500 354.2500 -61.2500 Du        
    931 ****       259.2500 354.2500 -61.0000 Du        
    932 ****       259.2500 354.2500 -60.7500 Du        
    933 ****       259.2500 354.2500 -60.5000 Du        
    934 ****       259.2500 354.2500 -60.2500 Du        
    935 ****       259.2500 354.5000 -61.2500 Du        
    936 ****       259.2500 354.5000 -61.0000 Du        
    937 ****       259.2500 354.5000 -60.7500 Du        
    938 ****       259.5000 350.2500 -59.7500 Du        
    939 ****       259.5000 350.2500 -59.5000 Du        
    940 ****       259.5000 350.2500 -59.2500 Du        
    941 ****       259.5000 350.5000 -60.2500 Du        
    942 ****       259.5000 350.5000 -60.0000 Du        
    943 ****       259.5000 350.5000 -59.7500 Du        
    944 ****       259.5000 350.5000 -59.5000 Du        
    945 ****       259.5000 350.5000 -59.2500 Du        
    946 ****       259.5000 350.5000 -59.0000 Du        
    947 ****       259.5000 350.7500 -60.7500 Du        
    948 ****       259.5000 350.7500 -60.5000 Du        
    949 ****       259.5000 350.7500 -60.2500 Du        
    950 ****       259.5000 350.7500 -60.0000 Du        
    951 ****       259.5000 350.7500 -59.7500 Du        
    952 ****       259.5000 350.7500 -59.5000 Du        
    953 ****       259.5000 350.7500 -59.2500 Du        
    954 ****       259.5000 350.7500 -59.0000 Du        
    955 ****       259.5000 350.7500 -58.7500 Du        
    956 ****       259.5000 351.0000 -61.2500 Du        
    957 ****       259.5000 351.0000 -61.0000 Du        
    958 ****       259.5000 351.0000 -60.7500 Du        
    959 ****       259.5000 351.0000 -60.5000 Du        
    960 ****       259.5000 351.0000 -60.2500 Du        
    961 ****       259.5000 351.0000 -60.0000 Du        
    962 ****       259.5000 351.0000 -59.7500 Du        
    963 ****       259.5000 351.0000 -59.5000 Du        
    964 ****       259.5000 351.0000 -59.2500 Du        
    965 ****       259.5000 351.0000 -59.0000 Du        
    966 ****       259.5000 351.0000 -58.7500 Du        
    967 ****       259.5000 351.0000 -58.5000 Du        
    968 ****       259.5000 351.2500 -61.5000 Du        
    969 ****       259.5000 351.2500 -61.2500 Du        
    970 ****       259.5000 351.2500 -61.0000 Du        
    971 ****       259.5000 351.2500 -60.7500 Du        
    972 ****       259.5000 351.2500 -60.5000 Du        
    973 ****       259.5000 351.2500 -60.2500 Du        
    974 ****       259.5000 351.2500 -60.0000 Du        
    975 ****       259.5000 351.2500 -59.7500 Du        
    976 ****       259.5000 351.2500 -59.5000 Du        
    977 ****       259.5000 351.2500 -59.2500 Du        
    978 ****       259.5000 351.2500 -59.0000 Du        
    979 ****       259.5000 351.2500 -58.7500 Du        
    980 ****       259.5000 351.2500 -58.5000 Du        
    981 ****       259.5000 351.2500 -58.2500 Du        
    982 ****       259.5000 351.5000 -61.7500 Du        
    983 ****       259.5000 351.5000 -61.5000 Du        
    984 ****       259.5000 351.5000 -61.2500 Du        
    985 ****       259.5000 351.5000 -61.0000 Du        
    986 ****       259.5000 351.5000 -60.7500 Du        
    987 ****       259.5000 351.5000 -60.5000 Du        
    988 ****       259.5000 351.5000 -60.2500 Du        
    989 ****       259.5000 351.5000 -60.0000 Du        
    990 ****       259.5000 351.5000 -59.7500 Du        
    991 ****       259.5000 351.5000 -59.5000 Du        
    992 ****       259.5000 351.5000 -59.2500 Du        
    993 ****       259.5000 351.5000 -59.0000 Du        
    994 ****       259.5000 351.5000 -58.7500 Du        
    995 ****       259.5000 351.5000 -58.5000 Du        
    996 ****       259.5000 351.7500 -61.7500 Du        
    997 ****       259.5000 351.7500 -61.5000 Du        
    998 ****       259.5000 351.7500 -61.2500 Du        
    999 ****       259.5000 351.7500 -61.0000 Du        
   1000 ****       259.5000 351.7500 -60.7500 Du        
   1001 ****       259.5000 351.7500 -60.5000 Du        
   1002 ****       259.5000 351.7500 -60.2500 Du        
   1003 ****       259.5000 351.7500 -60.0000 Du        
   1004 ****       259.5000 351.7500 -59.7500 Du        
   1005 ****       259.5000 351.7500 -59.5000 Du        
   1006 ****       259.5000 351.7500 -59.2500 Du        
   1007 ****       259.5000 351.7500 -59.0000 Du        
   1008 ****       259.5000 351.7500 -58.7500 Du        
   1009 ****       259.5000 352.0000 -61.7500 Du        
   1010 ****       259.5000 352.0000 -61.5000 Du        
   1011 ****       259.5000 352.0000 -61.2500 Du        
   1012 ****       259.5000 352.0000 -61.0000 Du        
   1013 ****       259.5000 352.0000 -60.7500 Du        
   1014 ****       259.5000 352.0000 -60.5000 Du        
   1015 ****       259.5000 352.0000 -60.2500 Du        
   1016 ****       259.5000 352.0000 -60.0000 Du        
   1017 ****       259.5000 352.0000 -59.7500 Du        
   1018 ****       259.5000 352.0000 -59.5000 Du        
   1019 ****       259.5000 352.0000 -59.2500 Du        
   1020 ****       259.5000 352.0000 -59.0000 Du        
   1021 ****       259.5000 352.2500 -61.7500 Du        
   1022 ****       259.5000 352.2500 -61.5000 Du        
   1023 ****       259.5000 352.2500 -61.2500 Du        
   1024 ****       259.5000 352.2500 -61.0000 Du        
   1025 ****       259.5000 352.2500 -60.7500 Du        
   1026 ****       259.5000 352.2500 -60.5000 Du        
   1027 ****       259.5000 352.2500 -60.2500 Du        
   1028 ****       259.5000 352.2500 -60.0000 Du        
   1029 ****       259.5000 352.2500 -59.7500 Du        
   1030 ****       259.5000 352.2500 -59.5000 Du        
   1031 ****       259.5000 352.2500 -59.2500 Du        
   1032 ****       259.5000 352.5000 -61.7500 Du        
   1033 ****       259.5000 352.5000 -61.5000 Du        
   1034 ****       259.5000 352.5000 -61.2500 Du        
   1035 ****       259.5000 352.5000 -61.0000 Du        
   1036 ****       259.5000 352.5000 -60.7500 Du        
   1037 ****       259.5000 352.5000 -60.5000 Du        
   1038 ****       259.5000 352.5000 -60.2500 Du        
   1039 ****       259.5000 352.5000 -60.0000 Du        
   1040 ****       259.5000 352.5000 -59.7500 Du        
   1041 ****       259.5000 352.5000 -59.5000 Du        
   1042 ****       259.5000 352.7500 -61.7500 Du        
   1043 ****       259.5000 352.7500 -61.5000 Du        
   1044 ****       259.5000 352.7500 -61.2500 Du        
   1045 ****       259.5000 352.7500 -61.0000 Du        
   1046 ****       259.5000 352.7500 -60.7500 Du        
   1047 ****       259.5000 352.7500 -60.5000 Du        
   1048 ****       259.5000 352.7500 -60.2500 Du        
   1049 ****       259.5000 352.7500 -60.0000 Du        
   1050 ****       259.5000 352.7500 -59.7500 Du        
   1051 ****       259.5000 352.7500 -59.5000 Du        
   1052 ****       259.5000 353.0000 -61.7500 Du        
   1053 ****       259.5000 353.0000 -61.5000 Du        
   1054 ****       259.5000 353.0000 -61.2500 Du        
   1055 ****       259.5000 353.0000 -61.0000 Du        
   1056 ****       259.5000 353.0000 -60.7500 Du        
   1057 ****       259.5000 353.0000 -60.5000 Du        
   1058 ****       259.5000 353.0000 -60.2500 Du        
   1059 ****       259.5000 353.0000 -60.0000 Du        
   1060 ****       259.5000 353.0000 -59.7500 Du        
   1061 ****       259.5000 353.0000 -59.5000 Du        
   1062 ****       259.5000 353.2500 -61.7500 Du        
   1063 ****       259.5000 353.2500 -61.5000 Du        
   1064 ****       259.5000 353.2500 -61.2500 Du        
   1065 ****       259.5000 353.2500 -61.0000 Du        
   1066 ****       259.5000 353.2500 -60.7500 Du        
   1067 ****       259.5000 353.2500 -60.5000 Du        
   1068 ****       259.5000 353.2500 -60.2500 Du        
   1069 ****       259.5000 353.2500 -60.0000 Du        
   1070 ****       259.5000 353.2500 -59.7500 Du        
   1071 ****       259.5000 353.5000 -61.5000 Du        
   1072 ****       259.5000 353.5000 -61.2500 Du        
   1073 ****       259.5000 353.5000 -61.0000 Du        
   1074 ****       259.5000 353.5000 -60.7500 Du        
   1075 ****       259.5000 353.5000 -60.5000 Du        
   1076 ****       259.5000 353.5000 -60.2500 Du        
   1077 ****       259.5000 353.5000 -60.0000 Du        
   1078 ****       259.5000 353.5000 -59.7500 Du        
   1079 ****       259.5000 353.7500 -61.5000 Du        
   1080 ****       259.5000 353.7500 -61.2500 Du        
   1081 ****       259.5000 353.7500 -61.0000 Du        
   1082 ****       259.5000 353.7500 -60.7500 Du        
   1083 ****       259.5000 353.7500 -60.5000 Du        
   1084 ****       259.5000 353.7500 -60.2500 Du        
   1085 ****       259.5000 353.7500 -60.0000 Du        
   1086 ****       259.5000 353.7500 -59.7500 Du        
   1087 ****       259.5000 354.0000 -61.5000 Du        
   1088 ****       259.5000 354.0000 -61.2500 Du        
   1089 ****       259.5000 354.0000 -61.0000 Du        
   1090 ****       259.5000 354.0000 -60.7500 Du        
   1091 ****       259.5000 354.0000 -60.5000 Du        
   1092 ****       259.5000 354.0000 -60.2500 Du        
   1093 ****       259.5000 354.0000 -60.0000 Du        
   1094 ****       259.5000 354.2500 -61.5000 Du        
   1095 ****       259.5000 354.2500 -61.2500 Du        
   1096 ****       259.5000 354.2500 -61.0000 Du        
   1097 ****       259.5000 354.2500 -60.7500 Du        
   1098 ****       259.5000 354.2500 -60.5000 Du        
   1099 ****       259.5000 354.2500 -60.2500 Du        
   1100 ****       259.5000 354.5000 -61.2500 Du        
   1101 ****       259.5000 354.5000 -61.0000 Du        
   1102 ****       259.5000 354.5000 -60.7500 Du        
   1103 ****       259.7500 350.2500 -60.0000 Du        
   1104 ****       259.7500 350.2500 -59.7500 Du        
   1105 ****       259.7500 350.2500 -59.5000 Du        
   1106 ****       259.7500 350.2500 -59.2500 Du        
   1107 ****       259.7500 350.5000 -60.5000 Du        
   1108 ****       259.7500 350.5000 -60.2500 Du        
   1109 ****       259.7500 350.5000 -60.0000 Du        
   1110 ****       259.7500 350.5000 -59.7500 Du        
   1111 ****       259.7500 350.5000 -59.5000 Du        
   1112 ****       259.7500 350.5000 -59.2500 Du        
   1113 ****       259.7500 350.5000 -59.0000 Du        
   1114 ****       259.7500 350.7500 -61.0000 Du        
   1115 ****       259.7500 350.7500 -60.7500 Du        
   1116 ****       259.7500 350.7500 -60.5000 Du        
   1117 ****       259.7500 350.7500 -60.2500 Du        
   1118 ****       259.7500 350.7500 -60.0000 Du        
   1119 ****       259.7500 350.7500 -59.7500 Du        
   1120 ****       259.7500 350.7500 -59.5000 Du        
   1121 ****       259.7500 350.7500 -59.2500 Du        
   1122 ****       259.7500 350.7500 -59.0000 Du        
   1123 ****       259.7500 350.7500 -58.7500 Du        
   1124 ****       259.7500 351.0000 -61.2500 Du        
   1125 ****       259.7500 351.0000 -61.0000 Du        
   1126 ****       259.7500 351.0000 -60.7500 Du        
   1127 ****       259.7500 351.0000 -60.5000 Du        
   1128 ****       259.7500 351.0000 -60.2500 Du        
   1129 ****       259.7500 351.0000 -60.0000 Du        
   1130 ****       259.7500 351.0000 -59.7500 Du        
   1131 ****       259.7500 351.0000 -59.5000 Du        
   1132 ****       259.7500 351.0000 -59.2500 Du        
   1133 ****       259.7500 351.0000 -59.0000 Du        
   1134 ****       259.7500 351.0000 -58.7500 Du        
   1135 ****       259.7500 351.0000 -58.5000 Du        
   1136 ****       259.7500 351.2500 -61.5000 Du        
   1137 ****       259.7500 351.2500 -61.2500 Du        
   1138 ****       259.7500 351.2500 -61.0000 Du        
   1139 ****       259.7500 351.2500 -60.7500 Du        
   1140 ****       259.7500 351.2500 -60.5000 Du        
   1141 ****       259.7500 351.2500 -60.2500 Du        
   1142 ****       259.7500 351.2500 -60.0000 Du        
   1143 ****       259.7500 351.2500 -59.7500 Du        
   1144 ****       259.7500 351.2500 -59.5000 Du        
   1145 ****       259.7500 351.2500 -59.2500 Du        
   1146 ****       259.7500 351.2500 -59.0000 Du        
   1147 ****       259.7500 351.2500 -58.7500 Du        
   1148 ****       259.7500 351.2500 -58.5000 Du        
   1149 ****       259.7500 351.5000 -61.7500 Du        
   1150 ****       259.7500 351.5000 -61.5000 Du        
   1151 ****       259.7500 351.5000 -61.2500 Du        
   1152 ****       259.7500 351.5000 -61.0000 Du        
   1153 ****       259.7500 351.5000 -60.7500 Du        
   1154 ****       259.7500 351.5000 -60.5000 Du        
   1155 ****       259.7500 351.5000 -60.2500 Du        
   1156 ****       259.7500 351.5000 -60.0000 Du        
   1157 ****       259.7500 351.5000 -59.7500 Du        
   1158 ****       259.7500 351.5000 -59.5000 Du        
   1159 ****       259.7500 351.5000 -59.2500 Du        
   1160 ****       259.7500 351.5000 -59.0000 Du        
   1161 ****       259.7500 351.5000 -58.7500 Du        
   1162 ****       259.7500 351.7500 -61.7500 Du        
   1163 ****       259.7500 351.7500 -61.5000 Du        
   1164 ****       259.7500 351.7500 -61.2500 Du        
   1165 ****       259.7500 351.7500 -61.0000 Du        
   1166 ****       259.7500 351.7500 -60.7500 Du        
   1167 ****       259.7500 351.7500 -60.5000 Du        
   1168 ****       259.7500 351.7500 -60.2500 Du        
   1169 ****       259.7500 351.7500 -60.0000 Du        
   1170 ****       259.7500 351.7500 -59.7500 Du        
   1171 ****       259.7500 351.7500 -59.5000 Du        
   1172 ****       259.7500 351.7500 -59.2500 Du        
   1173 ****       259.7500 351.7500 -59.0000 Du        
   1174 ****       259.7500 352.0000 -62.0000 Du        
   1175 ****       259.7500 352.0000 -61.7500 Du        
   1176 ****       259.7500 352.0000 -61.5000 Du        
   1177 ****       259.7500 352.0000 -61.2500 Du        
   1178 ****       259.7500 352.0000 -61.0000 Du        
   1179 ****       259.7500 352.0000 -60.7500 Du        
   1180 ****       259.7500 352.0000 -60.5000 Du        
   1181 ****       259.7500 352.0000 -60.2500 Du        
   1182 ****       259.7500 352.0000 -60.0000 Du        
   1183 ****       259.7500 352.0000 -59.7500 Du        
   1184 ****       259.7500 352.0000 -59.5000 Du        
   1185 ****       259.7500 352.0000 -59.2500 Du        
   1186 ****       259.7500 352.2500 -61.7500 Du        
   1187 ****       259.7500 352.2500 -61.5000 Du        
   1188 ****       259.7500 352.2500 -61.2500 Du        
   1189 ****       259.7500 352.2500 -61.0000 Du        
   1190 ****       259.7500 352.2500 -60.7500 Du        
   1191 ****       259.7500 352.2500 -60.5000 Du        
   1192 ****       259.7500 352.2500 -60.2500 Du        
   1193 ****       259.7500 352.2500 -60.0000 Du        
   1194 ****       259.7500 352.2500 -59.7500 Du        
   1195 ****       259.7500 352.2500 -59.5000 Du        
   1196 ****       259.7500 352.2500 -59.2500 Du        
   1197 ****       259.7500 352.5000 -61.7500 Du        
   1198 ****       259.7500 352.5000 -61.5000 Du        
   1199 ****       259.7500 352.5000 -61.2500 Du        
   1200 ****       259.7500 352.5000 -61.0000 Du        
   1201 ****       259.7500 352.5000 -60.7500 Du        
   1202 ****       259.7500 352.5000 -60.5000 Du        
   1203 ****       259.7500 352.5000 -60.2500 Du        
   1204 ****       259.7500 352.5000 -60.0000 Du        
   1205 ****       259.7500 352.5000 -59.7500 Du        
   1206 ****       259.7500 352.5000 -59.5000 Du        
   1207 ****       259.7500 352.7500 -61.7500 Du        
   1208 ****       259.7500 352.7500 -61.5000 Du        
   1209 ****       259.7500 352.7500 -61.2500 Du        
   1210 ****       259.7500 352.7500 -61.0000 Du        
   1211 ****       259.7500 352.7500 -60.7500 Du        
   1212 ****       259.7500 352.7500 -60.5000 Du        
   1213 ****       259.7500 352.7500 -60.2500 Du        
   1214 ****       259.7500 352.7500 -60.0000 Du        
   1215 ****       259.7500 352.7500 -59.7500 Du        
   1216 ****       259.7500 352.7500 -59.5000 Du        
   1217 ****       259.7500 353.0000 -61.5000 Du        
   1218 ****       259.7500 353.0000 -61.2500 Du        
   1219 ****       259.7500 353.0000 -61.0000 Du        
   1220 ****       259.7500 353.0000 -60.7500 Du        
   1221 ****       259.7500 353.0000 -60.5000 Du        
   1222 ****       259.7500 353.0000 -60.2500 Du        
   1223 ****       259.7500 353.0000 -60.0000 Du        
   1224 ****       259.7500 353.0000 -59.7500 Du        
   1225 ****       259.7500 353.2500 -61.5000 Du        
   1226 ****       259.7500 353.2500 -61.2500 Du        
   1227 ****       259.7500 353.2500 -61.0000 Du        
   1228 ****       259.7500 353.2500 -60.7500 Du        
   1229 ****       259.7500 353.2500 -60.5000 Du        
   1230 ****       259.7500 353.2500 -60.2500 Du        
   1231 ****       259.7500 353.2500 -60.0000 Du        
   1232 ****       259.7500 353.2500 -59.7500 Du        
   1233 ****       259.7500 353.5000 -61.5000 Du        
   1234 ****       259.7500 353.5000 -61.2500 Du        
   1235 ****       259.7500 353.5000 -61.0000 Du        
   1236 ****       259.7500 353.5000 -60.7500 Du        
   1237 ****       259.7500 353.5000 -60.5000 Du        
   1238 ****       259.7500 353.5000 -60.2500 Du        
   1239 ****       259.7500 353.5000 -60.0000 Du        
   1240 ****       259.7500 353.5000 -59.7500 Du        
   1241 ****       259.7500 353.7500 -61.5000 Du        
   1242 ****       259.7500 353.7500 -61.2500 Du        
   1243 ****       259.7500 353.7500 -61.0000 Du        
   1244 ****       259.7500 353.7500 -60.7500 Du        
   1245 ****       259.7500 353.7500 -60.5000 Du        
   1246 ****       259.7500 353.7500 -60.2500 Du        
   1247 ****       259.7500 353.7500 -60.0000 Du        
   1248 ****       259.7500 353.7500 -59.7500 Du        
   1249 ****       259.7500 354.0000 -61.5000 Du        
   1250 ****       259.7500 354.0000 -61.2500 Du        
   1251 ****       259.7500 354.0000 -61.0000 Du        
   1252 ****       259.7500 354.0000 -60.7500 Du        
   1253 ****       259.7500 354.0000 -60.5000 Du        
   1254 ****       259.7500 354.0000 -60.2500 Du        
   1255 ****       259.7500 354.0000 -60.0000 Du        
   1256 ****       259.7500 354.2500 -61.2500 Du        
   1257 ****       259.7500 354.2500 -61.0000 Du        
   1258 ****       259.7500 354.2500 -60.7500 Du        
   1259 ****       259.7500 354.2500 -60.5000 Du        
   1260 ****       259.7500 354.2500 -60.2500 Du        
   1261 ****       259.7500 354.5000 -61.2500 Du        
   1262 ****       259.7500 354.5000 -61.0000 Du        
   1263 ****       259.7500 354.5000 -60.7500 Du        
   1264 ****       260.0000 350.2500 -60.2500 Du        
   1265 ****       260.0000 350.2500 -60.0000 Du        
   1266 ****       260.0000 350.2500 -59.7500 Du        
   1267 ****       260.0000 350.2500 -59.5000 Du        
   1268 ****       260.0000 350.5000 -60.7500 Du        
   1269 ****       260.0000 350.5000 -60.5000 Du        
   1270 ****       260.0000 350.5000 -60.2500 Du        
   1271 ****       260.0000 350.5000 -60.0000 Du        
   1272 ****       260.0000 350.5000 -59.7500 Du        
   1273 ****       260.0000 350.5000 -59.5000 Du        
   1274 ****       260.0000 350.5000 -59.2500 Du        
   1275 ****       260.0000 350.5000 -59.0000 Du        
   1276 ****       260.0000 350.7500 -61.2500 Du        
   1277 ****       260.0000 350.7500 -61.0000 Du        
   1278 ****       260.0000 350.7500 -60.7500 Du        
   1279 ****       260.0000 350.7500 -60.5000 Du        
   1280 ****       260.0000 350.7500 -60.2500 Du        
   1281 ****       260.0000 350.7500 -60.0000 Du        
   1282 ****       260.0000 350.7500 -59.7500 Du        
   1283 ****       260.0000 350.7500 -59.5000 Du        
   1284 ****       260.0000 350.7500 -59.2500 Du        
   1285 ****       260.0000 350.7500 -59.0000 Du        
   1286 ****       260.0000 350.7500 -58.7500 Du        
   1287 ****       260.0000 351.0000 -61.5000 Du        
   1288 ****       260.0000 351.0000 -61.2500 Du        
   1289 ****       260.0000 351.0000 -61.0000 Du        
   1290 ****       260.0000 351.0000 -60.7500 Du        
   1291 ****       260.0000 351.0000 -60.5000 Du        
   1292 ****       260.0000 351.0000 -60.2500 Du        
   1293 ****       260.0000 351.0000 -60.0000 Du        
   1294 ****       260.0000 351.0000 -59.7500 Du        
   1295 ****       260.0000 351.0000 -59.5000 Du        
   1296 ****       260.0000 351.0000 -59.2500 Du        
   1297 ****       260.0000 351.0000 -59.0000 Du        
   1298 ****       260.0000 351.0000 -58.7500 Du        
   1299 ****       260.0000 351.0000 -58.5000 Du        
   1300 ****       260.0000 351.2500 -61.5000 Du        
   1301 ****       260.0000 351.2500 -61.2500 Du        
   1302 ****       260.0000 351.2500 -61.0000 Du        
   1303 ****       260.0000 351.2500 -60.7500 Du        
   1304 ****       260.0000 351.2500 -60.5000 Du        
   1305 ****       260.0000 351.2500 -60.2500 Du        
   1306 ****       260.0000 351.2500 -60.0000 Du        
   1307 ****       260.0000 351.2500 -59.7500 Du        
   1308 ****       260.0000 351.2500 -59.5000 Du        
   1309 ****       260.0000 351.2500 -59.2500 Du        
   1310 ****       260.0000 351.2500 -59.0000 Du        
   1311 ****       260.0000 351.2500 -58.7500 Du        
   1312 ****       260.0000 351.2500 -58.5000 Du        
   1313 ****       260.0000 351.5000 -61.7500 Du        
   1314 ****       260.0000 351.5000 -61.5000 Du        
   1315 ****       260.0000 351.5000 -61.2500 Du        
   1316 ****       260.0000 351.5000 -61.0000 Du        
   1317 ****       260.0000 351.5000 -60.7500 Du        
   1318 ****       260.0000 351.5000 -60.5000 Du        
   1319 ****       260.0000 351.5000 -60.2500 Du        
   1320 ****       260.0000 351.5000 -60.0000 Du        
   1321 ****       260.0000 351.5000 -59.7500 Du        
   1322 ****       260.0000 351.5000 -59.5000 Du        
   1323 ****       260.0000 351.5000 -59.2500 Du        
   1324 ****       260.0000 351.5000 -59.0000 Du        
   1325 ****       260.0000 351.5000 -58.7500 Du        
   1326 ****       260.0000 351.7500 -61.7500 Du        
   1327 ****       260.0000 351.7500 -61.5000 Du        
   1328 ****       260.0000 351.7500 -61.2500 Du        
   1329 ****       260.0000 351.7500 -61.0000 Du        
   1330 ****       260.0000 351.7500 -60.7500 Du        
   1331 ****       260.0000 351.7500 -60.5000 Du        
   1332 ****       260.0000 351.7500 -60.2500 Du        
   1333 ****       260.0000 351.7500 -60.0000 Du        
   1334 ****       260.0000 351.7500 -59.7500 Du        
   1335 ****       260.0000 351.7500 -59.5000 Du        
   1336 ****       260.0000 351.7500 -59.2500 Du        
   1337 ****       260.0000 351.7500 -59.0000 Du        
   1338 ****       260.0000 352.0000 -62.0000 Du        
   1339 ****       260.0000 352.0000 -61.7500 Du        
   1340 ****       260.0000 352.0000 -61.5000 Du        
   1341 ****       260.0000 352.0000 -61.2500 Du        
   1342 ****       260.0000 352.0000 -61.0000 Du        
   1343 ****       260.0000 352.0000 -60.7500 Du        
   1344 ****       260.0000 352.0000 -60.5000 Du        
   1345 ****       260.0000 352.0000 -60.2500 Du        
   1346 ****       260.0000 352.0000 -60.0000 Du        
   1347 ****       260.0000 352.0000 -59.7500 Du        
   1348 ****       260.0000 352.0000 -59.5000 Du        
   1349 ****       260.0000 352.0000 -59.2500 Du        
   1350 ****       260.0000 352.2500 -61.7500 Du        
   1351 ****       260.0000 352.2500 -61.5000 Du        
   1352 ****       260.0000 352.2500 -61.2500 Du        
   1353 ****       260.0000 352.2500 -61.0000 Du        
   1354 ****       260.0000 352.2500 -60.7500 Du        
   1355 ****       260.0000 352.2500 -60.5000 Du        
   1356 ****       260.0000 352.2500 -60.2500 Du        
   1357 ****       260.0000 352.2500 -60.0000 Du        
   1358 ****       260.0000 352.2500 -59.7500 Du        
   1359 ****       260.0000 352.2500 -59.5000 Du        
   1360 ****       260.0000 352.5000 -61.7500 Du        
   1361 ****       260.0000 352.5000 -61.5000 Du        
   1362 ****       260.0000 352.5000 -61.2500 Du        
   1363 ****       260.0000 352.5000 -61.0000 Du        
   1364 ****       260.0000 352.5000 -60.7500 Du        
   1365 ****       260.0000 352.5000 -60.5000 Du        
   1366 ****       260.0000 352.5000 -60.2500 Du        
   1367 ****       260.0000 352.5000 -60.0000 Du        
   1368 ****       260.0000 352.5000 -59.7500 Du        
   1369 ****       260.0000 352.5000 -59.5000 Du        
   1370 ****       260.0000 352.7500 -61.5000 Du        
   1371 ****       260.0000 352.7500 -61.2500 Du        
   1372 ****       260.0000 352.7500 -61.0000 Du        
   1373 ****       260.0000 352.7500 -60.7500 Du        
   1374 ****       260.0000 352.7500 -60.5000 Du        
   1375 ****       260.0000 352.7500 -60.2500 Du        
   1376 ****       260.0000 352.7500 -60.0000 Du        
   1377 ****       260.0000 352.7500 -59.7500 Du        
   1378 ****       260.0000 353.0000 -61.5000 Du        
   1379 ****       260.0000 353.0000 -61.2500 Du        
   1380 ****       260.0000 353.0000 -61.0000 Du        
   1381 ****       260.0000 353.0000 -60.7500 Du        
   1382 ****       260.0000 353.0000 -60.5000 Du        
   1383 ****       260.0000 353.0000 -60.2500 Du        
   1384 ****       260.0000 353.0000 -60.0000 Du        
   1385 ****       260.0000 353.0000 -59.7500 Du        
   1386 ****       260.0000 353.2500 -61.5000 Du        
   1387 ****       260.0000 353.2500 -61.2500 Du        
   1388 ****       260.0000 353.2500 -61.0000 Du        
   1389 ****       260.0000 353.2500 -60.7500 Du        
   1390 ****       260.0000 353.2500 -60.5000 Du        
   1391 ****       260.0000 353.2500 -60.2500 Du        
   1392 ****       260.0000 353.2500 -60.0000 Du        
   1393 ****       260.0000 353.2500 -59.7500 Du        
   1394 ****       260.0000 353.5000 -61.5000 Du        
   1395 ****       260.0000 353.5000 -61.2500 Du        
   1396 ****       260.0000 353.5000 -61.0000 Du        
   1397 ****       260.0000 353.5000 -60.7500 Du        
   1398 ****       260.0000 353.5000 -60.5000 Du        
   1399 ****       260.0000 353.5000 -60.2500 Du        
   1400 ****       260.0000 353.5000 -60.0000 Du        
   1401 ****       260.0000 353.5000 -59.7500 Du        
   1402 ****       260.0000 353.7500 -61.2500 Du        
   1403 ****       260.0000 353.7500 -61.0000 Du        
   1404 ****       260.0000 353.7500 -60.7500 Du        
   1405 ****       260.0000 353.7500 -60.5000 Du        
   1406 ****       260.0000 353.7500 -60.2500 Du        
   1407 ****       260.0000 353.7500 -60.0000 Du        
   1408 ****       260.0000 354.0000 -61.2500 Du        
   1409 ****       260.0000 354.0000 -61.0000 Du        
   1410 ****       260.0000 354.0000 -60.7500 Du        
   1411 ****       260.0000 354.0000 -60.5000 Du        
   1412 ****       260.0000 354.0000 -60.2500 Du        
   1413 ****       260.0000 354.0000 -60.0000 Du        
   1414 ****       260.0000 354.2500 -61.2500 Du        
   1415 ****       260.0000 354.2500 -61.0000 Du        
   1416 ****       260.0000 354.2500 -60.7500 Du        
   1417 ****       260.0000 354.2500 -60.5000 Du        
   1418 ****       260.0000 354.2500 -60.2500 Du        
   1419 ****       260.0000 354.5000 -61.0000 Du        
   1420 ****       260.0000 354.5000 -60.7500 Du        
   1421 ****       260.2500 343.0000 -57.7500 Du        
   1422 ****       260.2500 343.0000 -57.5000 Du        
   1423 ****       260.2500 343.0000 -57.2500 Du        
   1424 ****       260.2500 343.0000 -57.0000 Du        
   1425 ****       260.2500 343.2500 -57.7500 Du        
   1426 ****       260.2500 343.2500 -57.5000 Du        
   1427 ****       260.2500 343.2500 -57.2500 Du        
   1428 ****       260.2500 343.2500 -57.0000 Du        
   1429 ****       260.2500 343.2500 -56.7500 Du        
   1430 ****       260.2500 343.2500 -56.5000 Du        
   1431 ****       260.2500 343.2500 -56.2500 Du        
   1432 ****       260.2500 343.5000 -57.7500 Du        
   1433 ****       260.2500 343.5000 -57.5000 Du        
   1434 ****       260.2500 343.5000 -57.2500 Du        
   1435 ****       260.2500 343.5000 -57.0000 Du        
   1436 ****       260.2500 343.5000 -56.7500 Du        
   1437 ****       260.2500 343.5000 -56.5000 Du        
   1438 ****       260.2500 343.5000 -56.2500 Du        
   1439 ****       260.2500 343.5000 -56.0000 Du        
   1440 ****       260.2500 343.7500 -57.5000 Du        
   1441 ****       260.2500 343.7500 -57.2500 Du        
   1442 ****       260.2500 343.7500 -57.0000 Du        
   1443 ****       260.2500 343.7500 -56.7500 Du        
   1444 ****       260.2500 343.7500 -56.5000 Du        
   1445 ****       260.2500 343.7500 -56.2500 Du        
   1446 ****       260.2500 344.0000 -57.2500 Du        
   1447 ****       260.2500 350.2500 -60.2500 Du        
   1448 ****       260.2500 350.2500 -60.0000 Du        
   1449 ****       260.2500 350.2500 -59.7500 Du        
   1450 ****       260.2500 350.2500 -59.5000 Du        
   1451 ****       260.2500 350.5000 -61.0000 Du        
   1452 ****       260.2500 350.5000 -60.7500 Du        
   1453 ****       260.2500 350.5000 -60.5000 Du        
   1454 ****       260.2500 350.5000 -60.2500 Du        
   1455 ****       260.2500 350.5000 -60.0000 Du        
   1456 ****       260.2500 350.5000 -59.7500 Du        
   1457 ****       260.2500 350.5000 -59.5000 Du        
   1458 ****       260.2500 350.5000 -59.2500 Du        
   1459 ****       260.2500 350.7500 -61.2500 Du        
   1460 ****       260.2500 350.7500 -61.0000 Du        
   1461 ****       260.2500 350.7500 -60.7500 Du        
   1462 ****       260.2500 350.7500 -60.5000 Du        
   1463 ****       260.2500 350.7500 -60.2500 Du        
   1464 ****       260.2500 350.7500 -60.0000 Du        
   1465 ****       260.2500 350.7500 -59.7500 Du        
   1466 ****       260.2500 350.7500 -59.5000 Du        
   1467 ****       260.2500 350.7500 -59.2500 Du        
   1468 ****       260.2500 350.7500 -59.0000 Du        
   1469 ****       260.2500 351.0000 -61.5000 Du        
   1470 ****       260.2500 351.0000 -61.2500 Du        
   1471 ****       260.2500 351.0000 -61.0000 Du        
   1472 ****       260.2500 351.0000 -60.7500 Du        
   1473 ****       260.2500 351.0000 -60.5000 Du        
   1474 ****       260.2500 351.0000 -60.2500 Du        
   1475 ****       260.2500 351.0000 -60.0000 Du        
   1476 ****       260.2500 351.0000 -59.7500 Du        
   1477 ****       260.2500 351.0000 -59.5000 Du        
   1478 ****       260.2500 351.0000 -59.2500 Du        
   1479 ****       260.2500 351.0000 -59.0000 Du        
   1480 ****       260.2500 351.0000 -58.7500 Du        
   1481 ****       260.2500 351.2500 -61.7500 Du        
   1482 ****       260.2500 351.2500 -61.5000 Du        
   1483 ****       260.2500 351.2500 -61.2500 Du        
   1484 ****       260.2500 351.2500 -61.0000 Du        
   1485 ****       260.2500 351.2500 -60.7500 Du        
   1486 ****       260.2500 351.2500 -60.5000 Du        
   1487 ****       260.2500 351.2500 -60.2500 Du        
   1488 ****       260.2500 351.2500 -60.0000 Du        
   1489 ****       260.2500 351.2500 -59.7500 Du        
   1490 ****       260.2500 351.2500 -59.5000 Du        
   1491 ****       260.2500 351.2500 -59.2500 Du        
   1492 ****       260.2500 351.2500 -59.0000 Du        
   1493 ****       260.2500 351.2500 -58.7500 Du        
   1494 ****       260.2500 351.5000 -61.7500 Du        
   1495 ****       260.2500 351.5000 -61.5000 Du        
   1496 ****       260.2500 351.5000 -61.2500 Du        
   1497 ****       260.2500 351.5000 -61.0000 Du        
   1498 ****       260.2500 351.5000 -60.7500 Du        
   1499 ****       260.2500 351.5000 -60.5000 Du        
   1500 ****       260.2500 351.5000 -60.2500 Du        
   1501 ****       260.2500 351.5000 -60.0000 Du        
   1502 ****       260.2500 351.5000 -59.7500 Du        
   1503 ****       260.2500 351.5000 -59.5000 Du        
   1504 ****       260.2500 351.5000 -59.2500 Du        
   1505 ****       260.2500 351.5000 -59.0000 Du        
   1506 ****       260.2500 351.7500 -62.0000 Du        
   1507 ****       260.2500 351.7500 -61.7500 Du        
   1508 ****       260.2500 351.7500 -61.5000 Du        
   1509 ****       260.2500 351.7500 -61.2500 Du        
   1510 ****       260.2500 351.7500 -61.0000 Du        
   1511 ****       260.2500 351.7500 -60.7500 Du        
   1512 ****       260.2500 351.7500 -60.5000 Du        
   1513 ****       260.2500 351.7500 -60.2500 Du        
   1514 ****       260.2500 351.7500 -60.0000 Du        
   1515 ****       260.2500 351.7500 -59.7500 Du        
   1516 ****       260.2500 351.7500 -59.5000 Du        
   1517 ****       260.2500 351.7500 -59.2500 Du        
   1518 ****       260.2500 351.7500 -59.0000 Du        
   1519 ****       260.2500 352.0000 -61.7500 Du        
   1520 ****       260.2500 352.0000 -61.5000 Du        
   1521 ****       260.2500 352.0000 -61.2500 Du        
   1522 ****       260.2500 352.0000 -61.0000 Du        
   1523 ****       260.2500 352.0000 -60.7500 Du        
   1524 ****       260.2500 352.0000 -60.5000 Du        
   1525 ****       260.2500 352.0000 -60.2500 Du        
   1526 ****       260.2500 352.0000 -60.0000 Du        
   1527 ****       260.2500 352.0000 -59.7500 Du        
   1528 ****       260.2500 352.0000 -59.5000 Du        
   1529 ****       260.2500 352.0000 -59.2500 Du        
   1530 ****       260.2500 352.2500 -61.7500 Du        
   1531 ****       260.2500 352.2500 -61.5000 Du        
   1532 ****       260.2500 352.2500 -61.2500 Du        
   1533 ****       260.2500 352.2500 -61.0000 Du        
   1534 ****       260.2500 352.2500 -60.7500 Du        
   1535 ****       260.2500 352.2500 -60.5000 Du        
   1536 ****       260.2500 352.2500 -60.2500 Du        
   1537 ****       260.2500 352.2500 -60.0000 Du        
   1538 ****       260.2500 352.2500 -59.7500 Du        
   1539 ****       260.2500 352.2500 -59.5000 Du        
   1540 ****       260.2500 352.5000 -61.5000 Du        
   1541 ****       260.2500 352.5000 -61.2500 Du        
   1542 ****       260.2500 352.5000 -61.0000 Du        
   1543 ****       260.2500 352.5000 -60.7500 Du        
   1544 ****       260.2500 352.5000 -60.5000 Du        
   1545 ****       260.2500 352.5000 -60.2500 Du        
   1546 ****       260.2500 352.5000 -60.0000 Du        
   1547 ****       260.2500 352.5000 -59.7500 Du        
   1548 ****       260.2500 352.7500 -61.5000 Du        
   1549 ****       260.2500 352.7500 -61.2500 Du        
   1550 ****       260.2500 352.7500 -61.0000 Du        
   1551 ****       260.2500 352.7500 -60.7500 Du        
   1552 ****       260.2500 352.7500 -60.5000 Du        
   1553 ****       260.2500 352.7500 -60.2500 Du        
   1554 ****       260.2500 352.7500 -60.0000 Du        
   1555 ****       260.2500 352.7500 -59.7500 Du        
   1556 ****       260.2500 353.0000 -61.2500 Du        
   1557 ****       260.2500 353.0000 -61.0000 Du        
   1558 ****       260.2500 353.0000 -60.7500 Du        
   1559 ****       260.2500 353.0000 -60.5000 Du        
   1560 ****       260.2500 353.0000 -60.2500 Du        
   1561 ****       260.2500 353.0000 -60.0000 Du        
   1562 ****       260.2500 353.0000 -59.7500 Du        
   1563 ****       260.2500 353.2500 -61.2500 Du        
   1564 ****       260.2500 353.2500 -61.0000 Du        
   1565 ****       260.2500 353.2500 -60.7500 Du        
   1566 ****       260.2500 353.2500 -60.5000 Du        
   1567 ****       260.2500 353.2500 -60.2500 Du        
   1568 ****       260.2500 353.2500 -60.0000 Du        
   1569 ****       260.2500 353.5000 -61.0000 Du        
   1570 ****       260.2500 353.5000 -60.7500 Du        
   1571 ****       260.2500 353.5000 -60.5000 Du        
   1572 ****       260.2500 353.5000 -60.2500 Du        
   1573 ****       260.2500 353.5000 -60.0000 Du        
   1574 ****       260.2500 353.7500 -61.0000 Du        
   1575 ****       260.2500 353.7500 -60.7500 Du        
   1576 ****       260.2500 353.7500 -60.5000 Du        
   1577 ****       260.2500 353.7500 -60.2500 Du        
   1578 ****       260.2500 353.7500 -60.0000 Du        
   1579 ****       260.2500 354.0000 -61.0000 Du        
   1580 ****       260.2500 354.0000 -60.7500 Du        
   1581 ****       260.2500 354.0000 -60.5000 Du        
   1582 ****       260.2500 354.0000 -60.2500 Du        
   1583 ****       260.5000 343.0000 -57.5000 Du        
   1584 ****       260.5000 343.0000 -57.2500 Du        
   1585 ****       260.5000 343.0000 -57.0000 Du        
   1586 ****       260.5000 343.0000 -56.7500 Du        
   1587 ****       260.5000 343.2500 -57.5000 Du        
   1588 ****       260.5000 343.2500 -57.2500 Du        
   1589 ****       260.5000 343.2500 -57.0000 Du        
   1590 ****       260.5000 343.2500 -56.7500 Du        
   1591 ****       260.5000 343.2500 -56.5000 Du        
   1592 ****       260.5000 343.2500 -56.2500 Du        
   1593 ****       260.5000 343.5000 -57.5000 Du        
   1594 ****       260.5000 343.5000 -57.2500 Du        
   1595 ****       260.5000 343.5000 -57.0000 Du        
   1596 ****       260.5000 343.5000 -56.7500 Du        
   1597 ****       260.5000 343.5000 -56.5000 Du        
   1598 ****       260.5000 343.5000 -56.2500 Du        
   1599 ****       260.5000 343.5000 -56.0000 Du        
   1600 ****       260.5000 343.7500 -57.5000 Du        
   1601 ****       260.5000 343.7500 -57.2500 Du        
   1602 ****       260.5000 343.7500 -57.0000 Du        
   1603 ****       260.5000 343.7500 -56.7500 Du        
   1604 ****       260.5000 343.7500 -56.5000 Du        
   1605 ****       260.5000 343.7500 -56.2500 Du        
   1606 ****       260.5000 350.2500 -60.2500 Du        
   1607 ****       260.5000 350.2500 -60.0000 Du        
   1608 ****       260.5000 350.2500 -59.7500 Du        
   1609 ****       260.5000 350.2500 -59.5000 Du        
   1610 ****       260.5000 350.5000 -61.0000 Du        
   1611 ****       260.5000 350.5000 -60.7500 Du        
   1612 ****       260.5000 350.5000 -60.5000 Du        
   1613 ****       260.5000 350.5000 -60.2500 Du        
   1614 ****       260.5000 350.5000 -60.0000 Du        
   1615 ****       260.5000 350.5000 -59.7500 Du        
   1616 ****       260.5000 350.5000 -59.5000 Du        
   1617 ****       260.5000 350.5000 -59.2500 Du        
   1618 ****       260.5000 350.7500 -61.2500 Du        
   1619 ****       260.5000 350.7500 -61.0000 Du        
   1620 ****       260.5000 350.7500 -60.7500 Du        
   1621 ****       260.5000 350.7500 -60.5000 Du        
   1622 ****       260.5000 350.7500 -60.2500 Du        
   1623 ****       260.5000 350.7500 -60.0000 Du        
   1624 ****       260.5000 350.7500 -59.7500 Du        
   1625 ****       260.5000 350.7500 -59.5000 Du        
   1626 ****       260.5000 350.7500 -59.2500 Du        
   1627 ****       260.5000 350.7500 -59.0000 Du        
   1628 ****       260.5000 351.0000 -61.5000 Du        
   1629 ****       260.5000 351.0000 -61.2500 Du        
   1630 ****       260.5000 351.0000 -61.0000 Du        
   1631 ****       260.5000 351.0000 -60.7500 Du        
   1632 ****       260.5000 351.0000 -60.5000 Du        
   1633 ****       260.5000 351.0000 -60.2500 Du        
   1634 ****       260.5000 351.0000 -60.0000 Du        
   1635 ****       260.5000 351.0000 -59.7500 Du        
   1636 ****       260.5000 351.0000 -59.5000 Du        
   1637 ****       260.5000 351.0000 -59.2500 Du        
   1638 ****       260.5000 351.0000 -59.0000 Du        
   1639 ****       260.5000 351.0000 -58.7500 Du        
   1640 ****       260.5000 351.2500 -61.7500 Du        
   1641 ****       260.5000 351.2500 -61.5000 Du        
   1642 ****       260.5000 351.2500 -61.2500 Du        
   1643 ****       260.5000 351.2500 -61.0000 Du        
   1644 ****       260.5000 351.2500 -60.7500 Du        
   1645 ****       260.5000 351.2500 -60.5000 Du        
   1646 ****       260.5000 351.2500 -60.2500 Du        
   1647 ****       260.5000 351.2500 -60.0000 Du        
   1648 ****       260.5000 351.2500 -59.7500 Du        
   1649 ****       260.5000 351.2500 -59.5000 Du        
   1650 ****       260.5000 351.2500 -59.2500 Du        
   1651 ****       260.5000 351.2500 -59.0000 Du        
   1652 ****       260.5000 351.2500 -58.7500 Du        
   1653 ****       260.5000 351.5000 -61.7500 Du        
   1654 ****       260.5000 351.5000 -61.5000 Du        
   1655 ****       260.5000 351.5000 -61.2500 Du        
   1656 ****       260.5000 351.5000 -61.0000 Du        
   1657 ****       260.5000 351.5000 -60.7500 Du        
   1658 ****       260.5000 351.5000 -60.5000 Du        
   1659 ****       260.5000 351.5000 -60.2500 Du        
   1660 ****       260.5000 351.5000 -60.0000 Du        
   1661 ****       260.5000 351.5000 -59.7500 Du        
   1662 ****       260.5000 351.5000 -59.5000 Du        
   1663 ****       260.5000 351.5000 -59.2500 Du        
   1664 ****       260.5000 351.5000 -59.0000 Du        
   1665 ****       260.5000 351.7500 -61.7500 Du        
   1666 ****       260.5000 351.7500 -61.5000 Du        
   1667 ****       260.5000 351.7500 -61.2500 Du        
   1668 ****       260.5000 351.7500 -61.0000 Du        
   1669 ****       260.5000 351.7500 -60.7500 Du        
   1670 ****       260.5000 351.7500 -60.5000 Du        
   1671 ****       260.5000 351.7500 -60.2500 Du        
   1672 ****       260.5000 351.7500 -60.0000 Du        
   1673 ****       260.5000 351.7500 -59.7500 Du        
   1674 ****       260.5000 351.7500 -59.5000 Du        
   1675 ****       260.5000 351.7500 -59.2500 Du        
   1676 ****       260.5000 352.0000 -61.7500 Du        
   1677 ****       260.5000 352.0000 -61.5000 Du        
   1678 ****       260.5000 352.0000 -61.2500 Du        
   1679 ****       260.5000 352.0000 -61.0000 Du        
   1680 ****       260.5000 352.0000 -60.7500 Du        
   1681 ****       260.5000 352.0000 -60.5000 Du        
   1682 ****       260.5000 352.0000 -60.2500 Du        
   1683 ****       260.5000 352.0000 -60.0000 Du        
   1684 ****       260.5000 352.0000 -59.7500 Du        
   1685 ****       260.5000 352.0000 -59.5000 Du        
   1686 ****       260.5000 352.2500 -61.5000 Du        
   1687 ****       260.5000 352.2500 -61.2500 Du        
   1688 ****       260.5000 352.2500 -61.0000 Du        
   1689 ****       260.5000 352.2500 -60.7500 Du        
   1690 ****       260.5000 352.2500 -60.5000 Du        
   1691 ****       260.5000 352.2500 -60.2500 Du        
   1692 ****       260.5000 352.2500 -60.0000 Du        
   1693 ****       260.5000 352.2500 -59.7500 Du        
   1694 ****       260.5000 352.5000 -61.0000 Du        
   1695 ****       260.5000 352.5000 -60.7500 Du        
   1696 ****       260.5000 352.5000 -60.5000 Du        
   1697 ****       260.5000 352.5000 -60.2500 Du        
   1698 ****       260.5000 352.5000 -60.0000 Du        
   1699 ****       260.5000 352.5000 -59.7500 Du        
   1700 ****       260.5000 352.7500 -60.2500 Du        
   1701 ****       260.5000 352.7500 -60.0000 Du        
   1702 ****       260.7500 343.0000 -57.5000 Du        
   1703 ****       260.7500 343.0000 -57.2500 Du        
   1704 ****       260.7500 343.0000 -57.0000 Du        
   1705 ****       260.7500 343.0000 -56.7500 Du        
   1706 ****       260.7500 343.0000 -56.5000 Du        
   1707 ****       260.7500 343.2500 -57.5000 Du        
   1708 ****       260.7500 343.2500 -57.2500 Du        
   1709 ****       260.7500 343.2500 -57.0000 Du        
   1710 ****       260.7500 343.2500 -56.7500 Du        
   1711 ****       260.7500 343.2500 -56.5000 Du        
   1712 ****       260.7500 343.2500 -56.2500 Du        
   1713 ****       260.7500 343.5000 -57.5000 Du        
   1714 ****       260.7500 343.5000 -57.2500 Du        
   1715 ****       260.7500 343.5000 -57.0000 Du        
   1716 ****       260.7500 343.5000 -56.7500 Du        
   1717 ****       260.7500 343.5000 -56.5000 Du        
   1718 ****       260.7500 343.5000 -56.2500 Du        
   1719 ****       260.7500 343.5000 -56.0000 Du        
   1720 ****       260.7500 343.7500 -57.2500 Du        
   1721 ****       260.7500 343.7500 -57.0000 Du        
   1722 ****       260.7500 343.7500 -56.7500 Du        
   1723 ****       260.7500 343.7500 -56.5000 Du        
   1724 ****       260.7500 343.7500 -56.2500 Du        
   1725 ****       260.7500 344.0000 -57.0000 Du        
   1726 ****       260.7500 350.2500 -60.5000 Du        
   1727 ****       260.7500 350.2500 -60.2500 Du        
   1728 ****       260.7500 350.2500 -60.0000 Du        
   1729 ****       260.7500 350.2500 -59.7500 Du        
   1730 ****       260.7500 350.2500 -59.5000 Du        
   1731 ****       260.7500 350.5000 -61.2500 Du        
   1732 ****       260.7500 350.5000 -61.0000 Du        
   1733 ****       260.7500 350.5000 -60.7500 Du        
   1734 ****       260.7500 350.5000 -60.5000 Du        
   1735 ****       260.7500 350.5000 -60.2500 Du        
   1736 ****       260.7500 350.5000 -60.0000 Du        
   1737 ****       260.7500 350.5000 -59.7500 Du        
   1738 ****       260.7500 350.5000 -59.5000 Du        
   1739 ****       260.7500 350.5000 -59.2500 Du        
   1740 ****       260.7500 350.7500 -61.5000 Du        
   1741 ****       260.7500 350.7500 -61.2500 Du        
   1742 ****       260.7500 350.7500 -61.0000 Du        
   1743 ****       260.7500 350.7500 -60.7500 Du        
   1744 ****       260.7500 350.7500 -60.5000 Du        
   1745 ****       260.7500 350.7500 -60.2500 Du        
   1746 ****       260.7500 350.7500 -60.0000 Du        
   1747 ****       260.7500 350.7500 -59.7500 Du        
   1748 ****       260.7500 350.7500 -59.5000 Du        
   1749 ****       260.7500 350.7500 -59.2500 Du        
   1750 ****       260.7500 350.7500 -59.0000 Du        
   1751 ****       260.7500 351.0000 -61.7500 Du        
   1752 ****       260.7500 351.0000 -61.5000 Du        
   1753 ****       260.7500 351.0000 -61.2500 Du        
   1754 ****       260.7500 351.0000 -61.0000 Du        
   1755 ****       260.7500 351.0000 -60.7500 Du        
   1756 ****       260.7500 351.0000 -60.5000 Du        
   1757 ****       260.7500 351.0000 -60.2500 Du        
   1758 ****       260.7500 351.0000 -60.0000 Du        
   1759 ****       260.7500 351.0000 -59.7500 Du        
   1760 ****       260.7500 351.0000 -59.5000 Du        
   1761 ****       260.7500 351.0000 -59.2500 Du        
   1762 ****       260.7500 351.0000 -59.0000 Du        
   1763 ****       260.7500 351.0000 -58.7500 Du        
   1764 ****       260.7500 351.2500 -61.7500 Du        
   1765 ****       260.7500 351.2500 -61.5000 Du        
   1766 ****       260.7500 351.2500 -61.2500 Du        
   1767 ****       260.7500 351.2500 -61.0000 Du        
   1768 ****       260.7500 351.2500 -60.7500 Du        
   1769 ****       260.7500 351.2500 -60.5000 Du        
   1770 ****       260.7500 351.2500 -60.2500 Du        
   1771 ****       260.7500 351.2500 -60.0000 Du        
   1772 ****       260.7500 351.2500 -59.7500 Du        
   1773 ****       260.7500 351.2500 -59.5000 Du        
   1774 ****       260.7500 351.2500 -59.2500 Du        
   1775 ****       260.7500 351.2500 -59.0000 Du        
   1776 ****       260.7500 351.2500 -58.7500 Du        
   1777 ****       260.7500 351.5000 -61.7500 Du        
   1778 ****       260.7500 351.5000 -61.5000 Du        
   1779 ****       260.7500 351.5000 -61.2500 Du        
   1780 ****       260.7500 351.5000 -61.0000 Du        
   1781 ****       260.7500 351.5000 -60.7500 Du        
   1782 ****       260.7500 351.5000 -60.5000 Du        
   1783 ****       260.7500 351.5000 -60.2500 Du        
   1784 ****       260.7500 351.5000 -60.0000 Du        
   1785 ****       260.7500 351.5000 -59.7500 Du        
   1786 ****       260.7500 351.5000 -59.5000 Du        
   1787 ****       260.7500 351.5000 -59.2500 Du        
   1788 ****       260.7500 351.5000 -59.0000 Du        
   1789 ****       260.7500 351.7500 -61.5000 Du        
   1790 ****       260.7500 351.7500 -61.2500 Du        
   1791 ****       260.7500 351.7500 -61.0000 Du        
   1792 ****       260.7500 351.7500 -60.7500 Du        
   1793 ****       260.7500 351.7500 -60.5000 Du        
   1794 ****       260.7500 351.7500 -60.2500 Du        
   1795 ****       260.7500 351.7500 -60.0000 Du        
   1796 ****       260.7500 351.7500 -59.7500 Du        
   1797 ****       260.7500 351.7500 -59.5000 Du        
   1798 ****       260.7500 351.7500 -59.2500 Du        
   1799 ****       260.7500 352.0000 -61.2500 Du        
   1800 ****       260.7500 352.0000 -61.0000 Du        
   1801 ****       260.7500 352.0000 -60.7500 Du        
   1802 ****       260.7500 352.0000 -60.5000 Du        
   1803 ****       260.7500 352.0000 -60.2500 Du        
   1804 ****       260.7500 352.0000 -60.0000 Du        
   1805 ****       260.7500 352.0000 -59.7500 Du        
   1806 ****       260.7500 352.0000 -59.5000 Du        
   1807 ****       260.7500 352.2500 -60.2500 Du        
   1808 ****       260.7500 352.2500 -60.0000 Du        
   1809 ****       260.7500 352.2500 -59.7500 Du        
   1810 ****       261.0000 343.0000 -57.5000 Du        
   1811 ****       261.0000 343.0000 -57.2500 Du        
   1812 ****       261.0000 343.0000 -57.0000 Du        
   1813 ****       261.0000 343.0000 -56.7500 Du        
   1814 ****       261.0000 343.0000 -56.5000 Du        
   1815 ****       261.0000 343.2500 -57.5000 Du        
   1816 ****       261.0000 343.2500 -57.2500 Du        
   1817 ****       261.0000 343.2500 -57.0000 Du        
   1818 ****       261.0000 343.2500 -56.7500 Du        
   1819 ****       261.0000 343.2500 -56.5000 Du        
   1820 ****       261.0000 343.2500 -56.2500 Du        
   1821 ****       261.0000 343.5000 -57.2500 Du        
   1822 ****       261.0000 343.5000 -57.0000 Du        
   1823 ****       261.0000 343.5000 -56.7500 Du        
   1824 ****       261.0000 343.5000 -56.5000 Du        
   1825 ****       261.0000 343.5000 -56.2500 Du        
   1826 ****       261.0000 343.7500 -57.2500 Du        
   1827 ****       261.0000 343.7500 -57.0000 Du        
   1828 ****       261.0000 343.7500 -56.7500 Du        
   1829 ****       261.0000 343.7500 -56.5000 Du        
   1830 ****       261.0000 343.7500 -56.2500 Du        
   1831 ****       261.0000 344.0000 -57.0000 Du        
   1832 ****       261.0000 344.0000 -56.7500 Du        
   1833 ****       261.0000 350.2500 -60.2500 Du        
   1834 ****       261.0000 350.2500 -60.0000 Du        
   1835 ****       261.0000 350.2500 -59.7500 Du        
   1836 ****       261.0000 350.5000 -61.2500 Du        
   1837 ****       261.0000 350.5000 -61.0000 Du        
   1838 ****       261.0000 350.5000 -60.7500 Du        
   1839 ****       261.0000 350.5000 -60.5000 Du        
   1840 ****       261.0000 350.5000 -60.2500 Du        
   1841 ****       261.0000 350.5000 -60.0000 Du        
   1842 ****       261.0000 350.5000 -59.7500 Du        
   1843 ****       261.0000 350.5000 -59.5000 Du        
   1844 ****       261.0000 350.5000 -59.2500 Du        
   1845 ****       261.0000 350.7500 -61.5000 Du        
   1846 ****       261.0000 350.7500 -61.2500 Du        
   1847 ****       261.0000 350.7500 -61.0000 Du        
   1848 ****       261.0000 350.7500 -60.7500 Du        
   1849 ****       261.0000 350.7500 -60.5000 Du        
   1850 ****       261.0000 350.7500 -60.2500 Du        
   1851 ****       261.0000 350.7500 -60.0000 Du        
   1852 ****       261.0000 350.7500 -59.7500 Du        
   1853 ****       261.0000 350.7500 -59.5000 Du        
   1854 ****       261.0000 350.7500 -59.2500 Du        
   1855 ****       261.0000 350.7500 -59.0000 Du        
   1856 ****       261.0000 350.7500 -58.7500 Du        
   1857 ****       261.0000 351.0000 -61.7500 Du        
   1858 ****       261.0000 351.0000 -61.5000 Du        
   1859 ****       261.0000 351.0000 -61.2500 Du        
   1860 ****       261.0000 351.0000 -61.0000 Du        
   1861 ****       261.0000 351.0000 -60.7500 Du        
   1862 ****       261.0000 351.0000 -60.5000 Du        
   1863 ****       261.0000 351.0000 -60.2500 Du        
   1864 ****       261.0000 351.0000 -60.0000 Du        
   1865 ****       261.0000 351.0000 -59.7500 Du        
   1866 ****       261.0000 351.0000 -59.5000 Du        
   1867 ****       261.0000 351.0000 -59.2500 Du        
   1868 ****       261.0000 351.0000 -59.0000 Du        
   1869 ****       261.0000 351.0000 -58.7500 Du        
   1870 ****       261.0000 351.0000 -58.5000 Du        
   1871 ****       261.0000 351.2500 -61.7500 Du        
   1872 ****       261.0000 351.2500 -61.5000 Du        
   1873 ****       261.0000 351.2500 -61.2500 Du        
   1874 ****       261.0000 351.2500 -61.0000 Du        
   1875 ****       261.0000 351.2500 -60.7500 Du        
   1876 ****       261.0000 351.2500 -60.5000 Du        
   1877 ****       261.0000 351.2500 -60.2500 Du        
   1878 ****       261.0000 351.2500 -60.0000 Du        
   1879 ****       261.0000 351.2500 -59.7500 Du        
   1880 ****       261.0000 351.2500 -59.5000 Du        
   1881 ****       261.0000 351.2500 -59.2500 Du        
   1882 ****       261.0000 351.2500 -59.0000 Du        
   1883 ****       261.0000 351.2500 -58.7500 Du        
   1884 ****       261.0000 351.2500 -58.5000 Du        
   1885 ****       261.0000 351.5000 -61.2500 Du        
   1886 ****       261.0000 351.5000 -61.0000 Du        
   1887 ****       261.0000 351.5000 -60.7500 Du        
   1888 ****       261.0000 351.5000 -60.5000 Du        
   1889 ****       261.0000 351.5000 -60.2500 Du        
   1890 ****       261.0000 351.5000 -60.0000 Du        
   1891 ****       261.0000 351.5000 -59.7500 Du        
   1892 ****       261.0000 351.5000 -59.5000 Du        
   1893 ****       261.0000 351.5000 -59.2500 Du        
   1894 ****       261.0000 351.5000 -59.0000 Du        
   1895 ****       261.0000 351.5000 -58.7500 Du        
   1896 ****       261.0000 351.7500 -60.5000 Du        
   1897 ****       261.0000 351.7500 -60.2500 Du        
   1898 ****       261.0000 351.7500 -60.0000 Du        
   1899 ****       261.0000 351.7500 -59.7500 Du        
   1900 ****       261.0000 351.7500 -59.5000 Du        
   1901 ****       261.0000 351.7500 -59.2500 Du        
   1902 ****       261.0000 351.7500 -59.0000 Du        
   1903 ****       261.0000 352.0000 -60.0000 Du        
   1904 ****       261.0000 352.0000 -59.7500 Du        
   1905 ****       261.0000 352.0000 -59.5000 Du        
   1906 ****       261.0000 352.0000 -59.2500 Du        
   1907 ****       261.2500 343.0000 -57.2500 Du        
   1908 ****       261.2500 343.0000 -57.0000 Du        
   1909 ****       261.2500 343.0000 -56.7500 Du        
   1910 ****       261.2500 343.2500 -57.2500 Du        
   1911 ****       261.2500 343.2500 -57.0000 Du        
   1912 ****       261.2500 343.2500 -56.7500 Du        
   1913 ****       261.2500 343.2500 -56.5000 Du        
   1914 ****       261.2500 343.5000 -57.2500 Du        
   1915 ****       261.2500 343.5000 -57.0000 Du        
   1916 ****       261.2500 343.5000 -56.7500 Du        
   1917 ****       261.2500 343.5000 -56.5000 Du        
   1918 ****       261.2500 343.5000 -56.2500 Du        
   1919 ****       261.2500 343.7500 -57.2500 Du        
   1920 ****       261.2500 343.7500 -57.0000 Du        
   1921 ****       261.2500 343.7500 -56.7500 Du        
   1922 ****       261.2500 343.7500 -56.5000 Du        
   1923 ****       261.2500 344.0000 -57.0000 Du        
   1924 ****       261.2500 344.0000 -56.7500 Du        
   1925 ****       261.2500 350.2500 -59.7500 Du        
   1926 ****       261.2500 350.5000 -61.5000 Du        
   1927 ****       261.2500 350.5000 -61.2500 Du        
   1928 ****       261.2500 350.5000 -61.0000 Du        
   1929 ****       261.2500 350.5000 -60.7500 Du        
   1930 ****       261.2500 350.5000 -60.5000 Du        
   1931 ****       261.2500 350.5000 -60.2500 Du        
   1932 ****       261.2500 350.5000 -60.0000 Du        
   1933 ****       261.2500 350.5000 -59.7500 Du        
   1934 ****       261.2500 350.5000 -59.5000 Du        
   1935 ****       261.2500 350.5000 -59.2500 Du        
   1936 ****       261.2500 350.5000 -59.0000 Du        
   1937 ****       261.2500 350.7500 -61.7500 Du        
   1938 ****       261.2500 350.7500 -61.5000 Du        
   1939 ****       261.2500 350.7500 -61.2500 Du        
   1940 ****       261.2500 350.7500 -61.0000 Du        
   1941 ****       261.2500 350.7500 -60.7500 Du        
   1942 ****       261.2500 350.7500 -60.5000 Du        
   1943 ****       261.2500 350.7500 -60.2500 Du        
   1944 ****       261.2500 350.7500 -60.0000 Du        
   1945 ****       261.2500 350.7500 -59.7500 Du        
   1946 ****       261.2500 350.7500 -59.5000 Du        
   1947 ****       261.2500 350.7500 -59.2500 Du        
   1948 ****       261.2500 350.7500 -59.0000 Du        
   1949 ****       261.2500 350.7500 -58.7500 Du        
   1950 ****       261.2500 351.0000 -61.7500 Du        
   1951 ****       261.2500 351.0000 -61.5000 Du        
   1952 ****       261.2500 351.0000 -61.2500 Du        
   1953 ****       261.2500 351.0000 -61.0000 Du        
   1954 ****       261.2500 351.0000 -60.7500 Du        
   1955 ****       261.2500 351.0000 -60.5000 Du        
   1956 ****       261.2500 351.0000 -60.2500 Du        
   1957 ****       261.2500 351.0000 -60.0000 Du        
   1958 ****       261.2500 351.0000 -59.7500 Du        
   1959 ****       261.2500 351.0000 -59.5000 Du        
   1960 ****       261.2500 351.0000 -59.2500 Du        
   1961 ****       261.2500 351.0000 -59.0000 Du        
   1962 ****       261.2500 351.0000 -58.7500 Du        
   1963 ****       261.2500 351.0000 -58.5000 Du        
   1964 ****       261.2500 351.2500 -61.0000 Du        
   1965 ****       261.2500 351.2500 -60.7500 Du        
   1966 ****       261.2500 351.2500 -60.5000 Du        
   1967 ****       261.2500 351.2500 -60.2500 Du        
   1968 ****       261.2500 351.2500 -60.0000 Du        
   1969 ****       261.2500 351.2500 -59.7500 Du        
   1970 ****       261.2500 351.2500 -59.5000 Du        
   1971 ****       261.2500 351.2500 -59.2500 Du        
   1972 ****       261.2500 351.2500 -59.0000 Du        
   1973 ****       261.2500 351.2500 -58.7500 Du        
   1974 ****       261.2500 351.2500 -58.5000 Du        
   1975 ****       261.2500 351.5000 -60.5000 Du        
   1976 ****       261.2500 351.5000 -60.2500 Du        
   1977 ****       261.2500 351.5000 -60.0000 Du        
   1978 ****       261.2500 351.5000 -59.7500 Du        
   1979 ****       261.2500 351.5000 -59.5000 Du        
   1980 ****       261.2500 351.5000 -59.2500 Du        
   1981 ****       261.2500 351.5000 -59.0000 Du        
   1982 ****       261.2500 351.5000 -58.7500 Du        
   1983 ****       261.2500 351.7500 -60.0000 Du        
   1984 ****       261.2500 351.7500 -59.7500 Du        
   1985 ****       261.2500 351.7500 -59.5000 Du        
   1986 ****       261.2500 351.7500 -59.2500 Du        
   1987 ****       261.2500 351.7500 -59.0000 Du        
   1988 ****       261.5000 343.0000 -57.2500 Du        
   1989 ****       261.5000 343.0000 -57.0000 Du        
   1990 ****       261.5000 343.0000 -56.7500 Du        
   1991 ****       261.5000 343.2500 -57.2500 Du        
   1992 ****       261.5000 343.2500 -57.0000 Du        
   1993 ****       261.5000 343.2500 -56.7500 Du        
   1994 ****       261.5000 343.5000 -57.0000 Du        
   1995 ****       261.5000 343.5000 -56.7500 Du        
   1996 ****       261.5000 343.7500 -57.0000 Du        
   1997 ****       261.5000 343.7500 -56.7500 Du        
   1998 ****       261.5000 344.0000 -56.7500 Du        
   1999 ****       261.5000 350.5000 -61.2500 Du        
   2000 ****       261.5000 350.5000 -61.0000 Du        
   2001 ****       261.5000 350.5000 -60.7500 Du        
   2002 ****       261.5000 350.5000 -60.5000 Du        
   2003 ****       261.5000 350.5000 -60.2500 Du        
   2004 ****       261.5000 350.5000 -60.0000 Du        
   2005 ****       261.5000 350.5000 -59.7500 Du        
   2006 ****       261.5000 350.5000 -59.5000 Du        
   2007 ****       261.5000 350.5000 -59.2500 Du        
   2008 ****       261.5000 350.5000 -59.0000 Du        
   2009 ****       261.5000 350.7500 -61.2500 Du        
   2010 ****       261.5000 350.7500 -61.0000 Du        
   2011 ****       261.5000 350.7500 -60.7500 Du        
   2012 ****       261.5000 350.7500 -60.5000 Du        
   2013 ****       261.5000 350.7500 -60.2500 Du        
   2014 ****       261.5000 350.7500 -60.0000 Du        
   2015 ****       261.5000 350.7500 -59.7500 Du        
   2016 ****       261.5000 350.7500 -59.5000 Du        
   2017 ****       261.5000 350.7500 -59.2500 Du        
   2018 ****       261.5000 350.7500 -59.0000 Du        
   2019 ****       261.5000 350.7500 -58.7500 Du        
   2020 ****       261.5000 350.7500 -58.5000 Du        
   2021 ****       261.5000 351.0000 -60.7500 Du        
   2022 ****       261.5000 351.0000 -60.5000 Du        
   2023 ****       261.5000 351.0000 -60.2500 Du        
   2024 ****       261.5000 351.0000 -60.0000 Du        
   2025 ****       261.5000 351.0000 -59.7500 Du        
   2026 ****       261.5000 351.0000 -59.5000 Du        
   2027 ****       261.5000 351.0000 -59.2500 Du        
   2028 ****       261.5000 351.0000 -59.0000 Du        
   2029 ****       261.5000 351.0000 -58.7500 Du        
   2030 ****       261.5000 351.0000 -58.5000 Du        
   2031 ****       261.5000 351.0000 -58.2500 Du        
   2032 ****       261.5000 351.2500 -60.2500 Du        
   2033 ****       261.5000 351.2500 -60.0000 Du        
   2034 ****       261.5000 351.2500 -59.7500 Du        
   2035 ****       261.5000 351.2500 -59.5000 Du        
   2036 ****       261.5000 351.2500 -59.2500 Du        
   2037 ****       261.5000 351.2500 -59.0000 Du        
   2038 ****       261.5000 351.2500 -58.7500 Du        
   2039 ****       261.5000 351.2500 -58.5000 Du        
   2040 ****       261.5000 351.2500 -58.2500 Du        
   2041 ****       261.5000 351.5000 -59.7500 Du        
   2042 ****       261.5000 351.5000 -59.5000 Du        
   2043 ****       261.5000 351.5000 -59.2500 Du        
   2044 ****       261.5000 351.5000 -59.0000 Du        
   2045 ****       261.5000 351.5000 -58.7500 Du        
   2046 ****       261.5000 351.7500 -59.2500 Du        
   2047 ****       261.5000 351.7500 -59.0000 Du        
   2048 ****       261.7500 342.7500 -57.2500 Du        
   2049 ****       261.7500 343.0000 -57.2500 Du        
   2050 ****       261.7500 343.2500 -57.0000 Du        
   2051 ****       261.7500 350.2500 -59.2500 Du        
   2052 ****       261.7500 350.5000 -61.2500 Du        
   2053 ****       261.7500 350.5000 -61.0000 Du        
   2054 ****       261.7500 350.5000 -60.7500 Du        
   2055 ****       261.7500 350.5000 -60.5000 Du        
   2056 ****       261.7500 350.5000 -60.2500 Du        
   2057 ****       261.7500 350.5000 -60.0000 Du        
   2058 ****       261.7500 350.5000 -59.7500 Du        
   2059 ****       261.7500 350.5000 -59.5000 Du        
   2060 ****       261.7500 350.5000 -59.2500 Du        
   2061 ****       261.7500 350.5000 -59.0000 Du        
   2062 ****       261.7500 350.5000 -58.7500 Du        
   2063 ****       261.7500 350.7500 -60.7500 Du        
   2064 ****       261.7500 350.7500 -60.5000 Du        
   2065 ****       261.7500 350.7500 -60.2500 Du        
   2066 ****       261.7500 350.7500 -60.0000 Du        
   2067 ****       261.7500 350.7500 -59.7500 Du        
   2068 ****       261.7500 350.7500 -59.5000 Du        
   2069 ****       261.7500 350.7500 -59.2500 Du        
   2070 ****       261.7500 350.7500 -59.0000 Du        
   2071 ****       261.7500 350.7500 -58.7500 Du        
   2072 ****       261.7500 350.7500 -58.5000 Du        
   2073 ****       261.7500 350.7500 -58.2500 Du        
   2074 ****       261.7500 351.0000 -60.2500 Du        
   2075 ****       261.7500 351.0000 -60.0000 Du        
   2076 ****       261.7500 351.0000 -59.7500 Du        
   2077 ****       261.7500 351.0000 -59.5000 Du        
   2078 ****       261.7500 351.0000 -59.2500 Du        
   2079 ****       261.7500 351.0000 -59.0000 Du        
   2080 ****       261.7500 351.0000 -58.7500 Du        
   2081 ****       261.7500 351.0000 -58.5000 Du        
   2082 ****       261.7500 351.0000 -58.2500 Du        
   2083 ****       261.7500 351.0000 -58.0000 Du        
   2084 ****       261.7500 351.2500 -60.0000 Du        
   2085 ****       261.7500 351.2500 -59.7500 Du        
   2086 ****       261.7500 351.2500 -59.5000 Du        
   2087 ****       261.7500 351.2500 -59.2500 Du        
   2088 ****       261.7500 351.2500 -59.0000 Du        
   2089 ****       261.7500 351.2500 -58.7500 Du        
   2090 ****       261.7500 351.2500 -58.5000 Du        
   2091 ****       261.7500 351.2500 -58.2500 Du        
   2092 ****       261.7500 351.2500 -58.0000 Du        
   2093 ****       261.7500 351.5000 -59.5000 Du        
   2094 ****       261.7500 351.5000 -59.2500 Du        
   2095 ****       261.7500 351.5000 -59.0000 Du        
   2096 ****       261.7500 351.5000 -58.7500 Du        
   2097 ****       261.7500 351.5000 -58.5000 Du        
   2098 ****       261.7500 351.7500 -59.2500 Du        
   2099 ****       261.7500 351.7500 -59.0000 Du        
   2100 ****       261.7500 351.7500 -58.7500 Du        
   2101 ****       262.0000 350.2500 -59.5000 Du        
   2102 ****       262.0000 350.2500 -59.2500 Du        
   2103 ****       262.0000 350.2500 -59.0000 Du        
   2104 ****       262.0000 350.2500 -58.7500 Du        
   2105 ****       262.0000 350.5000 -60.5000 Du        
   2106 ****       262.0000 350.5000 -60.2500 Du        
   2107 ****       262.0000 350.5000 -60.0000 Du        
   2108 ****       262.0000 350.5000 -59.7500 Du        
   2109 ****       262.0000 350.5000 -59.5000 Du        
   2110 ****       262.0000 350.5000 -59.2500 Du        
   2111 ****       262.0000 350.5000 -59.0000 Du        
   2112 ****       262.0000 350.5000 -58.7500 Du        
   2113 ****       262.0000 350.5000 -58.5000 Du        
   2114 ****       262.0000 350.7500 -60.5000 Du        
   2115 ****       262.0000 350.7500 -60.2500 Du        
   2116 ****       262.0000 350.7500 -60.0000 Du        
   2117 ****       262.0000 350.7500 -59.7500 Du        
   2118 ****       262.0000 350.7500 -59.5000 Du        
   2119 ****       262.0000 350.7500 -59.2500 Du        
   2120 ****       262.0000 350.7500 -59.0000 Du        
   2121 ****       262.0000 350.7500 -58.7500 Du        
   2122 ****       262.0000 350.7500 -58.5000 Du        
   2123 ****       262.0000 350.7500 -58.2500 Du        
   2124 ****       262.0000 350.7500 -58.0000 Du        
   2125 ****       262.0000 350.7500 -57.7500 Du        
   2126 ****       262.0000 351.0000 -60.0000 Du        
   2127 ****       262.0000 351.0000 -59.7500 Du        
   2128 ****       262.0000 351.0000 -59.5000 Du        
   2129 ****       262.0000 351.0000 -59.2500 Du        
   2130 ****       262.0000 351.0000 -59.0000 Du        
   2131 ****       262.0000 351.0000 -58.7500 Du        
   2132 ****       262.0000 351.0000 -58.5000 Du        
   2133 ****       262.0000 351.0000 -58.2500 Du        
   2134 ****       262.0000 351.0000 -58.0000 Du        
   2135 ****       262.0000 351.0000 -57.7500 Du        
   2136 ****       262.0000 351.0000 -57.5000 Du        
   2137 ****       262.0000 351.2500 -59.7500 Du        
   2138 ****       262.0000 351.2500 -59.5000 Du        
   2139 ****       262.0000 351.2500 -59.2500 Du        
   2140 ****       262.0000 351.2500 -59.0000 Du        
   2141 ****       262.0000 351.2500 -58.7500 Du        
   2142 ****       262.0000 351.2500 -58.5000 Du        
   2143 ****       262.0000 351.2500 -58.2500 Du        
   2144 ****       262.0000 351.2500 -58.0000 Du        
   2145 ****       262.0000 351.2500 -57.7500 Du        
   2146 ****       262.0000 351.2500 -57.5000 Du        
   2147 ****       262.0000 351.5000 -59.2500 Du        
   2148 ****       262.0000 351.5000 -59.0000 Du        
   2149 ****       262.0000 351.5000 -58.7500 Du        
   2150 ****       262.0000 351.5000 -58.5000 Du        
   2151 ****       262.0000 351.5000 -58.2500 Du        
   2152 ****       262.0000 351.5000 -58.0000 Du        
   2153 ****       262.0000 351.7500 -59.0000 Du        
   2154 ****       262.0000 351.7500 -58.7500 Du        
   2155 ****       262.0000 351.7500 -58.5000 Du        
   2156 ****       262.2500 350.2500 -59.2500 Du        
   2157 ****       262.2500 350.2500 -59.0000 Du        
   2158 ****       262.2500 350.2500 -58.7500 Du        
   2159 ****       262.2500 350.2500 -58.5000 Du        
   2160 ****       262.2500 350.5000 -60.2500 Du        
   2161 ****       262.2500 350.5000 -60.0000 Du        
   2162 ****       262.2500 350.5000 -59.7500 Du        
   2163 ****       262.2500 350.5000 -59.5000 Du        
   2164 ****       262.2500 350.5000 -59.2500 Du        
   2165 ****       262.2500 350.5000 -59.0000 Du        
   2166 ****       262.2500 350.5000 -58.7500 Du        
   2167 ****       262.2500 350.5000 -58.5000 Du        
   2168 ****       262.2500 350.5000 -58.2500 Du        
   2169 ****       262.2500 350.5000 -58.0000 Du        
   2170 ****       262.2500 350.7500 -60.0000 Du        
   2171 ****       262.2500 350.7500 -59.7500 Du        
   2172 ****       262.2500 350.7500 -59.5000 Du        
   2173 ****       262.2500 350.7500 -59.2500 Du        
   2174 ****       262.2500 350.7500 -59.0000 Du        
   2175 ****       262.2500 350.7500 -58.7500 Du        
   2176 ****       262.2500 350.7500 -58.5000 Du        
   2177 ****       262.2500 350.7500 -58.2500 Du        
   2178 ****       262.2500 350.7500 -58.0000 Du        
   2179 ****       262.2500 350.7500 -57.7500 Du        
   2180 ****       262.2500 350.7500 -57.5000 Du        
   2181 ****       262.2500 351.0000 -59.7500 Du        
   2182 ****       262.2500 351.0000 -59.5000 Du        
   2183 ****       262.2500 351.0000 -59.2500 Du        
   2184 ****       262.2500 351.0000 -59.0000 Du        
   2185 ****       262.2500 351.0000 -58.7500 Du        
   2186 ****       262.2500 351.0000 -58.5000 Du        
   2187 ****       262.2500 351.0000 -58.2500 Du        
   2188 ****       262.2500 351.0000 -58.0000 Du        
   2189 ****       262.2500 351.0000 -57.7500 Du        
   2190 ****       262.2500 351.0000 -57.5000 Du        
   2191 ****       262.2500 351.0000 -57.2500 Du        
   2192 ****       262.2500 351.2500 -59.2500 Du        
   2193 ****       262.2500 351.2500 -59.0000 Du        
   2194 ****       262.2500 351.2500 -58.7500 Du        
   2195 ****       262.2500 351.2500 -58.5000 Du        
   2196 ****       262.2500 351.2500 -58.2500 Du        
   2197 ****       262.2500 351.2500 -58.0000 Du        
   2198 ****       262.2500 351.2500 -57.7500 Du        
   2199 ****       262.2500 351.2500 -57.5000 Du        
   2200 ****       262.2500 351.2500 -57.2500 Du        
   2201 ****       262.2500 351.5000 -59.2500 Du        
   2202 ****       262.2500 351.5000 -59.0000 Du        
   2203 ****       262.2500 351.5000 -58.7500 Du        
   2204 ****       262.2500 351.5000 -58.5000 Du        
   2205 ****       262.2500 351.5000 -58.2500 Du        
   2206 ****       262.2500 351.5000 -58.0000 Du        
   2207 ****       262.2500 351.5000 -57.7500 Du        
   2208 ****       262.2500 351.5000 -57.5000 Du        
   2209 ****       262.2500 351.5000 -57.2500 Du        
   2210 ****       262.2500 351.7500 -59.0000 Du        
   2211 ****       262.2500 351.7500 -58.7500 Du        
   2212 ****       262.2500 351.7500 -58.5000 Du        
   2213 ****       262.2500 351.7500 -58.2500 Du        
   2214 ****       262.2500 351.7500 -58.0000 Du        
   2215 ****       262.2500 351.7500 -57.7500 Du        
   2216 ****       262.2500 352.0000 -58.7500 Du        
   2217 ****       262.5000 350.0000 -62.0000 Du        
   2218 ****       262.5000 350.2500 -59.7500 Du        
   2219 ****       262.5000 350.2500 -59.2500 Du        
   2220 ****       262.5000 350.2500 -59.0000 Du        
   2221 ****       262.5000 350.2500 -58.7500 Du        
   2222 ****       262.5000 350.2500 -58.5000 Du        
   2223 ****       262.5000 350.2500 -58.2500 Du        
   2224 ****       262.5000 350.2500 -58.0000 Du        
   2225 ****       262.5000 350.5000 -60.0000 Du        
   2226 ****       262.5000 350.5000 -59.7500 Du        
   2227 ****       262.5000 350.5000 -59.5000 Du        
   2228 ****       262.5000 350.5000 -59.2500 Du        
   2229 ****       262.5000 350.5000 -59.0000 Du        
   2230 ****       262.5000 350.5000 -58.7500 Du        
   2231 ****       262.5000 350.5000 -58.5000 Du        
   2232 ****       262.5000 350.5000 -58.2500 Du        
   2233 ****       262.5000 350.5000 -58.0000 Du        
   2234 ****       262.5000 350.5000 -57.7500 Du        
   2235 ****       262.5000 350.5000 -57.5000 Du        
   2236 ****       262.5000 350.7500 -59.7500 Du        
   2237 ****       262.5000 350.7500 -59.5000 Du        
   2238 ****       262.5000 350.7500 -59.2500 Du        
   2239 ****       262.5000 350.7500 -59.0000 Du        
   2240 ****       262.5000 350.7500 -58.7500 Du        
   2241 ****       262.5000 350.7500 -58.5000 Du        
   2242 ****       262.5000 350.7500 -58.2500 Du        
   2243 ****       262.5000 350.7500 -58.0000 Du        
   2244 ****       262.5000 350.7500 -57.7500 Du        
   2245 ****       262.5000 350.7500 -57.5000 Du        
   2246 ****       262.5000 350.7500 -57.2500 Du        
   2247 ****       262.5000 351.0000 -59.5000 Du        
   2248 ****       262.5000 351.0000 -59.2500 Du        
   2249 ****       262.5000 351.0000 -59.0000 Du        
   2250 ****       262.5000 351.0000 -58.7500 Du        
   2251 ****       262.5000 351.0000 -58.5000 Du        
   2252 ****       262.5000 351.0000 -58.2500 Du        
   2253 ****       262.5000 351.0000 -58.0000 Du        
   2254 ****       262.5000 351.0000 -57.7500 Du        
   2255 ****       262.5000 351.0000 -57.5000 Du        
   2256 ****       262.5000 351.0000 -57.2500 Du        
   2257 ****       262.5000 351.2500 -59.2500 Du        
   2258 ****       262.5000 351.2500 -59.0000 Du        
   2259 ****       262.5000 351.2500 -58.7500 Du        
   2260 ****       262.5000 351.2500 -58.5000 Du        
   2261 ****       262.5000 351.2500 -58.2500 Du        
   2262 ****       262.5000 351.2500 -58.0000 Du        
   2263 ****       262.5000 351.2500 -57.7500 Du        
   2264 ****       262.5000 351.2500 -57.5000 Du        
   2265 ****       262.5000 351.2500 -57.2500 Du        
   2266 ****       262.5000 351.2500 -57.0000 Du        
   2267 ****       262.5000 351.5000 -59.0000 Du        
   2268 ****       262.5000 351.5000 -58.7500 Du        
   2269 ****       262.5000 351.5000 -58.5000 Du        
   2270 ****       262.5000 351.5000 -58.2500 Du        
   2271 ****       262.5000 351.5000 -58.0000 Du        
   2272 ****       262.5000 351.5000 -57.7500 Du        
   2273 ****       262.5000 351.5000 -57.5000 Du        
   2274 ****       262.5000 351.5000 -57.2500 Du        
   2275 ****       262.5000 351.5000 -57.0000 Du        
   2276 ****       262.5000 351.7500 -58.7500 Du        
   2277 ****       262.5000 351.7500 -58.5000 Du        
   2278 ****       262.5000 351.7500 -58.2500 Du        
   2279 ****       262.5000 351.7500 -58.0000 Du        
   2280 ****       262.5000 351.7500 -57.7500 Du        
   2281 ****       262.5000 351.7500 -57.5000 Du        
   2282 ****       262.5000 351.7500 -57.2500 Du        
   2283 ****       262.5000 351.7500 -57.0000 Du        
   2284 ****       262.5000 352.0000 -58.5000 Du        
   2285 ****       262.5000 352.0000 -58.2500 Du        
   2286 ****       262.5000 352.0000 -58.0000 Du        
   2287 ****       262.5000 352.0000 -57.7500 Du        
   2288 ****       262.5000 352.0000 -57.5000 Du        
   2289 ****       262.5000 352.2500 -58.2500 Du        
   2290 ****       262.7500 349.7500 -62.0000 Du        
   2291 ****       262.7500 350.0000 -62.2500 Du        
   2292 ****       262.7500 350.0000 -62.0000 Du        
   2293 ****       262.7500 350.0000 -61.7500 Du        
   2294 ****       262.7500 350.0000 -59.0000 Du        
   2295 ****       262.7500 350.0000 -58.7500 Du        
   2296 ****       262.7500 350.0000 -58.5000 Du        
   2297 ****       262.7500 350.0000 -58.2500 Du        
   2298 ****       262.7500 350.0000 -58.0000 Du        
   2299 ****       262.7500 350.0000 -57.7500 Du        
   2300 ****       262.7500 350.2500 -59.7500 Du        
   2301 ****       262.7500 350.2500 -59.5000 Du        
   2302 ****       262.7500 350.2500 -59.2500 Du        
   2303 ****       262.7500 350.2500 -59.0000 Du        
   2304 ****       262.7500 350.2500 -58.7500 Du        
   2305 ****       262.7500 350.2500 -58.5000 Du        
   2306 ****       262.7500 350.2500 -58.2500 Du        
   2307 ****       262.7500 350.2500 -58.0000 Du        
   2308 ****       262.7500 350.2500 -57.7500 Du        
   2309 ****       262.7500 350.2500 -57.5000 Du        
   2310 ****       262.7500 350.2500 -57.2500 Du        
   2311 ****       262.7500 350.2500 -57.0000 Du        
   2312 ****       262.7500 350.5000 -59.7500 Du        
   2313 ****       262.7500 350.5000 -59.5000 Du        
   2314 ****       262.7500 350.5000 -59.2500 Du        
   2315 ****       262.7500 350.5000 -59.0000 Du        
   2316 ****       262.7500 350.5000 -58.7500 Du        
   2317 ****       262.7500 350.5000 -58.5000 Du        
   2318 ****       262.7500 350.5000 -58.2500 Du        
   2319 ****       262.7500 350.5000 -58.0000 Du        
   2320 ****       262.7500 350.5000 -57.7500 Du        
   2321 ****       262.7500 350.5000 -57.5000 Du        
   2322 ****       262.7500 350.5000 -57.2500 Du        
   2323 ****       262.7500 350.5000 -57.0000 Du        
   2324 ****       262.7500 350.7500 -59.5000 Du        
   2325 ****       262.7500 350.7500 -59.2500 Du        
   2326 ****       262.7500 350.7500 -59.0000 Du        
   2327 ****       262.7500 350.7500 -58.7500 Du        
   2328 ****       262.7500 350.7500 -58.5000 Du        
   2329 ****       262.7500 350.7500 -58.2500 Du        
   2330 ****       262.7500 350.7500 -58.0000 Du        
   2331 ****       262.7500 350.7500 -57.7500 Du        
   2332 ****       262.7500 350.7500 -57.5000 Du        
   2333 ****       262.7500 350.7500 -57.2500 Du        
   2334 ****       262.7500 350.7500 -57.0000 Du        
   2335 ****       262.7500 351.0000 -59.2500 Du        
   2336 ****       262.7500 351.0000 -59.0000 Du        
   2337 ****       262.7500 351.0000 -58.7500 Du        
   2338 ****       262.7500 351.0000 -58.5000 Du        
   2339 ****       262.7500 351.0000 -58.2500 Du        
   2340 ****       262.7500 351.0000 -58.0000 Du        
   2341 ****       262.7500 351.0000 -57.7500 Du        
   2342 ****       262.7500 351.0000 -57.5000 Du        
   2343 ****       262.7500 351.0000 -57.2500 Du        
   2344 ****       262.7500 351.0000 -57.0000 Du        
   2345 ****       262.7500 351.2500 -59.0000 Du        
   2346 ****       262.7500 351.2500 -58.7500 Du        
   2347 ****       262.7500 351.2500 -58.5000 Du        
   2348 ****       262.7500 351.2500 -58.2500 Du        
   2349 ****       262.7500 351.2500 -58.0000 Du        
   2350 ****       262.7500 351.2500 -57.7500 Du        
   2351 ****       262.7500 351.2500 -57.5000 Du        
   2352 ****       262.7500 351.2500 -57.2500 Du        
   2353 ****       262.7500 351.2500 -57.0000 Du        
   2354 ****       262.7500 351.2500 -56.7500 Du        
   2355 ****       262.7500 351.5000 -58.7500 Du        
   2356 ****       262.7500 351.5000 -58.5000 Du        
   2357 ****       262.7500 351.5000 -58.2500 Du        
   2358 ****       262.7500 351.5000 -58.0000 Du        
   2359 ****       262.7500 351.5000 -57.7500 Du        
   2360 ****       262.7500 351.5000 -57.5000 Du        
   2361 ****       262.7500 351.5000 -57.2500 Du        
   2362 ****       262.7500 351.5000 -57.0000 Du        
   2363 ****       262.7500 351.5000 -56.7500 Du        
   2364 ****       262.7500 351.7500 -58.7500 Du        
   2365 ****       262.7500 351.7500 -58.5000 Du        
   2366 ****       262.7500 351.7500 -58.2500 Du        
   2367 ****       262.7500 351.7500 -58.0000 Du        
   2368 ****       262.7500 351.7500 -57.7500 Du        
   2369 ****       262.7500 351.7500 -57.5000 Du        
   2370 ****       262.7500 351.7500 -57.2500 Du        
   2371 ****       262.7500 351.7500 -57.0000 Du        
   2372 ****       262.7500 351.7500 -56.7500 Du        
   2373 ****       262.7500 352.0000 -58.5000 Du        
   2374 ****       262.7500 352.0000 -58.2500 Du        
   2375 ****       262.7500 352.0000 -58.0000 Du        
   2376 ****       262.7500 352.0000 -57.7500 Du        
   2377 ****       262.7500 352.0000 -57.5000 Du        
   2378 ****       262.7500 352.0000 -57.2500 Du        
   2379 ****       262.7500 352.0000 -57.0000 Du        
   2380 ****       262.7500 352.2500 -58.2500 Du        
   2381 ****       262.7500 352.2500 -58.0000 Du        
   2382 ****       262.7500 352.2500 -57.7500 Du        
   2383 ****       262.7500 352.2500 -57.5000 Du        
   2384 ****       263.0000 349.5000 -62.0000 Du        
   2385 ****       263.0000 349.7500 -62.2500 Du        
   2386 ****       263.0000 349.7500 -62.0000 Du        
   2387 ****       263.0000 349.7500 -61.7500 Du        
   2388 ****       263.0000 349.7500 -58.2500 Du        
   2389 ****       263.0000 349.7500 -58.0000 Du        
   2390 ****       263.0000 349.7500 -57.7500 Du        
   2391 ****       263.0000 349.7500 -57.5000 Du        
   2392 ****       263.0000 349.7500 -57.2500 Du        
   2393 ****       263.0000 349.7500 -57.0000 Du        
   2394 ****       263.0000 349.7500 -56.7500 Du        
   2395 ****       263.0000 350.0000 -62.2500 Du        
   2396 ****       263.0000 350.0000 -62.0000 Du        
   2397 ****       263.0000 350.0000 -61.7500 Du        
   2398 ****       263.0000 350.0000 -61.5000 Du        
   2399 ****       263.0000 350.0000 -61.2500 Du        
   2400 ****       263.0000 350.0000 -59.0000 Du        
   2401 ****       263.0000 350.0000 -58.7500 Du        
   2402 ****       263.0000 350.0000 -58.5000 Du        
   2403 ****       263.0000 350.0000 -58.2500 Du        
   2404 ****       263.0000 350.0000 -58.0000 Du        
   2405 ****       263.0000 350.0000 -57.7500 Du        
   2406 ****       263.0000 350.0000 -57.5000 Du        
   2407 ****       263.0000 350.0000 -57.2500 Du        
   2408 ****       263.0000 350.0000 -57.0000 Du        
   2409 ****       263.0000 350.0000 -56.7500 Du        
   2410 ****       263.0000 350.2500 -60.0000 Du        
   2411 ****       263.0000 350.2500 -59.7500 Du        
   2412 ****       263.0000 350.2500 -59.5000 Du        
   2413 ****       263.0000 350.2500 -59.2500 Du        
   2414 ****       263.0000 350.2500 -59.0000 Du        
   2415 ****       263.0000 350.2500 -58.7500 Du        
   2416 ****       263.0000 350.2500 -58.5000 Du        
   2417 ****       263.0000 350.2500 -58.2500 Du        
   2418 ****       263.0000 350.2500 -58.0000 Du        
   2419 ****       263.0000 350.2500 -57.7500 Du        
   2420 ****       263.0000 350.2500 -57.5000 Du        
   2421 ****       263.0000 350.2500 -57.2500 Du        
   2422 ****       263.0000 350.2500 -57.0000 Du        
   2423 ****       263.0000 350.2500 -56.7500 Du        
   2424 ****       263.0000 350.5000 -59.7500 Du        
   2425 ****       263.0000 350.5000 -59.5000 Du        
   2426 ****       263.0000 350.5000 -59.2500 Du        
   2427 ****       263.0000 350.5000 -59.0000 Du        
   2428 ****       263.0000 350.5000 -58.7500 Du        
   2429 ****       263.0000 350.5000 -58.5000 Du        
   2430 ****       263.0000 350.5000 -58.2500 Du        
   2431 ****       263.0000 350.5000 -58.0000 Du        
   2432 ****       263.0000 350.5000 -57.7500 Du        
   2433 ****       263.0000 350.5000 -57.5000 Du        
   2434 ****       263.0000 350.5000 -57.2500 Du        
   2435 ****       263.0000 350.5000 -57.0000 Du        
   2436 ****       263.0000 350.5000 -56.7500 Du        
   2437 ****       263.0000 350.7500 -59.2500 Du        
   2438 ****       263.0000 350.7500 -59.0000 Du        
   2439 ****       263.0000 350.7500 -58.7500 Du        
   2440 ****       263.0000 350.7500 -58.5000 Du        
   2441 ****       263.0000 350.7500 -58.2500 Du        
   2442 ****       263.0000 350.7500 -58.0000 Du        
   2443 ****       263.0000 350.7500 -57.7500 Du        
   2444 ****       263.0000 350.7500 -57.5000 Du        
   2445 ****       263.0000 350.7500 -57.2500 Du        
   2446 ****       263.0000 350.7500 -57.0000 Du        
   2447 ****       263.0000 350.7500 -56.7500 Du        
   2448 ****       263.0000 351.0000 -59.2500 Du        
   2449 ****       263.0000 351.0000 -59.0000 Du        
   2450 ****       263.0000 351.0000 -58.7500 Du        
   2451 ****       263.0000 351.0000 -58.5000 Du        
   2452 ****       263.0000 351.0000 -58.2500 Du        
   2453 ****       263.0000 351.0000 -58.0000 Du        
   2454 ****       263.0000 351.0000 -57.7500 Du        
   2455 ****       263.0000 351.0000 -57.5000 Du        
   2456 ****       263.0000 351.0000 -57.2500 Du        
   2457 ****       263.0000 351.0000 -57.0000 Du        
   2458 ****       263.0000 351.0000 -56.7500 Du        
   2459 ****       263.0000 351.2500 -59.0000 Du        
   2460 ****       263.0000 351.2500 -58.7500 Du        
   2461 ****       263.0000 351.2500 -58.5000 Du        
   2462 ****       263.0000 351.2500 -58.2500 Du        
   2463 ****       263.0000 351.2500 -58.0000 Du        
   2464 ****       263.0000 351.2500 -57.7500 Du        
   2465 ****       263.0000 351.2500 -57.5000 Du        
   2466 ****       263.0000 351.2500 -57.2500 Du        
   2467 ****       263.0000 351.2500 -57.0000 Du        
   2468 ****       263.0000 351.2500 -56.7500 Du        
   2469 ****       263.0000 351.5000 -58.7500 Du        
   2470 ****       263.0000 351.5000 -58.5000 Du        
   2471 ****       263.0000 351.5000 -58.2500 Du        
   2472 ****       263.0000 351.5000 -58.0000 Du        
   2473 ****       263.0000 351.5000 -57.7500 Du        
   2474 ****       263.0000 351.5000 -57.5000 Du        
   2475 ****       263.0000 351.5000 -57.2500 Du        
   2476 ****       263.0000 351.5000 -57.0000 Du        
   2477 ****       263.0000 351.5000 -56.7500 Du        
   2478 ****       263.0000 351.7500 -58.5000 Du        
   2479 ****       263.0000 351.7500 -58.2500 Du        
   2480 ****       263.0000 351.7500 -58.0000 Du        
   2481 ****       263.0000 351.7500 -57.7500 Du        
   2482 ****       263.0000 351.7500 -57.5000 Du        
   2483 ****       263.0000 351.7500 -57.2500 Du        
   2484 ****       263.0000 351.7500 -57.0000 Du        
   2485 ****       263.0000 351.7500 -56.7500 Du        
   2486 ****       263.0000 352.0000 -58.5000 Du        
   2487 ****       263.0000 352.0000 -58.2500 Du        
   2488 ****       263.0000 352.0000 -58.0000 Du        
   2489 ****       263.0000 352.0000 -57.7500 Du        
   2490 ****       263.0000 352.0000 -57.5000 Du        
   2491 ****       263.0000 352.0000 -57.2500 Du        
   2492 ****       263.0000 352.0000 -57.0000 Du        
   2493 ****       263.0000 352.2500 -58.2500 Du        
   2494 ****       263.0000 352.2500 -58.0000 Du        
   2495 ****       263.0000 352.2500 -57.7500 Du        
   2496 ****       263.2500 346.0000 -56.2500 Du        
   2497 ****       263.2500 346.0000 -56.0000 Du        
   2498 ****       263.2500 346.2500 -56.5000 Du        
   2499 ****       263.2500 346.2500 -56.2500 Du        
   2500 ****       263.2500 346.2500 -56.0000 Du        
   2501 ****       263.2500 346.5000 -56.2500 Du        
   2502 ****       263.2500 346.5000 -56.0000 Du        
   2503 ****       263.2500 346.7500 -56.2500 Du        
   2504 ****       263.2500 348.7500 -56.7500 Du        
   2505 ****       263.2500 348.7500 -56.5000 Du        
   2506 ****       263.2500 349.0000 -57.2500 Du        
   2507 ****       263.2500 349.0000 -57.0000 Du        
   2508 ****       263.2500 349.0000 -56.7500 Du        
   2509 ****       263.2500 349.0000 -56.5000 Du        
   2510 ****       263.2500 349.0000 -56.2500 Du        
   2511 ****       263.2500 349.2500 -57.5000 Du        
   2512 ****       263.2500 349.2500 -57.2500 Du        
   2513 ****       263.2500 349.2500 -57.0000 Du        
   2514 ****       263.2500 349.2500 -56.7500 Du        
   2515 ****       263.2500 349.2500 -56.5000 Du        
   2516 ****       263.2500 349.2500 -56.2500 Du        
   2517 ****       263.2500 349.5000 -62.2500 Du        
   2518 ****       263.2500 349.5000 -62.0000 Du        
   2519 ****       263.2500 349.5000 -61.7500 Du        
   2520 ****       263.2500 349.5000 -58.0000 Du        
   2521 ****       263.2500 349.5000 -57.7500 Du        
   2522 ****       263.2500 349.5000 -57.5000 Du        
   2523 ****       263.2500 349.5000 -57.2500 Du        
   2524 ****       263.2500 349.5000 -57.0000 Du        
   2525 ****       263.2500 349.5000 -56.7500 Du        
   2526 ****       263.2500 349.5000 -56.5000 Du        
   2527 ****       263.2500 349.5000 -56.2500 Du        
   2528 ****       263.2500 349.7500 -62.2500 Du        
   2529 ****       263.2500 349.7500 -62.0000 Du        
   2530 ****       263.2500 349.7500 -61.7500 Du        
   2531 ****       263.2500 349.7500 -61.5000 Du        
   2532 ****       263.2500 349.7500 -58.5000 Du        
   2533 ****       263.2500 349.7500 -58.2500 Du        
   2534 ****       263.2500 349.7500 -58.0000 Du        
   2535 ****       263.2500 349.7500 -57.7500 Du        
   2536 ****       263.2500 349.7500 -57.5000 Du        
   2537 ****       263.2500 349.7500 -57.2500 Du        
   2538 ****       263.2500 349.7500 -57.0000 Du        
   2539 ****       263.2500 349.7500 -56.7500 Du        
   2540 ****       263.2500 349.7500 -56.5000 Du        
   2541 ****       263.2500 350.0000 -62.0000 Du        
   2542 ****       263.2500 350.0000 -61.7500 Du        
   2543 ****       263.2500 350.0000 -61.5000 Du        
   2544 ****       263.2500 350.0000 -61.2500 Du        
   2545 ****       263.2500 350.0000 -61.0000 Du        
   2546 ****       263.2500 350.0000 -60.7500 Du        
   2547 ****       263.2500 350.0000 -59.7500 Du        
   2548 ****       263.2500 350.0000 -59.2500 Du        
   2549 ****       263.2500 350.0000 -59.0000 Du        
   2550 ****       263.2500 350.0000 -58.7500 Du        
   2551 ****       263.2500 350.0000 -58.5000 Du        
   2552 ****       263.2500 350.0000 -58.2500 Du        
   2553 ****       263.2500 350.0000 -58.0000 Du        
   2554 ****       263.2500 350.0000 -57.7500 Du        
   2555 ****       263.2500 350.0000 -57.5000 Du        
   2556 ****       263.2500 350.0000 -57.2500 Du        
   2557 ****       263.2500 350.0000 -57.0000 Du        
   2558 ****       263.2500 350.0000 -56.7500 Du        
   2559 ****       263.2500 350.0000 -56.5000 Du        
   2560 ****       263.2500 350.2500 -60.0000 Du        
   2561 ****       263.2500 350.2500 -59.7500 Du        
   2562 ****       263.2500 350.2500 -59.5000 Du        
   2563 ****       263.2500 350.2500 -59.2500 Du        
   2564 ****       263.2500 350.2500 -59.0000 Du        
   2565 ****       263.2500 350.2500 -58.7500 Du        
   2566 ****       263.2500 350.2500 -58.5000 Du        
   2567 ****       263.2500 350.2500 -58.2500 Du        
   2568 ****       263.2500 350.2500 -58.0000 Du        
   2569 ****       263.2500 350.2500 -57.7500 Du        
   2570 ****       263.2500 350.2500 -57.5000 Du        
   2571 ****       263.2500 350.2500 -57.2500 Du        
   2572 ****       263.2500 350.2500 -57.0000 Du        
   2573 ****       263.2500 350.2500 -56.7500 Du        
   2574 ****       263.2500 350.2500 -56.5000 Du        
   2575 ****       263.2500 350.5000 -59.7500 Du        
   2576 ****       263.2500 350.5000 -59.5000 Du        
   2577 ****       263.2500 350.5000 -59.2500 Du        
   2578 ****       263.2500 350.5000 -59.0000 Du        
   2579 ****       263.2500 350.5000 -58.7500 Du        
   2580 ****       263.2500 350.5000 -58.5000 Du        
   2581 ****       263.2500 350.5000 -58.2500 Du        
   2582 ****       263.2500 350.5000 -58.0000 Du        
   2583 ****       263.2500 350.5000 -57.7500 Du        
   2584 ****       263.2500 350.5000 -57.5000 Du        
   2585 ****       263.2500 350.5000 -57.2500 Du        
   2586 ****       263.2500 350.5000 -57.0000 Du        
   2587 ****       263.2500 350.5000 -56.7500 Du        
   2588 ****       263.2500 350.5000 -56.5000 Du        
   2589 ****       263.2500 350.7500 -59.2500 Du        
   2590 ****       263.2500 350.7500 -59.0000 Du        
   2591 ****       263.2500 350.7500 -58.7500 Du        
   2592 ****       263.2500 350.7500 -58.5000 Du        
   2593 ****       263.2500 350.7500 -58.2500 Du        
   2594 ****       263.2500 350.7500 -58.0000 Du        
   2595 ****       263.2500 350.7500 -57.7500 Du        
   2596 ****       263.2500 350.7500 -57.5000 Du        
   2597 ****       263.2500 350.7500 -57.2500 Du        
   2598 ****       263.2500 350.7500 -57.0000 Du        
   2599 ****       263.2500 350.7500 -56.7500 Du        
   2600 ****       263.2500 350.7500 -56.5000 Du        
   2601 ****       263.2500 351.0000 -59.0000 Du        
   2602 ****       263.2500 351.0000 -58.7500 Du        
   2603 ****       263.2500 351.0000 -58.5000 Du        
   2604 ****       263.2500 351.0000 -58.2500 Du        
   2605 ****       263.2500 351.0000 -58.0000 Du        
   2606 ****       263.2500 351.0000 -57.7500 Du        
   2607 ****       263.2500 351.0000 -57.5000 Du        
   2608 ****       263.2500 351.0000 -57.2500 Du        
   2609 ****       263.2500 351.0000 -57.0000 Du        
   2610 ****       263.2500 351.0000 -56.7500 Du        
   2611 ****       263.2500 351.0000 -56.5000 Du        
   2612 ****       263.2500 351.2500 -58.7500 Du        
   2613 ****       263.2500 351.2500 -58.5000 Du        
   2614 ****       263.2500 351.2500 -58.2500 Du        
   2615 ****       263.2500 351.2500 -58.0000 Du        
   2616 ****       263.2500 351.2500 -57.7500 Du        
   2617 ****       263.2500 351.2500 -57.5000 Du        
   2618 ****       263.2500 351.2500 -57.2500 Du        
   2619 ****       263.2500 351.2500 -57.0000 Du        
   2620 ****       263.2500 351.2500 -56.7500 Du        
   2621 ****       263.2500 351.5000 -58.7500 Du        
   2622 ****       263.2500 351.5000 -58.5000 Du        
   2623 ****       263.2500 351.5000 -58.2500 Du        
   2624 ****       263.2500 351.5000 -58.0000 Du        
   2625 ****       263.2500 351.5000 -57.7500 Du        
   2626 ****       263.2500 351.5000 -57.5000 Du        
   2627 ****       263.2500 351.5000 -57.2500 Du        
   2628 ****       263.2500 351.5000 -57.0000 Du        
   2629 ****       263.2500 351.7500 -58.5000 Du        
   2630 ****       263.2500 351.7500 -58.2500 Du        
   2631 ****       263.2500 351.7500 -58.0000 Du        
   2632 ****       263.2500 351.7500 -57.7500 Du        
   2633 ****       263.2500 351.7500 -57.5000 Du        
   2634 ****       263.2500 352.0000 -58.2500 Du        
   2635 ****       263.2500 352.0000 -58.0000 Du        
   2636 ****       263.2500 352.0000 -57.7500 Du        
   2637 ****       263.5000 345.7500 -56.2500 Du        
   2638 ****       263.5000 346.0000 -56.5000 Du        
   2639 ****       263.5000 346.0000 -56.2500 Du        
   2640 ****       263.5000 346.0000 -56.0000 Du        
   2641 ****       263.5000 346.2500 -56.5000 Du        
   2642 ****       263.5000 346.2500 -56.2500 Du        
   2643 ****       263.5000 346.2500 -56.0000 Du        
   2644 ****       263.5000 346.2500 -55.7500 Du        
   2645 ****       263.5000 346.5000 -56.5000 Du        
   2646 ****       263.5000 346.5000 -56.2500 Du        
   2647 ****       263.5000 346.5000 -56.0000 Du        
   2648 ****       263.5000 346.5000 -55.7500 Du        
   2649 ****       263.5000 346.7500 -56.5000 Du        
   2650 ****       263.5000 346.7500 -56.2500 Du        
   2651 ****       263.5000 346.7500 -56.0000 Du        
   2652 ****       263.5000 346.7500 -55.7500 Du        
   2653 ****       263.5000 347.0000 -56.5000 Du        
   2654 ****       263.5000 347.0000 -56.2500 Du        
   2655 ****       263.5000 347.0000 -56.0000 Du        
   2656 ****       263.5000 347.2500 -56.5000 Du        
   2657 ****       263.5000 347.2500 -56.2500 Du        
   2658 ****       263.5000 347.2500 -56.0000 Du        
   2659 ****       263.5000 347.5000 -56.2500 Du        
   2660 ****       263.5000 347.5000 -56.0000 Du        
   2661 ****       263.5000 347.7500 -56.5000 Du        
   2662 ****       263.5000 347.7500 -56.2500 Du        
   2663 ****       263.5000 348.0000 -56.5000 Du        
   2664 ****       263.5000 348.0000 -56.2500 Du        
   2665 ****       263.5000 348.0000 -56.0000 Du        
   2666 ****       263.5000 348.2500 -56.7500 Du        
   2667 ****       263.5000 348.2500 -56.5000 Du        
   2668 ****       263.5000 348.2500 -56.2500 Du        
   2669 ****       263.5000 348.2500 -56.0000 Du        
   2670 ****       263.5000 348.5000 -56.7500 Du        
   2671 ****       263.5000 348.5000 -56.5000 Du        
   2672 ****       263.5000 348.5000 -56.2500 Du        
   2673 ****       263.5000 348.5000 -56.0000 Du        
   2674 ****       263.5000 348.7500 -57.0000 Du        
   2675 ****       263.5000 348.7500 -56.7500 Du        
   2676 ****       263.5000 348.7500 -56.5000 Du        
   2677 ****       263.5000 348.7500 -56.2500 Du        
   2678 ****       263.5000 348.7500 -56.0000 Du        
   2679 ****       263.5000 348.7500 -55.7500 Du        
   2680 ****       263.5000 348.7500 -55.5000 Du        
   2681 ****       263.5000 349.0000 -57.2500 Du        
   2682 ****       263.5000 349.0000 -57.0000 Du        
   2683 ****       263.5000 349.0000 -56.7500 Du        
   2684 ****       263.5000 349.0000 -56.5000 Du        
   2685 ****       263.5000 349.0000 -56.2500 Du        
   2686 ****       263.5000 349.0000 -56.0000 Du        
   2687 ****       263.5000 349.0000 -55.7500 Du        
   2688 ****       263.5000 349.0000 -55.5000 Du        
   2689 ****       263.5000 349.0000 -55.2500 Du        
   2690 ****       263.5000 349.2500 -62.0000 Du        
   2691 ****       263.5000 349.2500 -61.7500 Du        
   2692 ****       263.5000 349.2500 -57.5000 Du        
   2693 ****       263.5000 349.2500 -57.2500 Du        
   2694 ****       263.5000 349.2500 -57.0000 Du        
   2695 ****       263.5000 349.2500 -56.7500 Du        
   2696 ****       263.5000 349.2500 -56.5000 Du        
   2697 ****       263.5000 349.2500 -56.2500 Du        
   2698 ****       263.5000 349.2500 -56.0000 Du        
   2699 ****       263.5000 349.2500 -55.7500 Du        
   2700 ****       263.5000 349.2500 -55.5000 Du        
   2701 ****       263.5000 349.5000 -62.2500 Du        
   2702 ****       263.5000 349.5000 -62.0000 Du        
   2703 ****       263.5000 349.5000 -61.7500 Du        
   2704 ****       263.5000 349.5000 -61.5000 Du        
   2705 ****       263.5000 349.5000 -57.5000 Du        
   2706 ****       263.5000 349.5000 -57.2500 Du        
   2707 ****       263.5000 349.5000 -57.0000 Du        
   2708 ****       263.5000 349.5000 -56.7500 Du        
   2709 ****       263.5000 349.5000 -56.5000 Du        
   2710 ****       263.5000 349.5000 -56.2500 Du        
   2711 ****       263.5000 349.5000 -56.0000 Du        
   2712 ****       263.5000 349.5000 -55.7500 Du        
   2713 ****       263.5000 349.7500 -62.2500 Du        
   2714 ****       263.5000 349.7500 -62.0000 Du        
   2715 ****       263.5000 349.7500 -61.7500 Du        
   2716 ****       263.5000 349.7500 -61.5000 Du        
   2717 ****       263.5000 349.7500 -61.2500 Du        
   2718 ****       263.5000 349.7500 -58.0000 Du        
   2719 ****       263.5000 349.7500 -57.7500 Du        
   2720 ****       263.5000 349.7500 -57.5000 Du        
   2721 ****       263.5000 349.7500 -57.2500 Du        
   2722 ****       263.5000 349.7500 -57.0000 Du        
   2723 ****       263.5000 349.7500 -56.7500 Du        
   2724 ****       263.5000 349.7500 -56.5000 Du        
   2725 ****       263.5000 349.7500 -56.2500 Du        
   2726 ****       263.5000 349.7500 -56.0000 Du        
   2727 ****       263.5000 350.0000 -62.2500 Du        
   2728 ****       263.5000 350.0000 -62.0000 Du        
   2729 ****       263.5000 350.0000 -61.7500 Du        
   2730 ****       263.5000 350.0000 -61.5000 Du        
   2731 ****       263.5000 350.0000 -61.2500 Du        
   2732 ****       263.5000 350.0000 -61.0000 Du        
   2733 ****       263.5000 350.0000 -60.7500 Du        
   2734 ****       263.5000 350.0000 -59.2500 Du        
   2735 ****       263.5000 350.0000 -59.0000 Du        
   2736 ****       263.5000 350.0000 -58.7500 Du        
   2737 ****       263.5000 350.0000 -58.5000 Du        
   2738 ****       263.5000 350.0000 -58.2500 Du        
   2739 ****       263.5000 350.0000 -58.0000 Du        
   2740 ****       263.5000 350.0000 -57.7500 Du        
   2741 ****       263.5000 350.0000 -57.5000 Du        
   2742 ****       263.5000 350.0000 -57.2500 Du        
   2743 ****       263.5000 350.0000 -57.0000 Du        
   2744 ****       263.5000 350.0000 -56.7500 Du        
   2745 ****       263.5000 350.0000 -56.5000 Du        
   2746 ****       263.5000 350.0000 -56.2500 Du        
   2747 ****       263.5000 350.2500 -59.7500 Du        
   2748 ****       263.5000 350.2500 -59.5000 Du        
   2749 ****       263.5000 350.2500 -59.2500 Du        
   2750 ****       263.5000 350.2500 -59.0000 Du        
   2751 ****       263.5000 350.2500 -58.7500 Du        
   2752 ****       263.5000 350.2500 -58.5000 Du        
   2753 ****       263.5000 350.2500 -58.2500 Du        
   2754 ****       263.5000 350.2500 -58.0000 Du        
   2755 ****       263.5000 350.2500 -57.7500 Du        
   2756 ****       263.5000 350.2500 -57.5000 Du        
   2757 ****       263.5000 350.2500 -57.2500 Du        
   2758 ****       263.5000 350.2500 -57.0000 Du        
   2759 ****       263.5000 350.2500 -56.7500 Du        
   2760 ****       263.5000 350.2500 -56.5000 Du        
   2761 ****       263.5000 350.2500 -56.2500 Du        
   2762 ****       263.5000 350.5000 -59.0000 Du        
   2763 ****       263.5000 350.5000 -58.7500 Du        
   2764 ****       263.5000 350.5000 -58.5000 Du        
   2765 ****       263.5000 350.5000 -58.2500 Du        
   2766 ****       263.5000 350.5000 -58.0000 Du        
   2767 ****       263.5000 350.5000 -57.7500 Du        
   2768 ****       263.5000 350.5000 -57.5000 Du        
   2769 ****       263.5000 350.5000 -57.2500 Du        
   2770 ****       263.5000 350.5000 -57.0000 Du        
   2771 ****       263.5000 350.5000 -56.7500 Du        
   2772 ****       263.5000 350.5000 -56.5000 Du        
   2773 ****       263.5000 350.7500 -59.0000 Du        
   2774 ****       263.5000 350.7500 -58.7500 Du        
   2775 ****       263.5000 350.7500 -58.5000 Du        
   2776 ****       263.5000 350.7500 -58.2500 Du        
   2777 ****       263.5000 350.7500 -58.0000 Du        
   2778 ****       263.5000 350.7500 -57.7500 Du        
   2779 ****       263.5000 350.7500 -57.5000 Du        
   2780 ****       263.5000 350.7500 -57.2500 Du        
   2781 ****       263.5000 350.7500 -57.0000 Du        
   2782 ****       263.5000 350.7500 -56.7500 Du        
   2783 ****       263.5000 351.0000 -58.7500 Du        
   2784 ****       263.5000 351.0000 -58.5000 Du        
   2785 ****       263.5000 351.0000 -58.2500 Du        
   2786 ****       263.5000 351.0000 -58.0000 Du        
   2787 ****       263.5000 351.0000 -57.7500 Du        
   2788 ****       263.5000 351.0000 -57.5000 Du        
   2789 ****       263.5000 351.2500 -58.5000 Du        
   2790 ****       263.5000 351.2500 -58.2500 Du        
   2791 ****       263.5000 351.2500 -58.0000 Du        
   2792 ****       263.5000 351.5000 -58.5000 Du        
   2793 ****       263.5000 351.5000 -58.2500 Du        
   2794 ****       263.5000 351.5000 -58.0000 Du        
   2795 ****       263.7500 345.7500 -56.5000 Du        
   2796 ****       263.7500 345.7500 -56.2500 Du        
   2797 ****       263.7500 346.0000 -56.5000 Du        
   2798 ****       263.7500 346.0000 -56.2500 Du        
   2799 ****       263.7500 346.0000 -56.0000 Du        
   2800 ****       263.7500 346.2500 -56.5000 Du        
   2801 ****       263.7500 346.2500 -56.2500 Du        
   2802 ****       263.7500 346.2500 -56.0000 Du        
   2803 ****       263.7500 346.2500 -55.7500 Du        
   2804 ****       263.7500 346.5000 -56.5000 Du        
   2805 ****       263.7500 346.5000 -56.2500 Du        
   2806 ****       263.7500 346.5000 -56.0000 Du        
   2807 ****       263.7500 346.5000 -55.7500 Du        
   2808 ****       263.7500 346.5000 -55.5000 Du        
   2809 ****       263.7500 346.7500 -56.5000 Du        
   2810 ****       263.7500 346.7500 -56.2500 Du        
   2811 ****       263.7500 346.7500 -56.0000 Du        
   2812 ****       263.7500 346.7500 -55.7500 Du        
   2813 ****       263.7500 346.7500 -55.5000 Du        
   2814 ****       263.7500 346.7500 -55.2500 Du        
   2815 ****       263.7500 347.0000 -56.5000 Du        
   2816 ****       263.7500 347.0000 -56.2500 Du        
   2817 ****       263.7500 347.0000 -56.0000 Du        
   2818 ****       263.7500 347.0000 -55.7500 Du        
   2819 ****       263.7500 347.0000 -55.5000 Du        
   2820 ****       263.7500 347.0000 -55.2500 Du        
   2821 ****       263.7500 347.2500 -56.5000 Du        
   2822 ****       263.7500 347.2500 -56.2500 Du        
   2823 ****       263.7500 347.2500 -56.0000 Du        
   2824 ****       263.7500 347.2500 -55.7500 Du        
   2825 ****       263.7500 347.2500 -55.5000 Du        
   2826 ****       263.7500 347.2500 -55.2500 Du        
   2827 ****       263.7500 347.5000 -56.5000 Du        
   2828 ****       263.7500 347.5000 -56.2500 Du        
   2829 ****       263.7500 347.5000 -56.0000 Du        
   2830 ****       263.7500 347.5000 -55.7500 Du        
   2831 ****       263.7500 347.5000 -55.5000 Du        
   2832 ****       263.7500 347.7500 -56.7500 Du        
   2833 ****       263.7500 347.7500 -56.5000 Du        
   2834 ****       263.7500 347.7500 -56.2500 Du        
   2835 ****       263.7500 347.7500 -56.0000 Du        
   2836 ****       263.7500 347.7500 -55.7500 Du        
   2837 ****       263.7500 347.7500 -55.5000 Du        
   2838 ****       263.7500 347.7500 -55.2500 Du        
   2839 ****       263.7500 348.0000 -56.7500 Du        
   2840 ****       263.7500 348.0000 -56.5000 Du        
   2841 ****       263.7500 348.0000 -56.2500 Du        
   2842 ****       263.7500 348.0000 -56.0000 Du        
   2843 ****       263.7500 348.0000 -55.7500 Du        
   2844 ****       263.7500 348.0000 -55.5000 Du        
   2845 ****       263.7500 348.0000 -55.2500 Du        
   2846 ****       263.7500 348.2500 -56.7500 Du        
   2847 ****       263.7500 348.2500 -56.5000 Du        
   2848 ****       263.7500 348.2500 -56.2500 Du        
   2849 ****       263.7500 348.2500 -56.0000 Du        
   2850 ****       263.7500 348.2500 -55.7500 Du        
   2851 ****       263.7500 348.2500 -55.5000 Du        
   2852 ****       263.7500 348.2500 -55.2500 Du        
   2853 ****       263.7500 348.5000 -57.0000 Du        
   2854 ****       263.7500 348.5000 -56.7500 Du        
   2855 ****       263.7500 348.5000 -56.5000 Du        
   2856 ****       263.7500 348.5000 -56.2500 Du        
   2857 ****       263.7500 348.5000 -56.0000 Du        
   2858 ****       263.7500 348.5000 -55.7500 Du        
   2859 ****       263.7500 348.5000 -55.5000 Du        
   2860 ****       263.7500 348.5000 -55.2500 Du        
   2861 ****       263.7500 348.5000 -55.0000 Du        
   2862 ****       263.7500 348.7500 -57.0000 Du        
   2863 ****       263.7500 348.7500 -56.7500 Du        
   2864 ****       263.7500 348.7500 -56.5000 Du        
   2865 ****       263.7500 348.7500 -56.2500 Du        
   2866 ****       263.7500 348.7500 -56.0000 Du        
   2867 ****       263.7500 348.7500 -55.7500 Du        
   2868 ****       263.7500 348.7500 -55.5000 Du        
   2869 ****       263.7500 348.7500 -55.2500 Du        
   2870 ****       263.7500 348.7500 -55.0000 Du        
   2871 ****       263.7500 349.0000 -62.0000 Du        
   2872 ****       263.7500 349.0000 -57.2500 Du        
   2873 ****       263.7500 349.0000 -57.0000 Du        
   2874 ****       263.7500 349.0000 -56.7500 Du        
   2875 ****       263.7500 349.0000 -56.5000 Du        
   2876 ****       263.7500 349.0000 -56.2500 Du        
   2877 ****       263.7500 349.0000 -56.0000 Du        
   2878 ****       263.7500 349.0000 -55.7500 Du        
   2879 ****       263.7500 349.0000 -55.5000 Du        
   2880 ****       263.7500 349.0000 -55.2500 Du        
   2881 ****       263.7500 349.0000 -55.0000 Du        
   2882 ****       263.7500 349.2500 -62.2500 Du        
   2883 ****       263.7500 349.2500 -62.0000 Du        
   2884 ****       263.7500 349.2500 -61.7500 Du        
   2885 ****       263.7500 349.2500 -57.5000 Du        
   2886 ****       263.7500 349.2500 -57.2500 Du        
   2887 ****       263.7500 349.2500 -57.0000 Du        
   2888 ****       263.7500 349.2500 -56.7500 Du        
   2889 ****       263.7500 349.2500 -56.5000 Du        
   2890 ****       263.7500 349.2500 -56.2500 Du        
   2891 ****       263.7500 349.2500 -56.0000 Du        
   2892 ****       263.7500 349.2500 -55.7500 Du        
   2893 ****       263.7500 349.2500 -55.5000 Du        
   2894 ****       263.7500 349.2500 -55.2500 Du        
   2895 ****       263.7500 349.2500 -55.0000 Du        
   2896 ****       263.7500 349.5000 -62.2500 Du        
   2897 ****       263.7500 349.5000 -62.0000 Du        
   2898 ****       263.7500 349.5000 -61.7500 Du        
   2899 ****       263.7500 349.5000 -61.5000 Du        
   2900 ****       263.7500 349.5000 -61.2500 Du        
   2901 ****       263.7500 349.5000 -57.7500 Du        
   2902 ****       263.7500 349.5000 -57.5000 Du        
   2903 ****       263.7500 349.5000 -57.2500 Du        
   2904 ****       263.7500 349.5000 -57.0000 Du        
   2905 ****       263.7500 349.5000 -56.7500 Du        
   2906 ****       263.7500 349.5000 -56.5000 Du        
   2907 ****       263.7500 349.5000 -56.2500 Du        
   2908 ****       263.7500 349.5000 -56.0000 Du        
   2909 ****       263.7500 349.5000 -55.7500 Du        
   2910 ****       263.7500 349.5000 -55.5000 Du        
   2911 ****       263.7500 349.5000 -55.2500 Du        
   2912 ****       263.7500 349.5000 -55.0000 Du        
   2913 ****       263.7500 349.7500 -62.2500 Du        
   2914 ****       263.7500 349.7500 -62.0000 Du        
   2915 ****       263.7500 349.7500 -61.7500 Du        
   2916 ****       263.7500 349.7500 -61.5000 Du        
   2917 ****       263.7500 349.7500 -61.2500 Du        
   2918 ****       263.7500 349.7500 -61.0000 Du        
   2919 ****       263.7500 349.7500 -60.7500 Du        
   2920 ****       263.7500 349.7500 -58.0000 Du        
   2921 ****       263.7500 349.7500 -57.7500 Du        
   2922 ****       263.7500 349.7500 -57.5000 Du        
   2923 ****       263.7500 349.7500 -57.2500 Du        
   2924 ****       263.7500 349.7500 -57.0000 Du        
   2925 ****       263.7500 349.7500 -56.7500 Du        
   2926 ****       263.7500 349.7500 -56.5000 Du        
   2927 ****       263.7500 349.7500 -56.2500 Du        
   2928 ****       263.7500 349.7500 -56.0000 Du        
   2929 ****       263.7500 349.7500 -55.7500 Du        
   2930 ****       263.7500 349.7500 -55.5000 Du        
   2931 ****       263.7500 349.7500 -55.2500 Du        
   2932 ****       263.7500 349.7500 -55.0000 Du        
   2933 ****       263.7500 350.0000 -62.2500 Du        
   2934 ****       263.7500 350.0000 -62.0000 Du        
   2935 ****       263.7500 350.0000 -61.7500 Du        
   2936 ****       263.7500 350.0000 -61.5000 Du        
   2937 ****       263.7500 350.0000 -61.2500 Du        
   2938 ****       263.7500 350.0000 -61.0000 Du        
   2939 ****       263.7500 350.0000 -60.7500 Du        
   2940 ****       263.7500 350.0000 -60.0000 Du        
   2941 ****       263.7500 350.0000 -59.7500 Du        
   2942 ****       263.7500 350.0000 -59.2500 Du        
   2943 ****       263.7500 350.0000 -59.0000 Du        
   2944 ****       263.7500 350.0000 -58.7500 Du        
   2945 ****       263.7500 350.0000 -58.2500 Du        
   2946 ****       263.7500 350.0000 -58.0000 Du        
   2947 ****       263.7500 350.0000 -57.7500 Du        
   2948 ****       263.7500 350.0000 -57.5000 Du        
   2949 ****       263.7500 350.0000 -57.2500 Du        
   2950 ****       263.7500 350.0000 -57.0000 Du        
   2951 ****       263.7500 350.0000 -56.7500 Du        
   2952 ****       263.7500 350.0000 -56.5000 Du        
   2953 ****       263.7500 350.0000 -56.2500 Du        
   2954 ****       263.7500 350.0000 -56.0000 Du        
   2955 ****       263.7500 350.0000 -55.7500 Du        
   2956 ****       263.7500 350.0000 -55.5000 Du        
   2957 ****       263.7500 350.0000 -55.2500 Du        
   2958 ****       263.7500 350.2500 -60.0000 Du        
   2959 ****       263.7500 350.2500 -59.7500 Du        
   2960 ****       263.7500 350.2500 -59.5000 Du        
   2961 ****       263.7500 350.2500 -59.2500 Du        
   2962 ****       263.7500 350.2500 -59.0000 Du        
   2963 ****       263.7500 350.2500 -58.7500 Du        
   2964 ****       263.7500 350.2500 -58.5000 Du        
   2965 ****       263.7500 350.2500 -58.2500 Du        
   2966 ****       263.7500 350.2500 -58.0000 Du        
   2967 ****       263.7500 350.2500 -57.5000 Du        
   2968 ****       263.7500 350.2500 -57.2500 Du        
   2969 ****       263.7500 350.2500 -57.0000 Du        
   2970 ****       263.7500 350.2500 -56.7500 Du        
   2971 ****       263.7500 350.2500 -56.5000 Du        
   2972 ****       263.7500 350.2500 -56.2500 Du        
   2973 ****       263.7500 350.2500 -56.0000 Du        
   2974 ****       263.7500 350.2500 -55.7500 Du        
   2975 ****       263.7500 350.5000 -58.7500 Du        
   2976 ****       263.7500 350.5000 -58.5000 Du        
   2977 ****       263.7500 350.5000 -58.2500 Du        
   2978 ****       263.7500 350.7500 -59.0000 Du        
   2979 ****       263.7500 350.7500 -58.7500 Du        
   2980 ****       263.7500 350.7500 -58.5000 Du        
   2981 ****       263.7500 350.7500 -58.2500 Du        
   2982 ****       263.7500 351.0000 -58.7500 Du        
   2983 ****       263.7500 351.0000 -58.5000 Du        
   2984 ****       264.0000 345.7500 -56.5000 Du        
   2985 ****       264.0000 345.7500 -56.2500 Du        
   2986 ****       264.0000 346.0000 -56.5000 Du        
   2987 ****       264.0000 346.0000 -56.2500 Du        
   2988 ****       264.0000 346.0000 -56.0000 Du        
   2989 ****       264.0000 346.2500 -56.5000 Du        
   2990 ****       264.0000 346.2500 -56.2500 Du        
   2991 ****       264.0000 346.2500 -56.0000 Du        
   2992 ****       264.0000 346.2500 -55.7500 Du        
   2993 ****       264.0000 346.2500 -55.5000 Du        
   2994 ****       264.0000 346.5000 -56.5000 Du        
   2995 ****       264.0000 346.5000 -56.2500 Du        
   2996 ****       264.0000 346.5000 -56.0000 Du        
   2997 ****       264.0000 346.5000 -55.7500 Du        
   2998 ****       264.0000 346.5000 -55.5000 Du        
   2999 ****       264.0000 346.7500 -56.5000 Du        
   3000 ****       264.0000 346.7500 -56.2500 Du        
   3001 ****       264.0000 346.7500 -56.0000 Du        
   3002 ****       264.0000 346.7500 -55.7500 Du        
   3003 ****       264.0000 346.7500 -55.5000 Du        
   3004 ****       264.0000 346.7500 -55.2500 Du        
   3005 ****       264.0000 347.0000 -56.5000 Du        
   3006 ****       264.0000 347.0000 -56.2500 Du        
   3007 ****       264.0000 347.0000 -56.0000 Du        
   3008 ****       264.0000 347.0000 -55.7500 Du        
   3009 ****       264.0000 347.0000 -55.5000 Du        
   3010 ****       264.0000 347.0000 -55.2500 Du        
   3011 ****       264.0000 347.0000 -55.0000 Du        
   3012 ****       264.0000 347.2500 -56.5000 Du        
   3013 ****       264.0000 347.2500 -56.2500 Du        
   3014 ****       264.0000 347.2500 -56.0000 Du        
   3015 ****       264.0000 347.2500 -55.7500 Du        
   3016 ****       264.0000 347.2500 -55.5000 Du        
   3017 ****       264.0000 347.2500 -55.2500 Du        
   3018 ****       264.0000 347.2500 -55.0000 Du        
   3019 ****       264.0000 347.5000 -56.5000 Du        
   3020 ****       264.0000 347.5000 -56.2500 Du        
   3021 ****       264.0000 347.5000 -56.0000 Du        
   3022 ****       264.0000 347.5000 -55.7500 Du        
   3023 ****       264.0000 347.5000 -55.5000 Du        
   3024 ****       264.0000 347.5000 -55.2500 Du        
   3025 ****       264.0000 347.5000 -55.0000 Du        
   3026 ****       264.0000 347.7500 -56.7500 Du        
   3027 ****       264.0000 347.7500 -56.5000 Du        
   3028 ****       264.0000 347.7500 -56.2500 Du        
   3029 ****       264.0000 347.7500 -56.0000 Du        
   3030 ****       264.0000 347.7500 -55.7500 Du        
   3031 ****       264.0000 347.7500 -55.5000 Du        
   3032 ****       264.0000 347.7500 -55.2500 Du        
   3033 ****       264.0000 347.7500 -55.0000 Du        
   3034 ****       264.0000 348.0000 -56.7500 Du        
   3035 ****       264.0000 348.0000 -56.5000 Du        
   3036 ****       264.0000 348.0000 -56.2500 Du        
   3037 ****       264.0000 348.0000 -56.0000 Du        
   3038 ****       264.0000 348.0000 -55.7500 Du        
   3039 ****       264.0000 348.0000 -55.5000 Du        
   3040 ****       264.0000 348.0000 -55.2500 Du        
   3041 ****       264.0000 348.0000 -55.0000 Du        
   3042 ****       264.0000 348.2500 -56.7500 Du        
   3043 ****       264.0000 348.2500 -56.5000 Du        
   3044 ****       264.0000 348.2500 -56.2500 Du        
   3045 ****       264.0000 348.2500 -56.0000 Du        
   3046 ****       264.0000 348.2500 -55.7500 Du        
   3047 ****       264.0000 348.2500 -55.5000 Du        
   3048 ****       264.0000 348.2500 -55.2500 Du        
   3049 ****       264.0000 348.2500 -55.0000 Du        
   3050 ****       264.0000 348.5000 -57.0000 Du        
   3051 ****       264.0000 348.5000 -56.7500 Du        
   3052 ****       264.0000 348.5000 -56.5000 Du        
   3053 ****       264.0000 348.5000 -56.2500 Du        
   3054 ****       264.0000 348.5000 -56.0000 Du        
   3055 ****       264.0000 348.5000 -55.7500 Du        
   3056 ****       264.0000 348.5000 -55.5000 Du        
   3057 ****       264.0000 348.5000 -55.2500 Du        
   3058 ****       264.0000 348.5000 -55.0000 Du        
   3059 ****       264.0000 348.7500 -57.2500 Du        
   3060 ****       264.0000 348.7500 -57.0000 Du        
   3061 ****       264.0000 348.7500 -56.7500 Du        
   3062 ****       264.0000 348.7500 -56.5000 Du        
   3063 ****       264.0000 348.7500 -56.2500 Du        
   3064 ****       264.0000 348.7500 -56.0000 Du        
   3065 ****       264.0000 348.7500 -55.7500 Du        
   3066 ****       264.0000 348.7500 -55.5000 Du        
   3067 ****       264.0000 348.7500 -55.2500 Du        
   3068 ****       264.0000 348.7500 -55.0000 Du        
   3069 ****       264.0000 349.0000 -62.2500 Du        
   3070 ****       264.0000 349.0000 -62.0000 Du        
   3071 ****       264.0000 349.0000 -61.7500 Du        
   3072 ****       264.0000 349.0000 -57.2500 Du        
   3073 ****       264.0000 349.0000 -57.0000 Du        
   3074 ****       264.0000 349.0000 -56.7500 Du        
   3075 ****       264.0000 349.0000 -56.5000 Du        
   3076 ****       264.0000 349.0000 -56.2500 Du        
   3077 ****       264.0000 349.0000 -56.0000 Du        
   3078 ****       264.0000 349.0000 -55.7500 Du        
   3079 ****       264.0000 349.0000 -55.5000 Du        
   3080 ****       264.0000 349.0000 -55.2500 Du        
   3081 ****       264.0000 349.0000 -55.0000 Du        
   3082 ****       264.0000 349.2500 -62.2500 Du        
   3083 ****       264.0000 349.2500 -62.0000 Du        
   3084 ****       264.0000 349.2500 -61.7500 Du        
   3085 ****       264.0000 349.2500 -61.5000 Du        
   3086 ****       264.0000 349.2500 -61.2500 Du        
   3087 ****       264.0000 349.2500 -57.5000 Du        
   3088 ****       264.0000 349.2500 -57.2500 Du        
   3089 ****       264.0000 349.2500 -57.0000 Du        
   3090 ****       264.0000 349.2500 -56.7500 Du        
   3091 ****       264.0000 349.2500 -56.5000 Du        
   3092 ****       264.0000 349.2500 -56.2500 Du        
   3093 ****       264.0000 349.2500 -56.0000 Du        
   3094 ****       264.0000 349.2500 -55.7500 Du        
   3095 ****       264.0000 349.2500 -55.5000 Du        
   3096 ****       264.0000 349.2500 -55.2500 Du        
   3097 ****       264.0000 349.2500 -55.0000 Du        
   3098 ****       264.0000 349.2500 -54.7500 Du        
   3099 ****       264.0000 349.5000 -62.2500 Du        
   3100 ****       264.0000 349.5000 -62.0000 Du        
   3101 ****       264.0000 349.5000 -61.7500 Du        
   3102 ****       264.0000 349.5000 -61.5000 Du        
   3103 ****       264.0000 349.5000 -61.2500 Du        
   3104 ****       264.0000 349.5000 -61.0000 Du        
   3105 ****       264.0000 349.5000 -57.5000 Du        
   3106 ****       264.0000 349.5000 -57.2500 Du        
   3107 ****       264.0000 349.5000 -57.0000 Du        
   3108 ****       264.0000 349.5000 -56.7500 Du        
   3109 ****       264.0000 349.5000 -56.5000 Du        
   3110 ****       264.0000 349.5000 -56.2500 Du        
   3111 ****       264.0000 349.5000 -56.0000 Du        
   3112 ****       264.0000 349.5000 -55.7500 Du        
   3113 ****       264.0000 349.5000 -55.5000 Du        
   3114 ****       264.0000 349.5000 -55.2500 Du        
   3115 ****       264.0000 349.5000 -55.0000 Du        
   3116 ****       264.0000 349.5000 -54.7500 Du        
   3117 ****       264.0000 349.7500 -62.2500 Du        
   3118 ****       264.0000 349.7500 -62.0000 Du        
   3119 ****       264.0000 349.7500 -61.7500 Du        
   3120 ****       264.0000 349.7500 -61.5000 Du        
   3121 ****       264.0000 349.7500 -61.2500 Du        
   3122 ****       264.0000 349.7500 -61.0000 Du        
   3123 ****       264.0000 349.7500 -60.7500 Du        
   3124 ****       264.0000 349.7500 -57.5000 Du        
   3125 ****       264.0000 349.7500 -57.2500 Du        
   3126 ****       264.0000 349.7500 -57.0000 Du        
   3127 ****       264.0000 349.7500 -56.7500 Du        
   3128 ****       264.0000 349.7500 -56.5000 Du        
   3129 ****       264.0000 349.7500 -56.2500 Du        
   3130 ****       264.0000 349.7500 -56.0000 Du        
   3131 ****       264.0000 349.7500 -55.7500 Du        
   3132 ****       264.0000 349.7500 -55.5000 Du        
   3133 ****       264.0000 349.7500 -55.2500 Du        
   3134 ****       264.0000 349.7500 -55.0000 Du        
   3135 ****       264.0000 349.7500 -54.7500 Du        
   3136 ****       264.0000 350.0000 -62.2500 Du        
   3137 ****       264.0000 350.0000 -62.0000 Du        
   3138 ****       264.0000 350.0000 -61.7500 Du        
   3139 ****       264.0000 350.0000 -61.5000 Du        
   3140 ****       264.0000 350.0000 -61.2500 Du        
   3141 ****       264.0000 350.0000 -61.0000 Du        
   3142 ****       264.0000 350.0000 -60.7500 Du        
   3143 ****       264.0000 350.0000 -60.5000 Du        
   3144 ****       264.0000 350.0000 -60.2500 Du        
   3145 ****       264.0000 350.0000 -60.0000 Du        
   3146 ****       264.0000 350.0000 -59.7500 Du        
   3147 ****       264.0000 350.0000 -59.2500 Du        
   3148 ****       264.0000 350.0000 -59.0000 Du        
   3149 ****       264.0000 350.0000 -58.7500 Du        
   3150 ****       264.0000 350.0000 -56.2500 Du        
   3151 ****       264.0000 350.0000 -56.0000 Du        
   3152 ****       264.0000 350.0000 -55.7500 Du        
   3153 ****       264.0000 350.0000 -55.5000 Du        
   3154 ****       264.0000 350.0000 -55.2500 Du        
   3155 ****       264.0000 350.0000 -55.0000 Du        
   3156 ****       264.0000 350.0000 -54.7500 Du        
   3157 ****       264.0000 350.2500 -60.0000 Du        
   3158 ****       264.0000 350.2500 -59.7500 Du        
   3159 ****       264.0000 350.2500 -59.5000 Du        
   3160 ****       264.0000 350.2500 -59.2500 Du        
   3161 ****       264.0000 350.2500 -59.0000 Du        
   3162 ****       264.0000 350.2500 -55.7500 Du        
   3163 ****       264.0000 350.2500 -55.5000 Du        
   3164 ****       264.0000 350.2500 -55.2500 Du        
   3165 ****       264.0000 350.2500 -55.0000 Du        
   3166 ****       264.0000 350.2500 -54.7500 Du        
   3167 ****       264.0000 350.5000 -55.0000 Du        
   3168 ****       264.2500 345.7500 -56.5000 Du        
   3169 ****       264.2500 345.7500 -56.2500 Du        
   3170 ****       264.2500 346.0000 -56.7500 Du        
   3171 ****       264.2500 346.0000 -56.5000 Du        
   3172 ****       264.2500 346.0000 -56.2500 Du        
   3173 ****       264.2500 346.0000 -56.0000 Du        
   3174 ****       264.2500 346.2500 -56.7500 Du        
   3175 ****       264.2500 346.2500 -56.5000 Du        
   3176 ****       264.2500 346.2500 -56.2500 Du        
   3177 ****       264.2500 346.2500 -56.0000 Du        
   3178 ****       264.2500 346.2500 -55.7500 Du        
   3179 ****       264.2500 346.2500 -55.5000 Du        
   3180 ****       264.2500 346.5000 -56.5000 Du        
   3181 ****       264.2500 346.5000 -56.2500 Du        
   3182 ****       264.2500 346.5000 -56.0000 Du        
   3183 ****       264.2500 346.5000 -55.7500 Du        
   3184 ****       264.2500 346.5000 -55.5000 Du        
   3185 ****       264.2500 346.7500 -56.5000 Du        
   3186 ****       264.2500 346.7500 -56.2500 Du        
   3187 ****       264.2500 346.7500 -56.0000 Du        
   3188 ****       264.2500 346.7500 -55.7500 Du        
   3189 ****       264.2500 346.7500 -55.5000 Du        
   3190 ****       264.2500 346.7500 -55.2500 Du        
   3191 ****       264.2500 346.7500 -55.0000 Du        
   3192 ****       264.2500 347.0000 -56.5000 Du        
   3193 ****       264.2500 347.0000 -56.2500 Du        
   3194 ****       264.2500 347.0000 -56.0000 Du        
   3195 ****       264.2500 347.0000 -55.7500 Du        
   3196 ****       264.2500 347.0000 -55.5000 Du        
   3197 ****       264.2500 347.0000 -55.2500 Du        
   3198 ****       264.2500 347.0000 -55.0000 Du        
   3199 ****       264.2500 347.2500 -56.5000 Du        
   3200 ****       264.2500 347.2500 -56.2500 Du        
   3201 ****       264.2500 347.2500 -56.0000 Du        
   3202 ****       264.2500 347.2500 -55.7500 Du        
   3203 ****       264.2500 347.2500 -55.5000 Du        
   3204 ****       264.2500 347.2500 -55.2500 Du        
   3205 ****       264.2500 347.2500 -55.0000 Du        
   3206 ****       264.2500 347.5000 -56.5000 Du        
   3207 ****       264.2500 347.5000 -56.2500 Du        
   3208 ****       264.2500 347.5000 -56.0000 Du        
   3209 ****       264.2500 347.5000 -55.7500 Du        
   3210 ****       264.2500 347.5000 -55.5000 Du        
   3211 ****       264.2500 347.5000 -55.2500 Du        
   3212 ****       264.2500 347.5000 -55.0000 Du        
   3213 ****       264.2500 347.7500 -56.7500 Du        
   3214 ****       264.2500 347.7500 -56.5000 Du        
   3215 ****       264.2500 347.7500 -56.2500 Du        
   3216 ****       264.2500 347.7500 -56.0000 Du        
   3217 ****       264.2500 347.7500 -55.7500 Du        
   3218 ****       264.2500 347.7500 -55.5000 Du        
   3219 ****       264.2500 347.7500 -55.2500 Du        
   3220 ****       264.2500 347.7500 -55.0000 Du        
   3221 ****       264.2500 348.0000 -56.7500 Du        
   3222 ****       264.2500 348.0000 -56.5000 Du        
   3223 ****       264.2500 348.0000 -56.2500 Du        
   3224 ****       264.2500 348.0000 -56.0000 Du        
   3225 ****       264.2500 348.0000 -55.7500 Du        
   3226 ****       264.2500 348.0000 -55.5000 Du        
   3227 ****       264.2500 348.0000 -55.2500 Du        
   3228 ****       264.2500 348.0000 -55.0000 Du        
   3229 ****       264.2500 348.2500 -56.7500 Du        
   3230 ****       264.2500 348.2500 -56.5000 Du        
   3231 ****       264.2500 348.2500 -56.2500 Du        
   3232 ****       264.2500 348.2500 -56.0000 Du        
   3233 ****       264.2500 348.2500 -55.7500 Du        
   3234 ****       264.2500 348.2500 -55.5000 Du        
   3235 ****       264.2500 348.2500 -55.2500 Du        
   3236 ****       264.2500 348.2500 -55.0000 Du        
   3237 ****       264.2500 348.5000 -57.0000 Du        
   3238 ****       264.2500 348.5000 -56.7500 Du        
   3239 ****       264.2500 348.5000 -56.5000 Du        
   3240 ****       264.2500 348.5000 -56.2500 Du        
   3241 ****       264.2500 348.5000 -56.0000 Du        
   3242 ****       264.2500 348.5000 -55.7500 Du        
   3243 ****       264.2500 348.5000 -55.5000 Du        
   3244 ****       264.2500 348.5000 -55.2500 Du        
   3245 ****       264.2500 348.5000 -55.0000 Du        
   3246 ****       264.2500 348.7500 -62.0000 Du        
   3247 ****       264.2500 348.7500 -61.7500 Du        
   3248 ****       264.2500 348.7500 -57.0000 Du        
   3249 ****       264.2500 348.7500 -56.7500 Du        
   3250 ****       264.2500 348.7500 -56.5000 Du        
   3251 ****       264.2500 348.7500 -56.2500 Du        
   3252 ****       264.2500 348.7500 -56.0000 Du        
   3253 ****       264.2500 348.7500 -55.7500 Du        
   3254 ****       264.2500 348.7500 -55.5000 Du        
   3255 ****       264.2500 348.7500 -55.2500 Du        
   3256 ****       264.2500 348.7500 -55.0000 Du        
   3257 ****       264.2500 349.0000 -62.2500 Du        
   3258 ****       264.2500 349.0000 -62.0000 Du        
   3259 ****       264.2500 349.0000 -61.7500 Du        
   3260 ****       264.2500 349.0000 -61.5000 Du        
   3261 ****       264.2500 349.0000 -57.2500 Du        
   3262 ****       264.2500 349.0000 -57.0000 Du        
   3263 ****       264.2500 349.0000 -56.7500 Du        
   3264 ****       264.2500 349.0000 -56.5000 Du        
   3265 ****       264.2500 349.0000 -56.2500 Du        
   3266 ****       264.2500 349.0000 -56.0000 Du        
   3267 ****       264.2500 349.0000 -55.7500 Du        
   3268 ****       264.2500 349.0000 -55.5000 Du        
   3269 ****       264.2500 349.0000 -55.2500 Du        
   3270 ****       264.2500 349.0000 -55.0000 Du        
   3271 ****       264.2500 349.2500 -62.2500 Du        
   3272 ****       264.2500 349.2500 -62.0000 Du        
   3273 ****       264.2500 349.2500 -61.7500 Du        
   3274 ****       264.2500 349.2500 -61.5000 Du        
   3275 ****       264.2500 349.2500 -61.2500 Du        
   3276 ****       264.2500 349.2500 -57.2500 Du        
   3277 ****       264.2500 349.2500 -57.0000 Du        
   3278 ****       264.2500 349.2500 -56.7500 Du        
   3279 ****       264.2500 349.2500 -56.5000 Du        
   3280 ****       264.2500 349.2500 -56.2500 Du        
   3281 ****       264.2500 349.2500 -56.0000 Du        
   3282 ****       264.2500 349.2500 -55.7500 Du        
   3283 ****       264.2500 349.2500 -55.5000 Du        
   3284 ****       264.2500 349.2500 -55.2500 Du        
   3285 ****       264.2500 349.2500 -55.0000 Du        
   3286 ****       264.2500 349.5000 -62.2500 Du        
   3287 ****       264.2500 349.5000 -62.0000 Du        
   3288 ****       264.2500 349.5000 -61.7500 Du        
   3289 ****       264.2500 349.5000 -61.5000 Du        
   3290 ****       264.2500 349.5000 -61.2500 Du        
   3291 ****       264.2500 349.5000 -61.0000 Du        
   3292 ****       264.2500 349.5000 -60.7500 Du        
   3293 ****       264.2500 349.5000 -57.0000 Du        
   3294 ****       264.2500 349.5000 -56.7500 Du        
   3295 ****       264.2500 349.5000 -56.5000 Du        
   3296 ****       264.2500 349.5000 -56.2500 Du        
   3297 ****       264.2500 349.5000 -56.0000 Du        
   3298 ****       264.2500 349.5000 -55.7500 Du        
   3299 ****       264.2500 349.5000 -55.5000 Du        
   3300 ****       264.2500 349.5000 -55.2500 Du        
   3301 ****       264.2500 349.5000 -55.0000 Du        
   3302 ****       264.2500 349.5000 -54.7500 Du        
   3303 ****       264.2500 349.7500 -62.2500 Du        
   3304 ****       264.2500 349.7500 -62.0000 Du        
   3305 ****       264.2500 349.7500 -61.7500 Du        
   3306 ****       264.2500 349.7500 -61.5000 Du        
   3307 ****       264.2500 349.7500 -61.2500 Du        
   3308 ****       264.2500 349.7500 -61.0000 Du        
   3309 ****       264.2500 349.7500 -60.7500 Du        
   3310 ****       264.2500 349.7500 -60.5000 Du        
   3311 ****       264.2500 349.7500 -56.0000 Du        
   3312 ****       264.2500 349.7500 -55.7500 Du        
   3313 ****       264.2500 349.7500 -55.5000 Du        
   3314 ****       264.2500 349.7500 -55.2500 Du        
   3315 ****       264.2500 349.7500 -55.0000 Du        
   3316 ****       264.2500 349.7500 -54.7500 Du        
   3317 ****       264.2500 350.0000 -62.2500 Du        
   3318 ****       264.2500 350.0000 -62.0000 Du        
   3319 ****       264.2500 350.0000 -61.7500 Du        
   3320 ****       264.2500 350.0000 -61.5000 Du        
   3321 ****       264.2500 350.0000 -61.2500 Du        
   3322 ****       264.2500 350.0000 -61.0000 Du        
   3323 ****       264.2500 350.0000 -60.7500 Du        
   3324 ****       264.2500 350.0000 -60.5000 Du        
   3325 ****       264.2500 350.0000 -60.2500 Du        
   3326 ****       264.2500 350.0000 -60.0000 Du        
   3327 ****       264.2500 350.0000 -59.7500 Du        
   3328 ****       264.2500 350.0000 -55.5000 Du        
   3329 ****       264.2500 350.0000 -55.2500 Du        
   3330 ****       264.2500 350.0000 -55.0000 Du        
   3331 ****       264.2500 350.0000 -54.7500 Du        
   3332 ****       264.2500 350.0000 -54.5000 Du        
   3333 ****       264.2500 350.2500 -59.7500 Du        
   3334 ****       264.2500 350.2500 -59.2500 Du        
   3335 ****       264.2500 350.2500 -55.2500 Du        
   3336 ****       264.2500 350.2500 -55.0000 Du        
   3337 ****       264.2500 350.2500 -54.7500 Du        
   3338 ****       264.2500 350.2500 -54.5000 Du        
   3339 ****       264.2500 350.5000 -55.0000 Du        
   3340 ****       264.2500 350.5000 -54.7500 Du        
   3341 ****       264.2500 350.5000 -54.5000 Du        
   3342 ****       264.2500 350.7500 -54.5000 Du        
   3343 ****       264.5000 345.7500 -56.7500 Du        
   3344 ****       264.5000 345.7500 -56.5000 Du        
   3345 ****       264.5000 345.7500 -56.2500 Du        
   3346 ****       264.5000 346.0000 -56.7500 Du        
   3347 ****       264.5000 346.0000 -56.5000 Du        
   3348 ****       264.5000 346.0000 -56.2500 Du        
   3349 ****       264.5000 346.0000 -56.0000 Du        
   3350 ****       264.5000 346.2500 -56.7500 Du        
   3351 ****       264.5000 346.2500 -56.5000 Du        
   3352 ****       264.5000 346.2500 -56.2500 Du        
   3353 ****       264.5000 346.2500 -56.0000 Du        
   3354 ****       264.5000 346.2500 -55.7500 Du        
   3355 ****       264.5000 346.2500 -55.5000 Du        
   3356 ****       264.5000 346.5000 -56.7500 Du        
   3357 ****       264.5000 346.5000 -56.5000 Du        
   3358 ****       264.5000 346.5000 -56.2500 Du        
   3359 ****       264.5000 346.5000 -56.0000 Du        
   3360 ****       264.5000 346.5000 -55.7500 Du        
   3361 ****       264.5000 346.5000 -55.5000 Du        
   3362 ****       264.5000 346.5000 -55.2500 Du        
   3363 ****       264.5000 346.7500 -56.7500 Du        
   3364 ****       264.5000 346.7500 -56.5000 Du        
   3365 ****       264.5000 346.7500 -56.2500 Du        
   3366 ****       264.5000 346.7500 -56.0000 Du        
   3367 ****       264.5000 346.7500 -55.7500 Du        
   3368 ****       264.5000 346.7500 -55.5000 Du        
   3369 ****       264.5000 346.7500 -55.2500 Du        
   3370 ****       264.5000 346.7500 -55.0000 Du        
   3371 ****       264.5000 347.0000 -56.7500 Du        
   3372 ****       264.5000 347.0000 -56.5000 Du        
   3373 ****       264.5000 347.0000 -56.2500 Du        
   3374 ****       264.5000 347.0000 -56.0000 Du        
   3375 ****       264.5000 347.0000 -55.7500 Du        
   3376 ****       264.5000 347.0000 -55.5000 Du        
   3377 ****       264.5000 347.0000 -55.2500 Du        
   3378 ****       264.5000 347.0000 -55.0000 Du        
   3379 ****       264.5000 347.2500 -56.7500 Du        
   3380 ****       264.5000 347.2500 -56.5000 Du        
   3381 ****       264.5000 347.2500 -56.2500 Du        
   3382 ****       264.5000 347.2500 -56.0000 Du        
   3383 ****       264.5000 347.2500 -55.7500 Du        
   3384 ****       264.5000 347.2500 -55.5000 Du        
   3385 ****       264.5000 347.2500 -55.2500 Du        
   3386 ****       264.5000 347.2500 -55.0000 Du        
   3387 ****       264.5000 347.5000 -56.5000 Du        
   3388 ****       264.5000 347.5000 -56.2500 Du        
   3389 ****       264.5000 347.5000 -56.0000 Du        
   3390 ****       264.5000 347.5000 -55.7500 Du        
   3391 ****       264.5000 347.5000 -55.5000 Du        
   3392 ****       264.5000 347.5000 -55.2500 Du        
   3393 ****       264.5000 347.5000 -55.0000 Du        
   3394 ****       264.5000 347.7500 -56.7500 Du        
   3395 ****       264.5000 347.7500 -56.5000 Du        
   3396 ****       264.5000 347.7500 -56.2500 Du        
   3397 ****       264.5000 347.7500 -56.0000 Du        
   3398 ****       264.5000 347.7500 -55.7500 Du        
   3399 ****       264.5000 347.7500 -55.5000 Du        
   3400 ****       264.5000 347.7500 -55.2500 Du        
   3401 ****       264.5000 347.7500 -55.0000 Du        
   3402 ****       264.5000 348.0000 -56.7500 Du        
   3403 ****       264.5000 348.0000 -56.5000 Du        
   3404 ****       264.5000 348.0000 -56.2500 Du        
   3405 ****       264.5000 348.0000 -56.0000 Du        
   3406 ****       264.5000 348.0000 -55.7500 Du        
   3407 ****       264.5000 348.0000 -55.5000 Du        
   3408 ****       264.5000 348.0000 -55.2500 Du        
   3409 ****       264.5000 348.0000 -55.0000 Du        
   3410 ****       264.5000 348.2500 -56.7500 Du        
   3411 ****       264.5000 348.2500 -56.5000 Du        
   3412 ****       264.5000 348.2500 -56.2500 Du        
   3413 ****       264.5000 348.2500 -56.0000 Du        
   3414 ****       264.5000 348.2500 -55.7500 Du        
   3415 ****       264.5000 348.2500 -55.5000 Du        
   3416 ****       264.5000 348.2500 -55.2500 Du        
   3417 ****       264.5000 348.2500 -55.0000 Du        
   3418 ****       264.5000 348.5000 -56.7500 Du        
   3419 ****       264.5000 348.5000 -56.5000 Du        
   3420 ****       264.5000 348.5000 -56.2500 Du        
   3421 ****       264.5000 348.5000 -56.0000 Du        
   3422 ****       264.5000 348.5000 -55.7500 Du        
   3423 ****       264.5000 348.5000 -55.5000 Du        
   3424 ****       264.5000 348.5000 -55.2500 Du        
   3425 ****       264.5000 348.5000 -55.0000 Du        
   3426 ****       264.5000 348.7500 -62.2500 Du        
   3427 ****       264.5000 348.7500 -62.0000 Du        
   3428 ****       264.5000 348.7500 -61.7500 Du        
   3429 ****       264.5000 348.7500 -57.0000 Du        
   3430 ****       264.5000 348.7500 -56.7500 Du        
   3431 ****       264.5000 348.7500 -56.5000 Du        
   3432 ****       264.5000 348.7500 -56.2500 Du        
   3433 ****       264.5000 348.7500 -56.0000 Du        
   3434 ****       264.5000 348.7500 -55.7500 Du        
   3435 ****       264.5000 348.7500 -55.5000 Du        
   3436 ****       264.5000 348.7500 -55.2500 Du        
   3437 ****       264.5000 348.7500 -55.0000 Du        
   3438 ****       264.5000 349.0000 -62.2500 Du        
   3439 ****       264.5000 349.0000 -62.0000 Du        
   3440 ****       264.5000 349.0000 -61.7500 Du        
   3441 ****       264.5000 349.0000 -61.5000 Du        
   3442 ****       264.5000 349.0000 -56.7500 Du        
   3443 ****       264.5000 349.0000 -56.5000 Du        
   3444 ****       264.5000 349.0000 -56.2500 Du        
   3445 ****       264.5000 349.0000 -56.0000 Du        
   3446 ****       264.5000 349.0000 -55.7500 Du        
   3447 ****       264.5000 349.0000 -55.5000 Du        
   3448 ****       264.5000 349.0000 -55.2500 Du        
   3449 ****       264.5000 349.0000 -55.0000 Du        
   3450 ****       264.5000 349.2500 -62.2500 Du        
   3451 ****       264.5000 349.2500 -62.0000 Du        
   3452 ****       264.5000 349.2500 -61.7500 Du        
   3453 ****       264.5000 349.2500 -61.5000 Du        
   3454 ****       264.5000 349.2500 -61.2500 Du        
   3455 ****       264.5000 349.2500 -61.0000 Du        
   3456 ****       264.5000 349.2500 -56.7500 Du        
   3457 ****       264.5000 349.2500 -56.5000 Du        
   3458 ****       264.5000 349.2500 -56.2500 Du        
   3459 ****       264.5000 349.2500 -56.0000 Du        
   3460 ****       264.5000 349.2500 -55.7500 Du        
   3461 ****       264.5000 349.2500 -55.5000 Du        
   3462 ****       264.5000 349.2500 -55.2500 Du        
   3463 ****       264.5000 349.2500 -55.0000 Du        
   3464 ****       264.5000 349.5000 -62.2500 Du        
   3465 ****       264.5000 349.5000 -62.0000 Du        
   3466 ****       264.5000 349.5000 -61.7500 Du        
   3467 ****       264.5000 349.5000 -61.5000 Du        
   3468 ****       264.5000 349.5000 -61.2500 Du        
   3469 ****       264.5000 349.5000 -61.0000 Du        
   3470 ****       264.5000 349.5000 -60.7500 Du        
   3471 ****       264.5000 349.5000 -56.2500 Du        
   3472 ****       264.5000 349.5000 -56.0000 Du        
   3473 ****       264.5000 349.5000 -55.7500 Du        
   3474 ****       264.5000 349.5000 -55.5000 Du        
   3475 ****       264.5000 349.5000 -55.2500 Du        
   3476 ****       264.5000 349.5000 -55.0000 Du        
   3477 ****       264.5000 349.7500 -62.2500 Du        
   3478 ****       264.5000 349.7500 -62.0000 Du        
   3479 ****       264.5000 349.7500 -61.7500 Du        
   3480 ****       264.5000 349.7500 -61.5000 Du        
   3481 ****       264.5000 349.7500 -61.2500 Du        
   3482 ****       264.5000 349.7500 -61.0000 Du        
   3483 ****       264.5000 349.7500 -60.7500 Du        
   3484 ****       264.5000 349.7500 -55.5000 Du        
   3485 ****       264.5000 349.7500 -55.2500 Du        
   3486 ****       264.5000 349.7500 -55.0000 Du        
   3487 ****       264.5000 349.7500 -54.7500 Du        
   3488 ****       264.5000 350.0000 -62.2500 Du        
   3489 ****       264.5000 350.0000 -62.0000 Du        
   3490 ****       264.5000 350.0000 -61.7500 Du        
   3491 ****       264.5000 350.0000 -61.5000 Du        
   3492 ****       264.5000 350.0000 -61.2500 Du        
   3493 ****       264.5000 350.0000 -61.0000 Du        
   3494 ****       264.5000 350.0000 -60.7500 Du        
   3495 ****       264.5000 350.0000 -55.2500 Du        
   3496 ****       264.5000 350.0000 -55.0000 Du        
   3497 ****       264.5000 350.0000 -54.7500 Du        
   3498 ****       264.5000 350.2500 -62.2500 Du        
   3499 ****       264.5000 350.2500 -62.0000 Du        
   3500 ****       264.5000 350.2500 -61.7500 Du        
   3501 ****       264.5000 350.2500 -55.0000 Du        
   3502 ****       264.5000 350.2500 -54.7500 Du        
   3503 ****       264.5000 350.2500 -54.5000 Du        
   3504 ****       264.5000 350.5000 -54.5000 Du        
   3505 ****       264.5000 350.7500 -54.5000 Du        
   3506 ****       264.7500 345.5000 -57.0000 Du        
   3507 ****       264.7500 345.5000 -56.7500 Du        
   3508 ****       264.7500 345.5000 -56.5000 Du        
   3509 ****       264.7500 345.7500 -57.0000 Du        
   3510 ****       264.7500 345.7500 -56.7500 Du        
   3511 ****       264.7500 345.7500 -56.5000 Du        
   3512 ****       264.7500 345.7500 -56.2500 Du        
   3513 ****       264.7500 346.0000 -56.7500 Du        
   3514 ****       264.7500 346.0000 -56.5000 Du        
   3515 ****       264.7500 346.0000 -56.2500 Du        
   3516 ****       264.7500 346.0000 -56.0000 Du        
   3517 ****       264.7500 346.0000 -55.7500 Du        
   3518 ****       264.7500 346.2500 -56.7500 Du        
   3519 ****       264.7500 346.2500 -56.5000 Du        
   3520 ****       264.7500 346.2500 -56.2500 Du        
   3521 ****       264.7500 346.2500 -56.0000 Du        
   3522 ****       264.7500 346.2500 -55.7500 Du        
   3523 ****       264.7500 346.2500 -55.5000 Du        
   3524 ****       264.7500 346.5000 -56.7500 Du        
   3525 ****       264.7500 346.5000 -56.5000 Du        
   3526 ****       264.7500 346.5000 -56.2500 Du        
   3527 ****       264.7500 346.5000 -56.0000 Du        
   3528 ****       264.7500 346.5000 -55.7500 Du        
   3529 ****       264.7500 346.5000 -55.5000 Du        
   3530 ****       264.7500 346.5000 -55.2500 Du        
   3531 ****       264.7500 346.7500 -56.7500 Du        
   3532 ****       264.7500 346.7500 -56.5000 Du        
   3533 ****       264.7500 346.7500 -56.2500 Du        
   3534 ****       264.7500 346.7500 -56.0000 Du        
   3535 ****       264.7500 346.7500 -55.7500 Du        
   3536 ****       264.7500 346.7500 -55.5000 Du        
   3537 ****       264.7500 346.7500 -55.2500 Du        
   3538 ****       264.7500 346.7500 -55.0000 Du        
   3539 ****       264.7500 347.0000 -56.7500 Du        
   3540 ****       264.7500 347.0000 -56.5000 Du        
   3541 ****       264.7500 347.0000 -56.2500 Du        
   3542 ****       264.7500 347.0000 -56.0000 Du        
   3543 ****       264.7500 347.0000 -55.7500 Du        
   3544 ****       264.7500 347.0000 -55.5000 Du        
   3545 ****       264.7500 347.0000 -55.2500 Du        
   3546 ****       264.7500 347.0000 -55.0000 Du        
   3547 ****       264.7500 347.2500 -56.7500 Du        
   3548 ****       264.7500 347.2500 -56.5000 Du        
   3549 ****       264.7500 347.2500 -56.2500 Du        
   3550 ****       264.7500 347.2500 -56.0000 Du        
   3551 ****       264.7500 347.2500 -55.7500 Du        
   3552 ****       264.7500 347.2500 -55.5000 Du        
   3553 ****       264.7500 347.2500 -55.2500 Du        
   3554 ****       264.7500 347.2500 -55.0000 Du        
   3555 ****       264.7500 347.5000 -56.7500 Du        
   3556 ****       264.7500 347.5000 -56.5000 Du        
   3557 ****       264.7500 347.5000 -56.2500 Du        
   3558 ****       264.7500 347.5000 -56.0000 Du        
   3559 ****       264.7500 347.5000 -55.7500 Du        
   3560 ****       264.7500 347.5000 -55.5000 Du        
   3561 ****       264.7500 347.5000 -55.2500 Du        
   3562 ****       264.7500 347.5000 -55.0000 Du        
   3563 ****       264.7500 347.7500 -56.7500 Du        
   3564 ****       264.7500 347.7500 -56.5000 Du        
   3565 ****       264.7500 347.7500 -56.2500 Du        
   3566 ****       264.7500 347.7500 -56.0000 Du        
   3567 ****       264.7500 347.7500 -55.7500 Du        
   3568 ****       264.7500 347.7500 -55.5000 Du        
   3569 ****       264.7500 347.7500 -55.2500 Du        
   3570 ****       264.7500 348.0000 -56.7500 Du        
   3571 ****       264.7500 348.0000 -56.5000 Du        
   3572 ****       264.7500 348.0000 -56.2500 Du        
   3573 ****       264.7500 348.0000 -56.0000 Du        
   3574 ****       264.7500 348.0000 -55.7500 Du        
   3575 ****       264.7500 348.0000 -55.5000 Du        
   3576 ****       264.7500 348.0000 -55.2500 Du        
   3577 ****       264.7500 348.2500 -56.7500 Du        
   3578 ****       264.7500 348.2500 -56.5000 Du        
   3579 ****       264.7500 348.2500 -56.2500 Du        
   3580 ****       264.7500 348.2500 -56.0000 Du        
   3581 ****       264.7500 348.2500 -55.7500 Du        
   3582 ****       264.7500 348.2500 -55.5000 Du        
   3583 ****       264.7500 348.2500 -55.2500 Du        
   3584 ****       264.7500 348.5000 -56.7500 Du        
   3585 ****       264.7500 348.5000 -56.5000 Du        
   3586 ****       264.7500 348.5000 -56.2500 Du        
   3587 ****       264.7500 348.5000 -56.0000 Du        
   3588 ****       264.7500 348.5000 -55.7500 Du        
   3589 ****       264.7500 348.5000 -55.5000 Du        
   3590 ****       264.7500 348.5000 -55.2500 Du        
   3591 ****       264.7500 348.7500 -62.2500 Du        
   3592 ****       264.7500 348.7500 -62.0000 Du        
   3593 ****       264.7500 348.7500 -61.7500 Du        
   3594 ****       264.7500 348.7500 -61.5000 Du        
   3595 ****       264.7500 348.7500 -56.7500 Du        
   3596 ****       264.7500 348.7500 -56.5000 Du        
   3597 ****       264.7500 348.7500 -56.2500 Du        
   3598 ****       264.7500 348.7500 -56.0000 Du        
   3599 ****       264.7500 348.7500 -55.7500 Du        
   3600 ****       264.7500 348.7500 -55.5000 Du        
   3601 ****       264.7500 348.7500 -55.2500 Du        
   3602 ****       264.7500 349.0000 -62.2500 Du        
   3603 ****       264.7500 349.0000 -62.0000 Du        
   3604 ****       264.7500 349.0000 -61.7500 Du        
   3605 ****       264.7500 349.0000 -61.5000 Du        
   3606 ****       264.7500 349.0000 -61.2500 Du        
   3607 ****       264.7500 349.0000 -56.7500 Du        
   3608 ****       264.7500 349.0000 -56.5000 Du        
   3609 ****       264.7500 349.0000 -56.2500 Du        
   3610 ****       264.7500 349.0000 -56.0000 Du        
   3611 ****       264.7500 349.0000 -55.7500 Du        
   3612 ****       264.7500 349.0000 -55.5000 Du        
   3613 ****       264.7500 349.0000 -55.2500 Du        
   3614 ****       264.7500 349.0000 -55.0000 Du        
   3615 ****       264.7500 349.2500 -62.2500 Du        
   3616 ****       264.7500 349.2500 -62.0000 Du        
   3617 ****       264.7500 349.2500 -61.7500 Du        
   3618 ****       264.7500 349.2500 -61.5000 Du        
   3619 ****       264.7500 349.2500 -61.2500 Du        
   3620 ****       264.7500 349.2500 -61.0000 Du        
   3621 ****       264.7500 349.2500 -56.5000 Du        
   3622 ****       264.7500 349.2500 -56.2500 Du        
   3623 ****       264.7500 349.2500 -56.0000 Du        
   3624 ****       264.7500 349.2500 -55.7500 Du        
   3625 ****       264.7500 349.2500 -55.5000 Du        
   3626 ****       264.7500 349.2500 -55.2500 Du        
   3627 ****       264.7500 349.2500 -55.0000 Du        
   3628 ****       264.7500 349.5000 -62.5000 Du        
   3629 ****       264.7500 349.5000 -62.2500 Du        
   3630 ****       264.7500 349.5000 -62.0000 Du        
   3631 ****       264.7500 349.5000 -61.7500 Du        
   3632 ****       264.7500 349.5000 -61.5000 Du        
   3633 ****       264.7500 349.5000 -61.2500 Du        
   3634 ****       264.7500 349.5000 -61.0000 Du        
   3635 ****       264.7500 349.5000 -60.7500 Du        
   3636 ****       264.7500 349.5000 -55.5000 Du        
   3637 ****       264.7500 349.5000 -55.2500 Du        
   3638 ****       264.7500 349.5000 -55.0000 Du        
   3639 ****       264.7500 349.7500 -62.5000 Du        
   3640 ****       264.7500 349.7500 -62.2500 Du        
   3641 ****       264.7500 349.7500 -62.0000 Du        
   3642 ****       264.7500 349.7500 -61.7500 Du        
   3643 ****       264.7500 349.7500 -61.5000 Du        
   3644 ****       264.7500 349.7500 -61.2500 Du        
   3645 ****       264.7500 349.7500 -61.0000 Du        
   3646 ****       264.7500 349.7500 -60.7500 Du        
   3647 ****       264.7500 349.7500 -55.2500 Du        
   3648 ****       264.7500 349.7500 -55.0000 Du        
   3649 ****       264.7500 349.7500 -54.7500 Du        
   3650 ****       264.7500 350.0000 -62.5000 Du        
   3651 ****       264.7500 350.0000 -62.2500 Du        
   3652 ****       264.7500 350.0000 -62.0000 Du        
   3653 ****       264.7500 350.0000 -61.7500 Du        
   3654 ****       264.7500 350.0000 -61.5000 Du        
   3655 ****       264.7500 350.0000 -61.2500 Du        
   3656 ****       264.7500 350.0000 -61.0000 Du        
   3657 ****       264.7500 350.0000 -60.7500 Du        
   3658 ****       264.7500 350.0000 -55.0000 Du        
   3659 ****       264.7500 350.0000 -54.7500 Du        
   3660 ****       264.7500 350.2500 -62.5000 Du        
   3661 ****       264.7500 350.2500 -62.2500 Du        
   3662 ****       264.7500 350.2500 -62.0000 Du        
   3663 ****       264.7500 350.2500 -61.7500 Du        
   3664 ****       264.7500 350.2500 -61.5000 Du        
   3665 ****       264.7500 350.2500 -61.2500 Du        
   3666 ****       264.7500 350.2500 -54.5000 Du        
   3667 ****       264.7500 350.5000 -54.5000 Du        
   3668 ****       264.7500 350.7500 -54.2500 Du        
   3669 ****       265.0000 345.2500 -57.0000 Du        
   3670 ****       265.0000 345.2500 -56.7500 Du        
   3671 ****       265.0000 345.5000 -57.0000 Du        
   3672 ****       265.0000 345.5000 -56.7500 Du        
   3673 ****       265.0000 345.5000 -56.5000 Du        
   3674 ****       265.0000 345.7500 -57.0000 Du        
   3675 ****       265.0000 345.7500 -56.7500 Du        
   3676 ****       265.0000 345.7500 -56.5000 Du        
   3677 ****       265.0000 345.7500 -56.2500 Du        
   3678 ****       265.0000 345.7500 -56.0000 Du        
   3679 ****       265.0000 346.0000 -57.0000 Du        
   3680 ****       265.0000 346.0000 -56.7500 Du        
   3681 ****       265.0000 346.0000 -56.5000 Du        
   3682 ****       265.0000 346.0000 -56.2500 Du        
   3683 ****       265.0000 346.0000 -56.0000 Du        
   3684 ****       265.0000 346.0000 -55.7500 Du        
   3685 ****       265.0000 346.2500 -57.0000 Du        
   3686 ****       265.0000 346.2500 -56.7500 Du        
   3687 ****       265.0000 346.2500 -56.5000 Du        
   3688 ****       265.0000 346.2500 -56.2500 Du        
   3689 ****       265.0000 346.2500 -56.0000 Du        
   3690 ****       265.0000 346.2500 -55.7500 Du        
   3691 ****       265.0000 346.2500 -55.5000 Du        
   3692 ****       265.0000 346.5000 -56.7500 Du        
   3693 ****       265.0000 346.5000 -56.5000 Du        
   3694 ****       265.0000 346.5000 -56.2500 Du        
   3695 ****       265.0000 346.5000 -56.0000 Du        
   3696 ****       265.0000 346.5000 -55.7500 Du        
   3697 ****       265.0000 346.5000 -55.5000 Du        
   3698 ****       265.0000 346.5000 -55.2500 Du        
   3699 ****       265.0000 346.7500 -56.7500 Du        
   3700 ****       265.0000 346.7500 -56.5000 Du        
   3701 ****       265.0000 346.7500 -56.2500 Du        
   3702 ****       265.0000 346.7500 -56.0000 Du        
   3703 ****       265.0000 346.7500 -55.7500 Du        
   3704 ****       265.0000 346.7500 -55.5000 Du        
   3705 ****       265.0000 346.7500 -55.2500 Du        
   3706 ****       265.0000 346.7500 -55.0000 Du        
   3707 ****       265.0000 347.0000 -56.7500 Du        
   3708 ****       265.0000 347.0000 -56.5000 Du        
   3709 ****       265.0000 347.0000 -56.2500 Du        
   3710 ****       265.0000 347.0000 -56.0000 Du        
   3711 ****       265.0000 347.0000 -55.7500 Du        
   3712 ****       265.0000 347.0000 -55.5000 Du        
   3713 ****       265.0000 347.0000 -55.2500 Du        
   3714 ****       265.0000 347.0000 -55.0000 Du        
   3715 ****       265.0000 347.2500 -56.7500 Du        
   3716 ****       265.0000 347.2500 -56.5000 Du        
   3717 ****       265.0000 347.2500 -56.2500 Du        
   3718 ****       265.0000 347.2500 -56.0000 Du        
   3719 ****       265.0000 347.2500 -55.7500 Du        
   3720 ****       265.0000 347.2500 -55.5000 Du        
   3721 ****       265.0000 347.2500 -55.2500 Du        
   3722 ****       265.0000 347.2500 -55.0000 Du        
   3723 ****       265.0000 347.5000 -56.7500 Du        
   3724 ****       265.0000 347.5000 -56.5000 Du        
   3725 ****       265.0000 347.5000 -56.2500 Du        
   3726 ****       265.0000 347.5000 -56.0000 Du        
   3727 ****       265.0000 347.5000 -55.7500 Du        
   3728 ****       265.0000 347.5000 -55.5000 Du        
   3729 ****       265.0000 347.5000 -55.2500 Du        
   3730 ****       265.0000 347.7500 -56.7500 Du        
   3731 ****       265.0000 347.7500 -56.5000 Du        
   3732 ****       265.0000 347.7500 -56.2500 Du        
   3733 ****       265.0000 347.7500 -56.0000 Du        
   3734 ****       265.0000 347.7500 -55.7500 Du        
   3735 ****       265.0000 347.7500 -55.5000 Du        
   3736 ****       265.0000 347.7500 -55.2500 Du        
   3737 ****       265.0000 348.0000 -56.7500 Du        
   3738 ****       265.0000 348.0000 -56.5000 Du        
   3739 ****       265.0000 348.0000 -56.2500 Du        
   3740 ****       265.0000 348.0000 -56.0000 Du        
   3741 ****       265.0000 348.0000 -55.7500 Du        
   3742 ****       265.0000 348.0000 -55.5000 Du        
   3743 ****       265.0000 348.0000 -55.2500 Du        
   3744 ****       265.0000 348.2500 -56.7500 Du        
   3745 ****       265.0000 348.2500 -56.5000 Du        
   3746 ****       265.0000 348.2500 -56.2500 Du        
   3747 ****       265.0000 348.2500 -56.0000 Du        
   3748 ****       265.0000 348.2500 -55.7500 Du        
   3749 ****       265.0000 348.2500 -55.5000 Du        
   3750 ****       265.0000 348.2500 -55.2500 Du        
   3751 ****       265.0000 348.5000 -62.2500 Du        
   3752 ****       265.0000 348.5000 -62.0000 Du        
   3753 ****       265.0000 348.5000 -61.7500 Du        
   3754 ****       265.0000 348.5000 -56.7500 Du        
   3755 ****       265.0000 348.5000 -56.5000 Du        
   3756 ****       265.0000 348.5000 -56.2500 Du        
   3757 ****       265.0000 348.5000 -56.0000 Du        
   3758 ****       265.0000 348.5000 -55.7500 Du        
   3759 ****       265.0000 348.5000 -55.5000 Du        
   3760 ****       265.0000 348.5000 -55.2500 Du        
   3761 ****       265.0000 348.7500 -62.5000 Du        
   3762 ****       265.0000 348.7500 -62.2500 Du        
   3763 ****       265.0000 348.7500 -62.0000 Du        
   3764 ****       265.0000 348.7500 -61.7500 Du        
   3765 ****       265.0000 348.7500 -61.5000 Du        
   3766 ****       265.0000 348.7500 -57.0000 Du        
   3767 ****       265.0000 348.7500 -56.7500 Du        
   3768 ****       265.0000 348.7500 -56.5000 Du        
   3769 ****       265.0000 348.7500 -56.2500 Du        
   3770 ****       265.0000 348.7500 -56.0000 Du        
   3771 ****       265.0000 348.7500 -55.7500 Du        
   3772 ****       265.0000 348.7500 -55.5000 Du        
   3773 ****       265.0000 348.7500 -55.2500 Du        
   3774 ****       265.0000 349.0000 -62.5000 Du        
   3775 ****       265.0000 349.0000 -62.2500 Du        
   3776 ****       265.0000 349.0000 -62.0000 Du        
   3777 ****       265.0000 349.0000 -61.7500 Du        
   3778 ****       265.0000 349.0000 -61.5000 Du        
   3779 ****       265.0000 349.0000 -61.2500 Du        
   3780 ****       265.0000 349.0000 -56.7500 Du        
   3781 ****       265.0000 349.0000 -56.5000 Du        
   3782 ****       265.0000 349.0000 -56.2500 Du        
   3783 ****       265.0000 349.0000 -56.0000 Du        
   3784 ****       265.0000 349.0000 -55.7500 Du        
   3785 ****       265.0000 349.0000 -55.5000 Du        
   3786 ****       265.0000 349.0000 -55.2500 Du        
   3787 ****       265.0000 349.2500 -62.5000 Du        
   3788 ****       265.0000 349.2500 -62.2500 Du        
   3789 ****       265.0000 349.2500 -62.0000 Du        
   3790 ****       265.0000 349.2500 -61.7500 Du        
   3791 ****       265.0000 349.2500 -61.5000 Du        
   3792 ****       265.0000 349.2500 -61.2500 Du        
   3793 ****       265.0000 349.2500 -61.0000 Du        
   3794 ****       265.0000 349.2500 -56.0000 Du        
   3795 ****       265.0000 349.2500 -55.7500 Du        
   3796 ****       265.0000 349.2500 -55.5000 Du        
   3797 ****       265.0000 349.2500 -55.2500 Du        
   3798 ****       265.0000 349.5000 -62.5000 Du        
   3799 ****       265.0000 349.5000 -62.2500 Du        
   3800 ****       265.0000 349.5000 -62.0000 Du        
   3801 ****       265.0000 349.5000 -61.7500 Du        
   3802 ****       265.0000 349.5000 -61.5000 Du        
   3803 ****       265.0000 349.5000 -61.2500 Du        
   3804 ****       265.0000 349.5000 -61.0000 Du        
   3805 ****       265.0000 349.5000 -60.7500 Du        
   3806 ****       265.0000 349.5000 -55.2500 Du        
   3807 ****       265.0000 349.7500 -62.7500 Du        
   3808 ****       265.0000 349.7500 -62.5000 Du        
   3809 ****       265.0000 349.7500 -62.2500 Du        
   3810 ****       265.0000 349.7500 -62.0000 Du        
   3811 ****       265.0000 349.7500 -61.7500 Du        
   3812 ****       265.0000 349.7500 -61.5000 Du        
   3813 ****       265.0000 349.7500 -61.2500 Du        
   3814 ****       265.0000 349.7500 -61.0000 Du        
   3815 ****       265.0000 349.7500 -60.7500 Du        
   3816 ****       265.0000 350.0000 -62.7500 Du        
   3817 ****       265.0000 350.0000 -62.5000 Du        
   3818 ****       265.0000 350.0000 -62.2500 Du        
   3819 ****       265.0000 350.0000 -62.0000 Du        
   3820 ****       265.0000 350.0000 -61.7500 Du        
   3821 ****       265.0000 350.0000 -61.5000 Du        
   3822 ****       265.0000 350.0000 -61.2500 Du        
   3823 ****       265.0000 350.0000 -61.0000 Du        
   3824 ****       265.0000 350.0000 -60.7500 Du        
   3825 ****       265.0000 350.2500 -62.7500 Du        
   3826 ****       265.0000 350.2500 -62.5000 Du        
   3827 ****       265.0000 350.2500 -62.2500 Du        
   3828 ****       265.0000 350.2500 -62.0000 Du        
   3829 ****       265.0000 350.2500 -61.7500 Du        
   3830 ****       265.0000 350.2500 -61.5000 Du        
   3831 ****       265.0000 350.2500 -61.2500 Du        
   3832 ****       265.0000 350.2500 -61.0000 Du        
   3833 ****       265.0000 350.5000 -62.7500 Du        
   3834 ****       265.0000 350.5000 -62.5000 Du        
   3835 ****       265.0000 350.5000 -62.2500 Du        
   3836 ****       265.2500 345.2500 -57.2500 Du        
   3837 ****       265.2500 345.2500 -57.0000 Du        
   3838 ****       265.2500 345.2500 -56.7500 Du        
   3839 ****       265.2500 345.5000 -57.2500 Du        
   3840 ****       265.2500 345.5000 -57.0000 Du        
   3841 ****       265.2500 345.5000 -56.7500 Du        
   3842 ****       265.2500 345.5000 -56.5000 Du        
   3843 ****       265.2500 345.5000 -56.2500 Du        
   3844 ****       265.2500 345.7500 -57.2500 Du        
   3845 ****       265.2500 345.7500 -57.0000 Du        
   3846 ****       265.2500 345.7500 -56.7500 Du        
   3847 ****       265.2500 345.7500 -56.5000 Du        
   3848 ****       265.2500 345.7500 -56.2500 Du        
   3849 ****       265.2500 345.7500 -56.0000 Du        
   3850 ****       265.2500 346.0000 -57.2500 Du        
   3851 ****       265.2500 346.0000 -57.0000 Du        
   3852 ****       265.2500 346.0000 -56.7500 Du        
   3853 ****       265.2500 346.0000 -56.5000 Du        
   3854 ****       265.2500 346.0000 -56.2500 Du        
   3855 ****       265.2500 346.0000 -56.0000 Du        
   3856 ****       265.2500 346.0000 -55.7500 Du        
   3857 ****       265.2500 346.2500 -57.0000 Du        
   3858 ****       265.2500 346.2500 -56.7500 Du        
   3859 ****       265.2500 346.2500 -56.5000 Du        
   3860 ****       265.2500 346.2500 -56.2500 Du        
   3861 ****       265.2500 346.2500 -56.0000 Du        
   3862 ****       265.2500 346.2500 -55.7500 Du        
   3863 ****       265.2500 346.2500 -55.5000 Du        
   3864 ****       265.2500 346.5000 -57.0000 Du        
   3865 ****       265.2500 346.5000 -56.7500 Du        
   3866 ****       265.2500 346.5000 -56.5000 Du        
   3867 ****       265.2500 346.5000 -56.2500 Du        
   3868 ****       265.2500 346.5000 -56.0000 Du        
   3869 ****       265.2500 346.5000 -55.7500 Du        
   3870 ****       265.2500 346.5000 -55.5000 Du        
   3871 ****       265.2500 346.5000 -55.2500 Du        
   3872 ****       265.2500 346.7500 -57.0000 Du        
   3873 ****       265.2500 346.7500 -56.7500 Du        
   3874 ****       265.2500 346.7500 -56.5000 Du        
   3875 ****       265.2500 346.7500 -56.2500 Du        
   3876 ****       265.2500 346.7500 -56.0000 Du        
   3877 ****       265.2500 346.7500 -55.7500 Du        
   3878 ****       265.2500 346.7500 -55.5000 Du        
   3879 ****       265.2500 346.7500 -55.2500 Du        
   3880 ****       265.2500 347.0000 -57.0000 Du        
   3881 ****       265.2500 347.0000 -56.7500 Du        
   3882 ****       265.2500 347.0000 -56.5000 Du        
   3883 ****       265.2500 347.0000 -56.2500 Du        
   3884 ****       265.2500 347.0000 -56.0000 Du        
   3885 ****       265.2500 347.0000 -55.7500 Du        
   3886 ****       265.2500 347.0000 -55.5000 Du        
   3887 ****       265.2500 347.0000 -55.2500 Du        
   3888 ****       265.2500 347.2500 -56.7500 Du        
   3889 ****       265.2500 347.2500 -56.5000 Du        
   3890 ****       265.2500 347.2500 -56.2500 Du        
   3891 ****       265.2500 347.2500 -56.0000 Du        
   3892 ****       265.2500 347.2500 -55.7500 Du        
   3893 ****       265.2500 347.2500 -55.5000 Du        
   3894 ****       265.2500 347.2500 -55.2500 Du        
   3895 ****       265.2500 347.5000 -56.7500 Du        
   3896 ****       265.2500 347.5000 -56.5000 Du        
   3897 ****       265.2500 347.5000 -56.2500 Du        
   3898 ****       265.2500 347.5000 -56.0000 Du        
   3899 ****       265.2500 347.5000 -55.7500 Du        
   3900 ****       265.2500 347.5000 -55.5000 Du        
   3901 ****       265.2500 347.7500 -56.7500 Du        
   3902 ****       265.2500 347.7500 -56.5000 Du        
   3903 ****       265.2500 347.7500 -56.2500 Du        
   3904 ****       265.2500 347.7500 -56.0000 Du        
   3905 ****       265.2500 347.7500 -55.7500 Du        
   3906 ****       265.2500 347.7500 -55.5000 Du        
   3907 ****       265.2500 348.0000 -56.7500 Du        
   3908 ****       265.2500 348.0000 -56.5000 Du        
   3909 ****       265.2500 348.0000 -56.2500 Du        
   3910 ****       265.2500 348.0000 -56.0000 Du        
   3911 ****       265.2500 348.0000 -55.7500 Du        
   3912 ****       265.2500 348.0000 -55.5000 Du        
   3913 ****       265.2500 348.2500 -56.7500 Du        
   3914 ****       265.2500 348.2500 -56.5000 Du        
   3915 ****       265.2500 348.2500 -56.2500 Du        
   3916 ****       265.2500 348.2500 -56.0000 Du        
   3917 ****       265.2500 348.2500 -55.7500 Du        
   3918 ****       265.2500 348.2500 -55.5000 Du        
   3919 ****       265.2500 348.5000 -62.2500 Du        
   3920 ****       265.2500 348.5000 -62.0000 Du        
   3921 ****       265.2500 348.5000 -61.7500 Du        
   3922 ****       265.2500 348.5000 -56.7500 Du        
   3923 ****       265.2500 348.5000 -56.5000 Du        
   3924 ****       265.2500 348.5000 -56.2500 Du        
   3925 ****       265.2500 348.5000 -56.0000 Du        
   3926 ****       265.2500 348.5000 -55.7500 Du        
   3927 ****       265.2500 348.5000 -55.5000 Du        
   3928 ****       265.2500 348.7500 -62.5000 Du        
   3929 ****       265.2500 348.7500 -62.2500 Du        
   3930 ****       265.2500 348.7500 -62.0000 Du        
   3931 ****       265.2500 348.7500 -61.7500 Du        
   3932 ****       265.2500 348.7500 -61.5000 Du        
   3933 ****       265.2500 348.7500 -61.2500 Du        
   3934 ****       265.2500 348.7500 -56.7500 Du        
   3935 ****       265.2500 348.7500 -56.5000 Du        
   3936 ****       265.2500 348.7500 -56.2500 Du        
   3937 ****       265.2500 348.7500 -56.0000 Du        
   3938 ****       265.2500 348.7500 -55.7500 Du        
   3939 ****       265.2500 348.7500 -55.5000 Du        
   3940 ****       265.2500 349.0000 -62.7500 Du        
   3941 ****       265.2500 349.0000 -62.5000 Du        
   3942 ****       265.2500 349.0000 -62.2500 Du        
   3943 ****       265.2500 349.0000 -62.0000 Du        
   3944 ****       265.2500 349.0000 -61.7500 Du        
   3945 ****       265.2500 349.0000 -61.5000 Du        
   3946 ****       265.2500 349.0000 -61.2500 Du        
   3947 ****       265.2500 349.0000 -61.0000 Du        
   3948 ****       265.2500 349.0000 -56.2500 Du        
   3949 ****       265.2500 349.0000 -56.0000 Du        
   3950 ****       265.2500 349.0000 -55.7500 Du        
   3951 ****       265.2500 349.0000 -55.5000 Du        
   3952 ****       265.2500 349.2500 -62.7500 Du        
   3953 ****       265.2500 349.2500 -62.5000 Du        
   3954 ****       265.2500 349.2500 -62.2500 Du        
   3955 ****       265.2500 349.2500 -62.0000 Du        
   3956 ****       265.2500 349.2500 -61.7500 Du        
   3957 ****       265.2500 349.2500 -61.5000 Du        
   3958 ****       265.2500 349.2500 -61.2500 Du        
   3959 ****       265.2500 349.2500 -61.0000 Du        
   3960 ****       265.2500 349.5000 -62.7500 Du        
   3961 ****       265.2500 349.5000 -62.5000 Du        
   3962 ****       265.2500 349.5000 -62.2500 Du        
   3963 ****       265.2500 349.5000 -62.0000 Du        
   3964 ****       265.2500 349.5000 -61.7500 Du        
   3965 ****       265.2500 349.5000 -61.5000 Du        
   3966 ****       265.2500 349.5000 -61.2500 Du        
   3967 ****       265.2500 349.5000 -61.0000 Du        
   3968 ****       265.2500 349.5000 -60.7500 Du        
   3969 ****       265.2500 349.7500 -62.7500 Du        
   3970 ****       265.2500 349.7500 -62.5000 Du        
   3971 ****       265.2500 349.7500 -62.2500 Du        
   3972 ****       265.2500 349.7500 -62.0000 Du        
   3973 ****       265.2500 349.7500 -61.7500 Du        
   3974 ****       265.2500 349.7500 -61.5000 Du        
   3975 ****       265.2500 349.7500 -61.2500 Du        
   3976 ****       265.2500 349.7500 -61.0000 Du        
   3977 ****       265.2500 349.7500 -60.7500 Du        
   3978 ****       265.2500 350.0000 -63.0000 Du        
   3979 ****       265.2500 350.0000 -62.7500 Du        
   3980 ****       265.2500 350.0000 -62.5000 Du        
   3981 ****       265.2500 350.0000 -62.2500 Du        
   3982 ****       265.2500 350.0000 -62.0000 Du        
   3983 ****       265.2500 350.0000 -61.7500 Du        
   3984 ****       265.2500 350.0000 -61.5000 Du        
   3985 ****       265.2500 350.0000 -61.2500 Du        
   3986 ****       265.2500 350.0000 -61.0000 Du        
   3987 ****       265.2500 350.0000 -60.7500 Du        
   3988 ****       265.2500 350.2500 -63.0000 Du        
   3989 ****       265.2500 350.2500 -62.7500 Du        
   3990 ****       265.2500 350.2500 -62.5000 Du        
   3991 ****       265.2500 350.2500 -62.2500 Du        
   3992 ****       265.2500 350.2500 -62.0000 Du        
   3993 ****       265.2500 350.2500 -61.7500 Du        
   3994 ****       265.2500 350.2500 -61.5000 Du        
   3995 ****       265.2500 350.2500 -61.2500 Du        
   3996 ****       265.2500 350.2500 -61.0000 Du        
   3997 ****       265.2500 350.5000 -63.0000 Du        
   3998 ****       265.2500 350.5000 -62.7500 Du        
   3999 ****       265.2500 350.5000 -62.5000 Du        
   4000 ****       265.2500 350.5000 -62.2500 Du        
   4001 ****       265.2500 350.5000 -62.0000 Du        
   4002 ****       265.2500 350.5000 -61.7500 Du        
   4003 ****       265.2500 350.7500 -63.0000 Du        
   4004 ****       265.2500 350.7500 -62.7500 Du        
   4005 ****       265.5000 345.2500 -57.2500 Du        
   4006 ****       265.5000 345.2500 -57.0000 Du        
   4007 ****       265.5000 345.2500 -56.7500 Du        
   4008 ****       265.5000 345.2500 -56.5000 Du        
   4009 ****       265.5000 345.5000 -57.2500 Du        
   4010 ****       265.5000 345.5000 -57.0000 Du        
   4011 ****       265.5000 345.5000 -56.7500 Du        
   4012 ****       265.5000 345.5000 -56.5000 Du        
   4013 ****       265.5000 345.5000 -56.2500 Du        
   4014 ****       265.5000 345.7500 -57.2500 Du        
   4015 ****       265.5000 345.7500 -57.0000 Du        
   4016 ****       265.5000 345.7500 -56.7500 Du        
   4017 ****       265.5000 345.7500 -56.5000 Du        
   4018 ****       265.5000 345.7500 -56.2500 Du        
   4019 ****       265.5000 345.7500 -56.0000 Du        
   4020 ****       265.5000 346.0000 -57.2500 Du        
   4021 ****       265.5000 346.0000 -57.0000 Du        
   4022 ****       265.5000 346.0000 -56.7500 Du        
   4023 ****       265.5000 346.0000 -56.5000 Du        
   4024 ****       265.5000 346.0000 -56.2500 Du        
   4025 ****       265.5000 346.0000 -56.0000 Du        
   4026 ****       265.5000 346.0000 -55.7500 Du        
   4027 ****       265.5000 346.2500 -57.0000 Du        
   4028 ****       265.5000 346.2500 -56.7500 Du        
   4029 ****       265.5000 346.2500 -56.5000 Du        
   4030 ****       265.5000 346.2500 -56.2500 Du        
   4031 ****       265.5000 346.2500 -56.0000 Du        
   4032 ****       265.5000 346.2500 -55.7500 Du        
   4033 ****       265.5000 346.2500 -55.5000 Du        
   4034 ****       265.5000 346.5000 -57.0000 Du        
   4035 ****       265.5000 346.5000 -56.7500 Du        
   4036 ****       265.5000 346.5000 -56.5000 Du        
   4037 ****       265.5000 346.5000 -56.2500 Du        
   4038 ****       265.5000 346.5000 -56.0000 Du        
   4039 ****       265.5000 346.5000 -55.7500 Du        
   4040 ****       265.5000 346.5000 -55.5000 Du        
   4041 ****       265.5000 346.5000 -55.2500 Du        
   4042 ****       265.5000 346.7500 -57.0000 Du        
   4043 ****       265.5000 346.7500 -56.7500 Du        
   4044 ****       265.5000 346.7500 -56.5000 Du        
   4045 ****       265.5000 346.7500 -56.2500 Du        
   4046 ****       265.5000 346.7500 -56.0000 Du        
   4047 ****       265.5000 346.7500 -55.7500 Du        
   4048 ****       265.5000 346.7500 -55.5000 Du        
   4049 ****       265.5000 346.7500 -55.2500 Du        
   4050 ****       265.5000 347.0000 -57.0000 Du        
   4051 ****       265.5000 347.0000 -56.7500 Du        
   4052 ****       265.5000 347.0000 -56.5000 Du        
   4053 ****       265.5000 347.0000 -56.2500 Du        
   4054 ****       265.5000 347.0000 -56.0000 Du        
   4055 ****       265.5000 347.0000 -55.7500 Du        
   4056 ****       265.5000 347.0000 -55.5000 Du        
   4057 ****       265.5000 347.0000 -55.2500 Du        
   4058 ****       265.5000 347.2500 -56.7500 Du        
   4059 ****       265.5000 347.2500 -56.5000 Du        
   4060 ****       265.5000 347.2500 -56.2500 Du        
   4061 ****       265.5000 347.2500 -56.0000 Du        
   4062 ****       265.5000 347.2500 -55.7500 Du        
   4063 ****       265.5000 347.2500 -55.5000 Du        
   4064 ****       265.5000 347.5000 -56.5000 Du        
   4065 ****       265.5000 347.5000 -56.2500 Du        
   4066 ****       265.5000 347.5000 -56.0000 Du        
   4067 ****       265.5000 347.5000 -55.7500 Du        
   4068 ****       265.5000 347.7500 -56.5000 Du        
   4069 ****       265.5000 347.7500 -56.2500 Du        
   4070 ****       265.5000 347.7500 -56.0000 Du        
   4071 ****       265.5000 347.7500 -55.7500 Du        
   4072 ****       265.5000 348.0000 -56.5000 Du        
   4073 ****       265.5000 348.0000 -56.2500 Du        
   4074 ****       265.5000 348.0000 -56.0000 Du        
   4075 ****       265.5000 348.0000 -55.7500 Du        
   4076 ****       265.5000 348.2500 -56.5000 Du        
   4077 ****       265.5000 348.2500 -56.2500 Du        
   4078 ****       265.5000 348.2500 -56.0000 Du        
   4079 ****       265.5000 348.2500 -55.7500 Du        
   4080 ****       265.5000 348.5000 -62.2500 Du        
   4081 ****       265.5000 348.5000 -62.0000 Du        
   4082 ****       265.5000 348.5000 -61.7500 Du        
   4083 ****       265.5000 348.5000 -56.5000 Du        
   4084 ****       265.5000 348.5000 -56.2500 Du        
   4085 ****       265.5000 348.5000 -56.0000 Du        
   4086 ****       265.5000 348.5000 -55.7500 Du        
   4087 ****       265.5000 348.7500 -62.5000 Du        
   4088 ****       265.5000 348.7500 -62.2500 Du        
   4089 ****       265.5000 348.7500 -62.0000 Du        
   4090 ****       265.5000 348.7500 -61.7500 Du        
   4091 ****       265.5000 348.7500 -61.5000 Du        
   4092 ****       265.5000 348.7500 -56.2500 Du        
   4093 ****       265.5000 348.7500 -56.0000 Du        
   4094 ****       265.5000 348.7500 -55.7500 Du        
   4095 ****       265.5000 348.7500 -55.5000 Du        
   4096 ****       265.5000 349.0000 -62.7500 Du        
   4097 ****       265.5000 349.0000 -62.5000 Du        
   4098 ****       265.5000 349.0000 -62.2500 Du        
   4099 ****       265.5000 349.0000 -62.0000 Du        
   4100 ****       265.5000 349.0000 -61.7500 Du        
   4101 ****       265.5000 349.0000 -61.5000 Du        
   4102 ****       265.5000 349.0000 -61.2500 Du        
   4103 ****       265.5000 349.0000 -55.7500 Du        
   4104 ****       265.5000 349.2500 -62.7500 Du        
   4105 ****       265.5000 349.2500 -62.5000 Du        
   4106 ****       265.5000 349.2500 -62.2500 Du        
   4107 ****       265.5000 349.2500 -62.0000 Du        
   4108 ****       265.5000 349.2500 -61.7500 Du        
   4109 ****       265.5000 349.2500 -61.5000 Du        
   4110 ****       265.5000 349.2500 -61.2500 Du        
   4111 ****       265.5000 349.2500 -61.0000 Du        
   4112 ****       265.5000 349.5000 -62.7500 Du        
   4113 ****       265.5000 349.5000 -62.5000 Du        
   4114 ****       265.5000 349.5000 -62.2500 Du        
   4115 ****       265.5000 349.5000 -62.0000 Du        
   4116 ****       265.5000 349.5000 -61.7500 Du        
   4117 ****       265.5000 349.5000 -61.5000 Du        
   4118 ****       265.5000 349.5000 -61.2500 Du        
   4119 ****       265.5000 349.7500 -63.0000 Du        
   4120 ****       265.5000 349.7500 -62.7500 Du        
   4121 ****       265.5000 349.7500 -62.5000 Du        
   4122 ****       265.5000 349.7500 -62.2500 Du        
   4123 ****       265.5000 349.7500 -62.0000 Du        
   4124 ****       265.5000 349.7500 -61.7500 Du        
   4125 ****       265.5000 349.7500 -61.5000 Du        
   4126 ****       265.5000 349.7500 -61.2500 Du        
   4127 ****       265.5000 349.7500 -61.0000 Du        
   4128 ****       265.5000 350.0000 -63.0000 Du        
   4129 ****       265.5000 350.0000 -62.7500 Du        
   4130 ****       265.5000 350.0000 -62.5000 Du        
   4131 ****       265.5000 350.0000 -62.2500 Du        
   4132 ****       265.5000 350.0000 -62.0000 Du        
   4133 ****       265.5000 350.0000 -61.7500 Du        
   4134 ****       265.5000 350.0000 -61.5000 Du        
   4135 ****       265.5000 350.0000 -61.2500 Du        
   4136 ****       265.5000 350.0000 -61.0000 Du        
   4137 ****       265.5000 350.0000 -60.7500 Du        
   4138 ****       265.5000 350.2500 -63.2500 Du        
   4139 ****       265.5000 350.2500 -63.0000 Du        
   4140 ****       265.5000 350.2500 -62.7500 Du        
   4141 ****       265.5000 350.2500 -62.5000 Du        
   4142 ****       265.5000 350.2500 -62.2500 Du        
   4143 ****       265.5000 350.2500 -62.0000 Du        
   4144 ****       265.5000 350.2500 -61.7500 Du        
   4145 ****       265.5000 350.2500 -61.5000 Du        
   4146 ****       265.5000 350.2500 -61.2500 Du        
   4147 ****       265.5000 350.2500 -61.0000 Du        
   4148 ****       265.5000 350.5000 -63.2500 Du        
   4149 ****       265.5000 350.5000 -63.0000 Du        
   4150 ****       265.5000 350.5000 -62.7500 Du        
   4151 ****       265.5000 350.5000 -62.5000 Du        
   4152 ****       265.5000 350.5000 -62.2500 Du        
   4153 ****       265.5000 350.5000 -62.0000 Du        
   4154 ****       265.5000 350.5000 -61.7500 Du        
   4155 ****       265.5000 350.7500 -63.0000 Du        
   4156 ****       265.5000 350.7500 -62.7500 Du        
   4157 ****       265.5000 350.7500 -62.5000 Du        
   4158 ****       265.5000 350.7500 -62.2500 Du        
   4159 ****       265.5000 350.7500 -62.0000 Du        
   4160 ****       265.7500 345.2500 -57.5000 Du        
   4161 ****       265.7500 345.2500 -57.2500 Du        
   4162 ****       265.7500 345.2500 -57.0000 Du        
   4163 ****       265.7500 345.2500 -56.7500 Du        
   4164 ****       265.7500 345.2500 -56.5000 Du        
   4165 ****       265.7500 345.5000 -57.5000 Du        
   4166 ****       265.7500 345.5000 -57.2500 Du        
   4167 ****       265.7500 345.5000 -57.0000 Du        
   4168 ****       265.7500 345.5000 -56.7500 Du        
   4169 ****       265.7500 345.5000 -56.5000 Du        
   4170 ****       265.7500 345.5000 -56.2500 Du        
   4171 ****       265.7500 345.7500 -57.5000 Du        
   4172 ****       265.7500 345.7500 -57.2500 Du        
   4173 ****       265.7500 345.7500 -57.0000 Du        
   4174 ****       265.7500 345.7500 -56.7500 Du        
   4175 ****       265.7500 345.7500 -56.5000 Du        
   4176 ****       265.7500 345.7500 -56.2500 Du        
   4177 ****       265.7500 345.7500 -56.0000 Du        
   4178 ****       265.7500 346.0000 -57.2500 Du        
   4179 ****       265.7500 346.0000 -57.0000 Du        
   4180 ****       265.7500 346.0000 -56.7500 Du        
   4181 ****       265.7500 346.0000 -56.5000 Du        
   4182 ****       265.7500 346.0000 -56.2500 Du        
   4183 ****       265.7500 346.0000 -56.0000 Du        
   4184 ****       265.7500 346.0000 -55.7500 Du        
   4185 ****       265.7500 346.2500 -57.2500 Du        
   4186 ****       265.7500 346.2500 -57.0000 Du        
   4187 ****       265.7500 346.2500 -56.7500 Du        
   4188 ****       265.7500 346.2500 -56.5000 Du        
   4189 ****       265.7500 346.2500 -56.2500 Du        
   4190 ****       265.7500 346.2500 -56.0000 Du        
   4191 ****       265.7500 346.2500 -55.7500 Du        
   4192 ****       265.7500 346.2500 -55.5000 Du        
   4193 ****       265.7500 346.5000 -57.0000 Du        
   4194 ****       265.7500 346.5000 -56.7500 Du        
   4195 ****       265.7500 346.5000 -56.5000 Du        
   4196 ****       265.7500 346.5000 -56.2500 Du        
   4197 ****       265.7500 346.5000 -56.0000 Du        
   4198 ****       265.7500 346.5000 -55.7500 Du        
   4199 ****       265.7500 346.5000 -55.5000 Du        
   4200 ****       265.7500 346.7500 -57.0000 Du        
   4201 ****       265.7500 346.7500 -56.7500 Du        
   4202 ****       265.7500 346.7500 -56.5000 Du        
   4203 ****       265.7500 346.7500 -56.2500 Du        
   4204 ****       265.7500 346.7500 -56.0000 Du        
   4205 ****       265.7500 346.7500 -55.7500 Du        
   4206 ****       265.7500 346.7500 -55.5000 Du        
   4207 ****       265.7500 347.0000 -57.0000 Du        
   4208 ****       265.7500 347.0000 -56.7500 Du        
   4209 ****       265.7500 347.0000 -56.5000 Du        
   4210 ****       265.7500 347.0000 -56.2500 Du        
   4211 ****       265.7500 347.0000 -56.0000 Du        
   4212 ****       265.7500 347.0000 -55.7500 Du        
   4213 ****       265.7500 347.0000 -55.5000 Du        
   4214 ****       265.7500 347.2500 -56.7500 Du        
   4215 ****       265.7500 347.2500 -56.5000 Du        
   4216 ****       265.7500 347.2500 -56.2500 Du        
   4217 ****       265.7500 347.2500 -56.0000 Du        
   4218 ****       265.7500 347.2500 -55.7500 Du        
   4219 ****       265.7500 347.5000 -56.5000 Du        
   4220 ****       265.7500 347.5000 -56.2500 Du        
   4221 ****       265.7500 347.5000 -56.0000 Du        
   4222 ****       265.7500 347.5000 -55.7500 Du        
   4223 ****       265.7500 347.7500 -56.5000 Du        
   4224 ****       265.7500 347.7500 -56.2500 Du        
   4225 ****       265.7500 347.7500 -56.0000 Du        
   4226 ****       265.7500 347.7500 -55.7500 Du        
   4227 ****       265.7500 348.0000 -56.7500 Du        
   4228 ****       265.7500 348.0000 -56.5000 Du        
   4229 ****       265.7500 348.0000 -56.2500 Du        
   4230 ****       265.7500 348.0000 -56.0000 Du        
   4231 ****       265.7500 348.0000 -55.7500 Du        
   4232 ****       265.7500 348.2500 -56.5000 Du        
   4233 ****       265.7500 348.2500 -56.2500 Du        
   4234 ****       265.7500 348.2500 -56.0000 Du        
   4235 ****       265.7500 348.5000 -62.2500 Du        
   4236 ****       265.7500 348.5000 -62.0000 Du        
   4237 ****       265.7500 348.5000 -61.7500 Du        
   4238 ****       265.7500 348.5000 -56.2500 Du        
   4239 ****       265.7500 348.5000 -56.0000 Du        
   4240 ****       265.7500 348.7500 -62.7500 Du        
   4241 ****       265.7500 348.7500 -62.5000 Du        
   4242 ****       265.7500 348.7500 -62.2500 Du        
   4243 ****       265.7500 348.7500 -62.0000 Du        
   4244 ****       265.7500 348.7500 -61.7500 Du        
   4245 ****       265.7500 348.7500 -61.5000 Du        
   4246 ****       265.7500 348.7500 -61.2500 Du        
   4247 ****       265.7500 348.7500 -56.0000 Du        
   4248 ****       265.7500 348.7500 -55.7500 Du        
   4249 ****       265.7500 349.0000 -62.7500 Du        
   4250 ****       265.7500 349.0000 -62.5000 Du        
   4251 ****       265.7500 349.0000 -62.2500 Du        
   4252 ****       265.7500 349.0000 -62.0000 Du        
   4253 ****       265.7500 349.0000 -61.7500 Du        
   4254 ****       265.7500 349.0000 -61.5000 Du        
   4255 ****       265.7500 349.0000 -61.2500 Du        
   4256 ****       265.7500 349.0000 -61.0000 Du        
   4257 ****       265.7500 349.2500 -63.0000 Du        
   4258 ****       265.7500 349.2500 -62.7500 Du        
   4259 ****       265.7500 349.2500 -62.5000 Du        
   4260 ****       265.7500 349.2500 -62.2500 Du        
   4261 ****       265.7500 349.2500 -62.0000 Du        
   4262 ****       265.7500 349.2500 -61.7500 Du        
   4263 ****       265.7500 349.2500 -61.5000 Du        
   4264 ****       265.7500 349.2500 -61.2500 Du        
   4265 ****       265.7500 349.2500 -61.0000 Du        
   4266 ****       265.7500 349.5000 -63.0000 Du        
   4267 ****       265.7500 349.5000 -62.7500 Du        
   4268 ****       265.7500 349.5000 -62.5000 Du        
   4269 ****       265.7500 349.5000 -62.2500 Du        
   4270 ****       265.7500 349.5000 -62.0000 Du        
   4271 ****       265.7500 349.5000 -61.7500 Du        
   4272 ****       265.7500 349.5000 -61.5000 Du        
   4273 ****       265.7500 349.5000 -61.2500 Du        
   4274 ****       265.7500 349.7500 -63.2500 Du        
   4275 ****       265.7500 349.7500 -63.0000 Du        
   4276 ****       265.7500 349.7500 -62.7500 Du        
   4277 ****       265.7500 349.7500 -62.5000 Du        
   4278 ****       265.7500 349.7500 -62.2500 Du        
   4279 ****       265.7500 349.7500 -62.0000 Du        
   4280 ****       265.7500 349.7500 -61.7500 Du        
   4281 ****       265.7500 349.7500 -61.5000 Du        
   4282 ****       265.7500 349.7500 -61.2500 Du        
   4283 ****       265.7500 349.7500 -61.0000 Du        
   4284 ****       265.7500 350.0000 -63.2500 Du        
   4285 ****       265.7500 350.0000 -63.0000 Du        
   4286 ****       265.7500 350.0000 -62.7500 Du        
   4287 ****       265.7500 350.0000 -62.5000 Du        
   4288 ****       265.7500 350.0000 -62.2500 Du        
   4289 ****       265.7500 350.0000 -62.0000 Du        
   4290 ****       265.7500 350.0000 -61.7500 Du        
   4291 ****       265.7500 350.0000 -61.5000 Du        
   4292 ****       265.7500 350.0000 -61.2500 Du        
   4293 ****       265.7500 350.0000 -61.0000 Du        
   4294 ****       265.7500 350.0000 -60.7500 Du        
   4295 ****       265.7500 350.2500 -63.2500 Du        
   4296 ****       265.7500 350.2500 -63.0000 Du        
   4297 ****       265.7500 350.2500 -62.7500 Du        
   4298 ****       265.7500 350.2500 -62.5000 Du        
   4299 ****       265.7500 350.2500 -62.2500 Du        
   4300 ****       265.7500 350.2500 -62.0000 Du        
   4301 ****       265.7500 350.2500 -61.7500 Du        
   4302 ****       265.7500 350.2500 -61.5000 Du        
   4303 ****       265.7500 350.2500 -61.2500 Du        
   4304 ****       265.7500 350.2500 -61.0000 Du        
   4305 ****       265.7500 350.2500 -60.7500 Du        
   4306 ****       265.7500 350.5000 -63.2500 Du        
   4307 ****       265.7500 350.5000 -63.0000 Du        
   4308 ****       265.7500 350.5000 -62.7500 Du        
   4309 ****       265.7500 350.5000 -62.5000 Du        
   4310 ****       265.7500 350.5000 -62.2500 Du        
   4311 ****       265.7500 350.5000 -62.0000 Du        
   4312 ****       265.7500 350.5000 -61.7500 Du        
   4313 ****       265.7500 350.7500 -63.2500 Du        
   4314 ****       265.7500 350.7500 -63.0000 Du        
   4315 ****       265.7500 350.7500 -62.7500 Du        
   4316 ****       265.7500 350.7500 -62.5000 Du        
   4317 ****       265.7500 350.7500 -62.2500 Du        
   4318 ****       265.7500 350.7500 -62.0000 Du        
   4319 ****       265.7500 350.7500 -61.7500 Du        
   4320 ****       266.0000 345.2500 -57.7500 Du        
   4321 ****       266.0000 345.2500 -57.5000 Du        
   4322 ****       266.0000 345.2500 -57.2500 Du        
   4323 ****       266.0000 345.2500 -57.0000 Du        
   4324 ****       266.0000 345.2500 -56.7500 Du        
   4325 ****       266.0000 345.2500 -56.5000 Du        
   4326 ****       266.0000 345.5000 -57.7500 Du        
   4327 ****       266.0000 345.5000 -57.5000 Du        
   4328 ****       266.0000 345.5000 -57.2500 Du        
   4329 ****       266.0000 345.5000 -57.0000 Du        
   4330 ****       266.0000 345.5000 -56.7500 Du        
   4331 ****       266.0000 345.5000 -56.5000 Du        
   4332 ****       266.0000 345.5000 -56.2500 Du        
   4333 ****       266.0000 345.5000 -56.0000 Du        
   4334 ****       266.0000 345.7500 -57.7500 Du        
   4335 ****       266.0000 345.7500 -57.5000 Du        
   4336 ****       266.0000 345.7500 -57.2500 Du        
   4337 ****       266.0000 345.7500 -57.0000 Du        
   4338 ****       266.0000 345.7500 -56.7500 Du        
   4339 ****       266.0000 345.7500 -56.5000 Du        
   4340 ****       266.0000 345.7500 -56.2500 Du        
   4341 ****       266.0000 345.7500 -56.0000 Du        
   4342 ****       266.0000 345.7500 -55.7500 Du        
   4343 ****       266.0000 346.0000 -57.5000 Du        
   4344 ****       266.0000 346.0000 -57.2500 Du        
   4345 ****       266.0000 346.0000 -57.0000 Du        
   4346 ****       266.0000 346.0000 -56.7500 Du        
   4347 ****       266.0000 346.0000 -56.5000 Du        
   4348 ****       266.0000 346.0000 -56.2500 Du        
   4349 ****       266.0000 346.0000 -56.0000 Du        
   4350 ****       266.0000 346.0000 -55.7500 Du        
   4351 ****       266.0000 346.2500 -57.5000 Du        
   4352 ****       266.0000 346.2500 -57.2500 Du        
   4353 ****       266.0000 346.2500 -57.0000 Du        
   4354 ****       266.0000 346.2500 -56.7500 Du        
   4355 ****       266.0000 346.2500 -56.5000 Du        
   4356 ****       266.0000 346.2500 -56.2500 Du        
   4357 ****       266.0000 346.2500 -56.0000 Du        
   4358 ****       266.0000 346.2500 -55.7500 Du        
   4359 ****       266.0000 346.2500 -55.5000 Du        
   4360 ****       266.0000 346.5000 -57.2500 Du        
   4361 ****       266.0000 346.5000 -57.0000 Du        
   4362 ****       266.0000 346.5000 -56.7500 Du        
   4363 ****       266.0000 346.5000 -56.5000 Du        
   4364 ****       266.0000 346.5000 -56.2500 Du        
   4365 ****       266.0000 346.5000 -56.0000 Du        
   4366 ****       266.0000 346.5000 -55.7500 Du        
   4367 ****       266.0000 346.5000 -55.5000 Du        
   4368 ****       266.0000 346.7500 -57.0000 Du        
   4369 ****       266.0000 346.7500 -56.7500 Du        
   4370 ****       266.0000 346.7500 -56.5000 Du        
   4371 ****       266.0000 346.7500 -56.2500 Du        
   4372 ****       266.0000 346.7500 -56.0000 Du        
   4373 ****       266.0000 346.7500 -55.7500 Du        
   4374 ****       266.0000 347.0000 -57.0000 Du        
   4375 ****       266.0000 347.0000 -56.7500 Du        
   4376 ****       266.0000 347.0000 -56.5000 Du        
   4377 ****       266.0000 347.0000 -56.2500 Du        
   4378 ****       266.0000 347.0000 -56.0000 Du        
   4379 ****       266.0000 347.0000 -55.7500 Du        
   4380 ****       266.0000 347.2500 -57.0000 Du        
   4381 ****       266.0000 347.2500 -56.7500 Du        
   4382 ****       266.0000 347.2500 -56.5000 Du        
   4383 ****       266.0000 347.2500 -56.2500 Du        
   4384 ****       266.0000 347.2500 -56.0000 Du        
   4385 ****       266.0000 347.5000 -56.7500 Du        
   4386 ****       266.0000 347.5000 -56.5000 Du        
   4387 ****       266.0000 347.5000 -56.2500 Du        
   4388 ****       266.0000 347.5000 -56.0000 Du        
   4389 ****       266.0000 347.7500 -56.5000 Du        
   4390 ****       266.0000 347.7500 -56.2500 Du        
   4391 ****       266.0000 347.7500 -56.0000 Du        
   4392 ****       266.0000 348.0000 -56.7500 Du        
   4393 ****       266.0000 348.0000 -56.5000 Du        
   4394 ****       266.0000 348.0000 -56.2500 Du        
   4395 ****       266.0000 348.0000 -56.0000 Du        
   4396 ****       266.0000 348.2500 -56.5000 Du        
   4397 ****       266.0000 348.2500 -56.2500 Du        
   4398 ****       266.0000 348.2500 -56.0000 Du        
   4399 ****       266.0000 348.5000 -62.5000 Du        
   4400 ****       266.0000 348.5000 -62.2500 Du        
   4401 ****       266.0000 348.5000 -62.0000 Du        
   4402 ****       266.0000 348.5000 -61.7500 Du        
   4403 ****       266.0000 348.7500 -62.7500 Du        
   4404 ****       266.0000 348.7500 -62.5000 Du        
   4405 ****       266.0000 348.7500 -62.2500 Du        
   4406 ****       266.0000 348.7500 -62.0000 Du        
   4407 ****       266.0000 348.7500 -61.7500 Du        
   4408 ****       266.0000 348.7500 -61.5000 Du        
   4409 ****       266.0000 348.7500 -56.0000 Du        
   4410 ****       266.0000 349.0000 -63.0000 Du        
   4411 ****       266.0000 349.0000 -62.7500 Du        
   4412 ****       266.0000 349.0000 -62.5000 Du        
   4413 ****       266.0000 349.0000 -62.2500 Du        
   4414 ****       266.0000 349.0000 -62.0000 Du        
   4415 ****       266.0000 349.0000 -61.7500 Du        
   4416 ****       266.0000 349.0000 -61.5000 Du        
   4417 ****       266.0000 349.0000 -61.2500 Du        
   4418 ****       266.0000 349.0000 -61.0000 Du        
   4419 ****       266.0000 349.2500 -63.0000 Du        
   4420 ****       266.0000 349.2500 -62.7500 Du        
   4421 ****       266.0000 349.2500 -62.5000 Du        
   4422 ****       266.0000 349.2500 -62.2500 Du        
   4423 ****       266.0000 349.2500 -62.0000 Du        
   4424 ****       266.0000 349.2500 -61.7500 Du        
   4425 ****       266.0000 349.2500 -61.5000 Du        
   4426 ****       266.0000 349.2500 -61.2500 Du        
   4427 ****       266.0000 349.5000 -63.0000 Du        
   4428 ****       266.0000 349.5000 -62.7500 Du        
   4429 ****       266.0000 349.5000 -62.5000 Du        
   4430 ****       266.0000 349.5000 -62.2500 Du        
   4431 ****       266.0000 349.5000 -62.0000 Du        
   4432 ****       266.0000 349.5000 -61.7500 Du        
   4433 ****       266.0000 349.5000 -61.5000 Du        
   4434 ****       266.0000 349.7500 -63.2500 Du        
   4435 ****       266.0000 349.7500 -63.0000 Du        
   4436 ****       266.0000 349.7500 -62.7500 Du        
   4437 ****       266.0000 349.7500 -62.5000 Du        
   4438 ****       266.0000 349.7500 -62.2500 Du        
   4439 ****       266.0000 349.7500 -62.0000 Du        
   4440 ****       266.0000 349.7500 -61.7500 Du        
   4441 ****       266.0000 349.7500 -61.5000 Du        
   4442 ****       266.0000 349.7500 -61.2500 Du        
   4443 ****       266.0000 349.7500 -61.0000 Du        
   4444 ****       266.0000 350.0000 -63.2500 Du        
   4445 ****       266.0000 350.0000 -63.0000 Du        
   4446 ****       266.0000 350.0000 -62.7500 Du        
   4447 ****       266.0000 350.0000 -62.5000 Du        
   4448 ****       266.0000 350.0000 -62.2500 Du        
   4449 ****       266.0000 350.0000 -62.0000 Du        
   4450 ****       266.0000 350.0000 -61.7500 Du        
   4451 ****       266.0000 350.0000 -61.5000 Du        
   4452 ****       266.0000 350.0000 -61.2500 Du        
   4453 ****       266.0000 350.0000 -61.0000 Du        
   4454 ****       266.0000 350.2500 -63.5000 Du        
   4455 ****       266.0000 350.2500 -63.2500 Du        
   4456 ****       266.0000 350.2500 -63.0000 Du        
   4457 ****       266.0000 350.2500 -62.7500 Du        
   4458 ****       266.0000 350.2500 -62.5000 Du        
   4459 ****       266.0000 350.2500 -62.2500 Du        
   4460 ****       266.0000 350.2500 -62.0000 Du        
   4461 ****       266.0000 350.2500 -61.7500 Du        
   4462 ****       266.0000 350.2500 -61.5000 Du        
   4463 ****       266.0000 350.2500 -61.2500 Du        
   4464 ****       266.0000 350.2500 -61.0000 Du        
   4465 ****       266.0000 350.2500 -60.7500 Du        
   4466 ****       266.0000 350.5000 -63.5000 Du        
   4467 ****       266.0000 350.5000 -63.2500 Du        
   4468 ****       266.0000 350.5000 -63.0000 Du        
   4469 ****       266.0000 350.5000 -62.7500 Du        
   4470 ****       266.0000 350.5000 -62.5000 Du        
   4471 ****       266.0000 350.5000 -62.2500 Du        
   4472 ****       266.0000 350.5000 -62.0000 Du        
   4473 ****       266.0000 350.5000 -61.7500 Du        
   4474 ****       266.0000 350.5000 -61.5000 Du        
   4475 ****       266.0000 350.5000 -61.2500 Du        
   4476 ****       266.0000 350.5000 -61.0000 Du        
   4477 ****       266.0000 350.5000 -60.7500 Du        
   4478 ****       266.0000 350.7500 -63.2500 Du        
   4479 ****       266.0000 350.7500 -63.0000 Du        
   4480 ****       266.0000 350.7500 -62.7500 Du        
   4481 ****       266.0000 350.7500 -62.5000 Du        
   4482 ****       266.0000 350.7500 -62.2500 Du        
   4483 ****       266.0000 350.7500 -62.0000 Du        
   4484 ****       266.0000 350.7500 -61.7500 Du        
   4485 ****       266.0000 350.7500 -61.5000 Du        
   4486 ****       266.0000 350.7500 -61.2500 Du        
   4487 ****       266.0000 351.0000 -63.0000 Du        
   4488 ****       266.0000 351.0000 -62.7500 Du        
   4489 ****       266.0000 351.0000 -62.5000 Du        
   4490 ****       266.0000 351.0000 -62.2500 Du        
   4491 ****       266.0000 351.0000 -62.0000 Du        
   4492 ****       266.2500 345.2500 -57.7500 Du        
   4493 ****       266.2500 345.2500 -57.5000 Du        
   4494 ****       266.2500 345.2500 -57.2500 Du        
   4495 ****       266.2500 345.2500 -57.0000 Du        
   4496 ****       266.2500 345.2500 -56.7500 Du        
   4497 ****       266.2500 345.2500 -56.5000 Du        
   4498 ****       266.2500 345.2500 -56.2500 Du        
   4499 ****       266.2500 345.5000 -58.0000 Du        
   4500 ****       266.2500 345.5000 -57.7500 Du        
   4501 ****       266.2500 345.5000 -57.5000 Du        
   4502 ****       266.2500 345.5000 -57.2500 Du        
   4503 ****       266.2500 345.5000 -57.0000 Du        
   4504 ****       266.2500 345.5000 -56.7500 Du        
   4505 ****       266.2500 345.5000 -56.5000 Du        
   4506 ****       266.2500 345.5000 -56.2500 Du        
   4507 ****       266.2500 345.5000 -56.0000 Du        
   4508 ****       266.2500 345.7500 -58.0000 Du        
   4509 ****       266.2500 345.7500 -57.7500 Du        
   4510 ****       266.2500 345.7500 -57.5000 Du        
   4511 ****       266.2500 345.7500 -57.2500 Du        
   4512 ****       266.2500 345.7500 -57.0000 Du        
   4513 ****       266.2500 345.7500 -56.7500 Du        
   4514 ****       266.2500 345.7500 -56.5000 Du        
   4515 ****       266.2500 345.7500 -56.2500 Du        
   4516 ****       266.2500 345.7500 -56.0000 Du        
   4517 ****       266.2500 345.7500 -55.7500 Du        
   4518 ****       266.2500 346.0000 -57.7500 Du        
   4519 ****       266.2500 346.0000 -57.5000 Du        
   4520 ****       266.2500 346.0000 -57.2500 Du        
   4521 ****       266.2500 346.0000 -57.0000 Du        
   4522 ****       266.2500 346.0000 -56.7500 Du        
   4523 ****       266.2500 346.0000 -56.5000 Du        
   4524 ****       266.2500 346.0000 -56.2500 Du        
   4525 ****       266.2500 346.0000 -56.0000 Du        
   4526 ****       266.2500 346.0000 -55.7500 Du        
   4527 ****       266.2500 346.2500 -57.5000 Du        
   4528 ****       266.2500 346.2500 -57.2500 Du        
   4529 ****       266.2500 346.2500 -57.0000 Du        
   4530 ****       266.2500 346.2500 -56.7500 Du        
   4531 ****       266.2500 346.2500 -56.5000 Du        
   4532 ****       266.2500 346.2500 -56.2500 Du        
   4533 ****       266.2500 346.2500 -56.0000 Du        
   4534 ****       266.2500 346.2500 -55.7500 Du        
   4535 ****       266.2500 346.5000 -57.2500 Du        
   4536 ****       266.2500 346.5000 -57.0000 Du        
   4537 ****       266.2500 346.5000 -56.7500 Du        
   4538 ****       266.2500 346.5000 -56.5000 Du        
   4539 ****       266.2500 346.5000 -56.2500 Du        
   4540 ****       266.2500 346.5000 -56.0000 Du        
   4541 ****       266.2500 346.5000 -55.7500 Du        
   4542 ****       266.2500 346.7500 -57.0000 Du        
   4543 ****       266.2500 346.7500 -56.7500 Du        
   4544 ****       266.2500 346.7500 -56.5000 Du        
   4545 ****       266.2500 346.7500 -56.2500 Du        
   4546 ****       266.2500 346.7500 -56.0000 Du        
   4547 ****       266.2500 347.0000 -57.0000 Du        
   4548 ****       266.2500 347.0000 -56.7500 Du        
   4549 ****       266.2500 347.0000 -56.5000 Du        
   4550 ****       266.2500 347.0000 -56.2500 Du        
   4551 ****       266.2500 347.0000 -56.0000 Du        
   4552 ****       266.2500 347.2500 -56.7500 Du        
   4553 ****       266.2500 347.2500 -56.5000 Du        
   4554 ****       266.2500 347.2500 -56.2500 Du        
   4555 ****       266.2500 347.2500 -56.0000 Du        
   4556 ****       266.2500 347.5000 -56.5000 Du        
   4557 ****       266.2500 347.5000 -56.2500 Du        
   4558 ****       266.2500 347.7500 -56.5000 Du        
   4559 ****       266.2500 347.7500 -56.2500 Du        
   4560 ****       266.2500 348.0000 -56.5000 Du        
   4561 ****       266.2500 348.0000 -56.2500 Du        
   4562 ****       266.2500 348.2500 -56.2500 Du        
   4563 ****       266.2500 348.5000 -62.2500 Du        
   4564 ****       266.2500 348.7500 -62.7500 Du        
   4565 ****       266.2500 348.7500 -62.5000 Du        
   4566 ****       266.2500 348.7500 -62.2500 Du        
   4567 ****       266.2500 348.7500 -62.0000 Du        
   4568 ****       266.2500 348.7500 -61.7500 Du        
   4569 ****       266.2500 349.0000 -62.7500 Du        
   4570 ****       266.2500 349.0000 -62.5000 Du        
   4571 ****       266.2500 349.0000 -62.2500 Du        
   4572 ****       266.2500 349.0000 -62.0000 Du        
   4573 ****       266.2500 349.0000 -61.7500 Du        
   4574 ****       266.2500 349.0000 -61.5000 Du        
   4575 ****       266.2500 349.2500 -63.0000 Du        
   4576 ****       266.2500 349.2500 -62.7500 Du        
   4577 ****       266.2500 349.2500 -62.5000 Du        
   4578 ****       266.2500 349.2500 -62.2500 Du        
   4579 ****       266.2500 349.2500 -62.0000 Du        
   4580 ****       266.2500 349.2500 -61.7500 Du        
   4581 ****       266.2500 349.5000 -63.0000 Du        
   4582 ****       266.2500 349.5000 -62.7500 Du        
   4583 ****       266.2500 349.5000 -62.5000 Du        
   4584 ****       266.2500 349.5000 -62.2500 Du        
   4585 ****       266.2500 349.5000 -62.0000 Du        
   4586 ****       266.2500 349.5000 -61.7500 Du        
   4587 ****       266.2500 349.5000 -61.5000 Du        
   4588 ****       266.2500 349.7500 -63.2500 Du        
   4589 ****       266.2500 349.7500 -63.0000 Du        
   4590 ****       266.2500 349.7500 -62.7500 Du        
   4591 ****       266.2500 349.7500 -62.5000 Du        
   4592 ****       266.2500 349.7500 -62.2500 Du        
   4593 ****       266.2500 349.7500 -62.0000 Du        
   4594 ****       266.2500 349.7500 -61.7500 Du        
   4595 ****       266.2500 349.7500 -61.5000 Du        
   4596 ****       266.2500 349.7500 -61.2500 Du        
   4597 ****       266.2500 350.0000 -63.2500 Du        
   4598 ****       266.2500 350.0000 -63.0000 Du        
   4599 ****       266.2500 350.0000 -62.7500 Du        
   4600 ****       266.2500 350.0000 -62.5000 Du        
   4601 ****       266.2500 350.0000 -62.2500 Du        
   4602 ****       266.2500 350.0000 -62.0000 Du        
   4603 ****       266.2500 350.0000 -61.7500 Du        
   4604 ****       266.2500 350.0000 -61.5000 Du        
   4605 ****       266.2500 350.0000 -61.2500 Du        
   4606 ****       266.2500 350.0000 -61.0000 Du        
   4607 ****       266.2500 350.0000 -60.7500 Du        
   4608 ****       266.2500 350.2500 -63.5000 Du        
   4609 ****       266.2500 350.2500 -63.2500 Du        
   4610 ****       266.2500 350.2500 -63.0000 Du        
   4611 ****       266.2500 350.2500 -62.7500 Du        
   4612 ****       266.2500 350.2500 -62.5000 Du        
   4613 ****       266.2500 350.2500 -62.2500 Du        
   4614 ****       266.2500 350.2500 -62.0000 Du        
   4615 ****       266.2500 350.2500 -61.7500 Du        
   4616 ****       266.2500 350.2500 -61.5000 Du        
   4617 ****       266.2500 350.2500 -61.2500 Du        
   4618 ****       266.2500 350.2500 -61.0000 Du        
   4619 ****       266.2500 350.2500 -60.7500 Du        
   4620 ****       266.2500 350.5000 -63.5000 Du        
   4621 ****       266.2500 350.5000 -63.2500 Du        
   4622 ****       266.2500 350.5000 -63.0000 Du        
   4623 ****       266.2500 350.5000 -62.7500 Du        
   4624 ****       266.2500 350.5000 -62.5000 Du        
   4625 ****       266.2500 350.5000 -62.2500 Du        
   4626 ****       266.2500 350.5000 -62.0000 Du        
   4627 ****       266.2500 350.5000 -61.7500 Du        
   4628 ****       266.2500 350.5000 -61.5000 Du        
   4629 ****       266.2500 350.5000 -61.2500 Du        
   4630 ****       266.2500 350.5000 -61.0000 Du        
   4631 ****       266.2500 350.5000 -60.7500 Du        
   4632 ****       266.2500 350.7500 -63.5000 Du        
   4633 ****       266.2500 350.7500 -63.2500 Du        
   4634 ****       266.2500 350.7500 -63.0000 Du        
   4635 ****       266.2500 350.7500 -62.7500 Du        
   4636 ****       266.2500 350.7500 -62.5000 Du        
   4637 ****       266.2500 350.7500 -62.2500 Du        
   4638 ****       266.2500 350.7500 -62.0000 Du        
   4639 ****       266.2500 350.7500 -61.7500 Du        
   4640 ****       266.2500 350.7500 -61.5000 Du        
   4641 ****       266.2500 350.7500 -61.2500 Du        
   4642 ****       266.2500 350.7500 -61.0000 Du        
   4643 ****       266.2500 350.7500 -60.7500 Du        
   4644 ****       266.2500 351.0000 -63.2500 Du        
   4645 ****       266.2500 351.0000 -63.0000 Du        
   4646 ****       266.2500 351.0000 -62.7500 Du        
   4647 ****       266.2500 351.0000 -62.5000 Du        
   4648 ****       266.2500 351.0000 -62.2500 Du        
   4649 ****       266.2500 351.0000 -62.0000 Du        
   4650 ****       266.2500 351.0000 -61.7500 Du        
   4651 ****       266.2500 351.0000 -61.2500 Du        
   4652 ****       266.2500 351.0000 -61.0000 Du        
   4653 ****       266.5000 345.2500 -57.7500 Du        
   4654 ****       266.5000 345.2500 -57.5000 Du        
   4655 ****       266.5000 345.2500 -57.2500 Du        
   4656 ****       266.5000 345.2500 -57.0000 Du        
   4657 ****       266.5000 345.2500 -56.7500 Du        
   4658 ****       266.5000 345.2500 -56.5000 Du        
   4659 ****       266.5000 345.2500 -56.2500 Du        
   4660 ****       266.5000 345.5000 -58.0000 Du        
   4661 ****       266.5000 345.5000 -57.7500 Du        
   4662 ****       266.5000 345.5000 -57.5000 Du        
   4663 ****       266.5000 345.5000 -57.2500 Du        
   4664 ****       266.5000 345.5000 -57.0000 Du        
   4665 ****       266.5000 345.5000 -56.7500 Du        
   4666 ****       266.5000 345.5000 -56.5000 Du        
   4667 ****       266.5000 345.5000 -56.2500 Du        
   4668 ****       266.5000 345.5000 -56.0000 Du        
   4669 ****       266.5000 345.7500 -58.0000 Du        
   4670 ****       266.5000 345.7500 -57.7500 Du        
   4671 ****       266.5000 345.7500 -57.5000 Du        
   4672 ****       266.5000 345.7500 -57.2500 Du        
   4673 ****       266.5000 345.7500 -57.0000 Du        
   4674 ****       266.5000 345.7500 -56.7500 Du        
   4675 ****       266.5000 345.7500 -56.5000 Du        
   4676 ****       266.5000 345.7500 -56.2500 Du        
   4677 ****       266.5000 345.7500 -56.0000 Du        
   4678 ****       266.5000 345.7500 -55.7500 Du        
   4679 ****       266.5000 346.0000 -58.0000 Du        
   4680 ****       266.5000 346.0000 -57.7500 Du        
   4681 ****       266.5000 346.0000 -57.5000 Du        
   4682 ****       266.5000 346.0000 -57.2500 Du        
   4683 ****       266.5000 346.0000 -57.0000 Du        
   4684 ****       266.5000 346.0000 -56.7500 Du        
   4685 ****       266.5000 346.0000 -56.5000 Du        
   4686 ****       266.5000 346.0000 -56.2500 Du        
   4687 ****       266.5000 346.0000 -56.0000 Du        
   4688 ****       266.5000 346.0000 -55.7500 Du        
   4689 ****       266.5000 346.2500 -57.7500 Du        
   4690 ****       266.5000 346.2500 -57.2500 Du        
   4691 ****       266.5000 346.2500 -57.0000 Du        
   4692 ****       266.5000 346.2500 -56.7500 Du        
   4693 ****       266.5000 346.2500 -56.5000 Du        
   4694 ****       266.5000 346.2500 -56.2500 Du        
   4695 ****       266.5000 346.2500 -56.0000 Du        
   4696 ****       266.5000 346.2500 -55.7500 Du        
   4697 ****       266.5000 346.5000 -57.0000 Du        
   4698 ****       266.5000 346.5000 -56.7500 Du        
   4699 ****       266.5000 346.5000 -56.5000 Du        
   4700 ****       266.5000 346.5000 -56.2500 Du        
   4701 ****       266.5000 346.5000 -56.0000 Du        
   4702 ****       266.5000 346.7500 -57.0000 Du        
   4703 ****       266.5000 346.7500 -56.7500 Du        
   4704 ****       266.5000 346.7500 -56.5000 Du        
   4705 ****       266.5000 346.7500 -56.2500 Du        
   4706 ****       266.5000 346.7500 -56.0000 Du        
   4707 ****       266.5000 347.0000 -57.0000 Du        
   4708 ****       266.5000 347.0000 -56.7500 Du        
   4709 ****       266.5000 347.0000 -56.5000 Du        
   4710 ****       266.5000 347.0000 -56.2500 Du        
   4711 ****       266.5000 347.2500 -56.7500 Du        
   4712 ****       266.5000 347.2500 -56.5000 Du        
   4713 ****       266.5000 347.2500 -56.2500 Du        
   4714 ****       266.5000 348.7500 -62.5000 Du        
   4715 ****       266.5000 348.7500 -62.2500 Du        
   4716 ****       266.5000 348.7500 -62.0000 Du        
   4717 ****       266.5000 349.0000 -62.7500 Du        
   4718 ****       266.5000 349.0000 -62.5000 Du        
   4719 ****       266.5000 349.0000 -62.2500 Du        
   4720 ****       266.5000 349.0000 -62.0000 Du        
   4721 ****       266.5000 349.0000 -61.7500 Du        
   4722 ****       266.5000 349.2500 -62.7500 Du        
   4723 ****       266.5000 349.2500 -62.5000 Du        
   4724 ****       266.5000 349.2500 -62.2500 Du        
   4725 ****       266.5000 349.2500 -62.0000 Du        
   4726 ****       266.5000 349.2500 -61.7500 Du        
   4727 ****       266.5000 349.5000 -62.7500 Du        
   4728 ****       266.5000 349.5000 -62.5000 Du        
   4729 ****       266.5000 349.5000 -62.2500 Du        
   4730 ****       266.5000 349.5000 -62.0000 Du        
   4731 ****       266.5000 349.5000 -61.7500 Du        
   4732 ****       266.5000 349.7500 -63.0000 Du        
   4733 ****       266.5000 349.7500 -62.7500 Du        
   4734 ****       266.5000 349.7500 -62.5000 Du        
   4735 ****       266.5000 349.7500 -62.2500 Du        
   4736 ****       266.5000 349.7500 -62.0000 Du        
   4737 ****       266.5000 349.7500 -61.7500 Du        
   4738 ****       266.5000 349.7500 -61.5000 Du        
   4739 ****       266.5000 350.0000 -63.0000 Du        
   4740 ****       266.5000 350.0000 -62.7500 Du        
   4741 ****       266.5000 350.0000 -62.5000 Du        
   4742 ****       266.5000 350.0000 -62.2500 Du        
   4743 ****       266.5000 350.0000 -62.0000 Du        
   4744 ****       266.5000 350.0000 -61.7500 Du        
   4745 ****       266.5000 350.0000 -61.5000 Du        
   4746 ****       266.5000 350.0000 -61.2500 Du        
   4747 ****       266.5000 350.2500 -63.2500 Du        
   4748 ****       266.5000 350.2500 -63.0000 Du        
   4749 ****       266.5000 350.2500 -62.7500 Du        
   4750 ****       266.5000 350.2500 -62.5000 Du        
   4751 ****       266.5000 350.2500 -62.2500 Du        
   4752 ****       266.5000 350.2500 -62.0000 Du        
   4753 ****       266.5000 350.2500 -61.7500 Du        
   4754 ****       266.5000 350.2500 -61.5000 Du        
   4755 ****       266.5000 350.2500 -61.2500 Du        
   4756 ****       266.5000 350.2500 -61.0000 Du        
   4757 ****       266.5000 350.2500 -60.7500 Du        
   4758 ****       266.5000 350.5000 -63.2500 Du        
   4759 ****       266.5000 350.5000 -63.0000 Du        
   4760 ****       266.5000 350.5000 -62.7500 Du        
   4761 ****       266.5000 350.5000 -62.5000 Du        
   4762 ****       266.5000 350.5000 -62.2500 Du        
   4763 ****       266.5000 350.5000 -62.0000 Du        
   4764 ****       266.5000 350.5000 -61.7500 Du        
   4765 ****       266.5000 350.5000 -61.5000 Du        
   4766 ****       266.5000 350.7500 -63.5000 Du        
   4767 ****       266.5000 350.7500 -63.2500 Du        
   4768 ****       266.5000 350.7500 -63.0000 Du        
   4769 ****       266.5000 350.7500 -62.7500 Du        
   4770 ****       266.5000 350.7500 -62.5000 Du        
   4771 ****       266.5000 350.7500 -62.2500 Du        
   4772 ****       266.5000 350.7500 -62.0000 Du        
   4773 ****       266.5000 350.7500 -61.7500 Du        
   4774 ****       266.5000 350.7500 -61.5000 Du        
   4775 ****       266.5000 350.7500 -61.2500 Du        
   4776 ****       266.5000 350.7500 -61.0000 Du        
   4777 ****       266.5000 350.7500 -60.7500 Du        
   4778 ****       266.5000 351.0000 -63.5000 Du        
   4779 ****       266.5000 351.0000 -63.2500 Du        
   4780 ****       266.5000 351.0000 -63.0000 Du        
   4781 ****       266.5000 351.0000 -62.7500 Du        
   4782 ****       266.5000 351.0000 -62.5000 Du        
   4783 ****       266.5000 351.0000 -62.2500 Du        
   4784 ****       266.5000 351.0000 -62.0000 Du        
   4785 ****       266.5000 351.0000 -61.7500 Du        
   4786 ****       266.5000 351.0000 -61.5000 Du        
   4787 ****       266.5000 351.0000 -61.2500 Du        
   4788 ****       266.5000 351.0000 -61.0000 Du        
   4789 ****       266.5000 351.0000 -60.7500 Du        
   4790 ****       266.5000 351.2500 -62.7500 Du        
   4791 ****       266.5000 351.2500 -62.2500 Du        
   4792 ****       266.5000 351.2500 -62.0000 Du        
   4793 ****       266.5000 351.2500 -61.7500 Du        
   4794 ****       266.5000 351.2500 -61.0000 Du        
   4795 ****       266.5000 351.2500 -60.7500 Du        
   4796 ****       266.7500 345.2500 -58.0000 Du        
   4797 ****       266.7500 345.2500 -57.7500 Du        
   4798 ****       266.7500 345.2500 -57.5000 Du        
   4799 ****       266.7500 345.2500 -57.2500 Du        
   4800 ****       266.7500 345.2500 -57.0000 Du        
   4801 ****       266.7500 345.2500 -56.7500 Du        
   4802 ****       266.7500 345.2500 -56.5000 Du        
   4803 ****       266.7500 345.2500 -56.2500 Du        
   4804 ****       266.7500 345.2500 -56.0000 Du        
   4805 ****       266.7500 345.5000 -58.2500 Du        
   4806 ****       266.7500 345.5000 -58.0000 Du        
   4807 ****       266.7500 345.5000 -57.7500 Du        
   4808 ****       266.7500 345.5000 -57.5000 Du        
   4809 ****       266.7500 345.5000 -57.2500 Du        
   4810 ****       266.7500 345.5000 -57.0000 Du        
   4811 ****       266.7500 345.5000 -56.7500 Du        
   4812 ****       266.7500 345.5000 -56.5000 Du        
   4813 ****       266.7500 345.5000 -56.2500 Du        
   4814 ****       266.7500 345.5000 -56.0000 Du        
   4815 ****       266.7500 345.5000 -55.7500 Du        
   4816 ****       266.7500 345.7500 -58.2500 Du        
   4817 ****       266.7500 345.7500 -58.0000 Du        
   4818 ****       266.7500 345.7500 -57.7500 Du        
   4819 ****       266.7500 345.7500 -57.5000 Du        
   4820 ****       266.7500 345.7500 -57.2500 Du        
   4821 ****       266.7500 345.7500 -57.0000 Du        
   4822 ****       266.7500 345.7500 -56.7500 Du        
   4823 ****       266.7500 345.7500 -56.5000 Du        
   4824 ****       266.7500 345.7500 -56.2500 Du        
   4825 ****       266.7500 345.7500 -56.0000 Du        
   4826 ****       266.7500 345.7500 -55.7500 Du        
   4827 ****       266.7500 346.0000 -58.0000 Du        
   4828 ****       266.7500 346.0000 -57.7500 Du        
   4829 ****       266.7500 346.0000 -57.5000 Du        
   4830 ****       266.7500 346.0000 -57.2500 Du        
   4831 ****       266.7500 346.0000 -57.0000 Du        
   4832 ****       266.7500 346.0000 -56.7500 Du        
   4833 ****       266.7500 346.0000 -56.5000 Du        
   4834 ****       266.7500 346.0000 -56.2500 Du        
   4835 ****       266.7500 346.0000 -56.0000 Du        
   4836 ****       266.7500 346.0000 -55.7500 Du        
   4837 ****       266.7500 346.2500 -57.7500 Du        
   4838 ****       266.7500 346.2500 -57.2500 Du        
   4839 ****       266.7500 346.2500 -57.0000 Du        
   4840 ****       266.7500 346.2500 -56.7500 Du        
   4841 ****       266.7500 346.2500 -56.5000 Du        
   4842 ****       266.7500 346.2500 -56.2500 Du        
   4843 ****       266.7500 346.2500 -56.0000 Du        
   4844 ****       266.7500 346.5000 -57.2500 Du        
   4845 ****       266.7500 346.5000 -57.0000 Du        
   4846 ****       266.7500 346.5000 -56.7500 Du        
   4847 ****       266.7500 346.5000 -56.5000 Du        
   4848 ****       266.7500 346.5000 -56.2500 Du        
   4849 ****       266.7500 346.7500 -57.0000 Du        
   4850 ****       266.7500 346.7500 -56.7500 Du        
   4851 ****       266.7500 346.7500 -56.5000 Du        
   4852 ****       266.7500 346.7500 -56.2500 Du        
   4853 ****       266.7500 347.0000 -57.0000 Du        
   4854 ****       266.7500 347.0000 -56.7500 Du        
   4855 ****       266.7500 347.0000 -56.5000 Du        
   4856 ****       266.7500 347.0000 -56.2500 Du        
   4857 ****       266.7500 347.2500 -56.7500 Du        
   4858 ****       266.7500 347.2500 -56.5000 Du        
   4859 ****       266.7500 348.7500 -62.2500 Du        
   4860 ****       266.7500 348.7500 -62.0000 Du        
   4861 ****       266.7500 349.0000 -62.5000 Du        
   4862 ****       266.7500 349.0000 -62.2500 Du        
   4863 ****       266.7500 349.0000 -62.0000 Du        
   4864 ****       266.7500 349.2500 -62.5000 Du        
   4865 ****       266.7500 349.2500 -62.2500 Du        
   4866 ****       266.7500 349.2500 -62.0000 Du        
   4867 ****       266.7500 349.2500 -61.7500 Du        
   4868 ****       266.7500 349.5000 -62.7500 Du        
   4869 ****       266.7500 349.5000 -62.5000 Du        
   4870 ****       266.7500 349.5000 -62.2500 Du        
   4871 ****       266.7500 349.5000 -62.0000 Du        
   4872 ****       266.7500 349.5000 -61.7500 Du        
   4873 ****       266.7500 349.7500 -62.7500 Du        
   4874 ****       266.7500 349.7500 -62.5000 Du        
   4875 ****       266.7500 349.7500 -62.2500 Du        
   4876 ****       266.7500 349.7500 -62.0000 Du        
   4877 ****       266.7500 349.7500 -61.7500 Du        
   4878 ****       266.7500 350.0000 -63.0000 Du        
   4879 ****       266.7500 350.0000 -62.7500 Du        
   4880 ****       266.7500 350.0000 -62.5000 Du        
   4881 ****       266.7500 350.0000 -62.2500 Du        
   4882 ****       266.7500 350.0000 -62.0000 Du        
   4883 ****       266.7500 350.0000 -61.7500 Du        
   4884 ****       266.7500 350.0000 -61.5000 Du        
   4885 ****       266.7500 350.0000 -61.2500 Du        
   4886 ****       266.7500 350.2500 -63.0000 Du        
   4887 ****       266.7500 350.2500 -62.7500 Du        
   4888 ****       266.7500 350.2500 -62.5000 Du        
   4889 ****       266.7500 350.2500 -62.2500 Du        
   4890 ****       266.7500 350.2500 -62.0000 Du        
   4891 ****       266.7500 350.2500 -61.7500 Du        
   4892 ****       266.7500 350.2500 -61.5000 Du        
   4893 ****       266.7500 350.2500 -61.2500 Du        
   4894 ****       266.7500 350.2500 -61.0000 Du        
   4895 ****       266.7500 350.2500 -60.7500 Du        
   4896 ****       266.7500 350.5000 -63.2500 Du        
   4897 ****       266.7500 350.5000 -63.0000 Du        
   4898 ****       266.7500 350.5000 -62.7500 Du        
   4899 ****       266.7500 350.5000 -62.5000 Du        
   4900 ****       266.7500 350.5000 -62.2500 Du        
   4901 ****       266.7500 350.5000 -62.0000 Du        
   4902 ****       266.7500 350.5000 -61.7500 Du        
   4903 ****       266.7500 350.5000 -61.5000 Du        
   4904 ****       266.7500 350.5000 -61.2500 Du        
   4905 ****       266.7500 350.7500 -63.5000 Du        
   4906 ****       266.7500 350.7500 -63.2500 Du        
   4907 ****       266.7500 350.7500 -63.0000 Du        
   4908 ****       266.7500 350.7500 -62.7500 Du        
   4909 ****       266.7500 350.7500 -62.5000 Du        
   4910 ****       266.7500 350.7500 -62.2500 Du        
   4911 ****       266.7500 350.7500 -62.0000 Du        
   4912 ****       266.7500 350.7500 -61.7500 Du        
   4913 ****       266.7500 350.7500 -61.5000 Du        
   4914 ****       266.7500 350.7500 -61.2500 Du        
   4915 ****       266.7500 350.7500 -61.0000 Du        
   4916 ****       266.7500 350.7500 -60.7500 Du        
   4917 ****       266.7500 351.0000 -63.5000 Du        
   4918 ****       266.7500 351.0000 -63.2500 Du        
   4919 ****       266.7500 351.0000 -63.0000 Du        
   4920 ****       266.7500 351.0000 -62.7500 Du        
   4921 ****       266.7500 351.0000 -62.5000 Du        
   4922 ****       266.7500 351.0000 -62.2500 Du        
   4923 ****       266.7500 351.0000 -62.0000 Du        
   4924 ****       266.7500 351.0000 -61.7500 Du        
   4925 ****       266.7500 351.0000 -61.5000 Du        
   4926 ****       266.7500 351.0000 -61.2500 Du        
   4927 ****       266.7500 351.0000 -61.0000 Du        
   4928 ****       266.7500 351.0000 -60.7500 Du        
   4929 ****       266.7500 351.2500 -63.2500 Du        
   4930 ****       266.7500 351.2500 -63.0000 Du        
   4931 ****       266.7500 351.2500 -62.7500 Du        
   4932 ****       266.7500 351.2500 -62.5000 Du        
   4933 ****       266.7500 351.2500 -62.2500 Du        
   4934 ****       266.7500 351.2500 -62.0000 Du        
   4935 ****       266.7500 351.2500 -61.7500 Du        
   4936 ****       266.7500 351.2500 -61.5000 Du        
   4937 ****       266.7500 351.2500 -61.2500 Du        
   4938 ****       266.7500 351.2500 -61.0000 Du        
   4939 ****       266.7500 351.2500 -60.7500 Du        
   4940 ****       266.7500 351.2500 -60.5000 Du        
   4941 ****       266.7500 351.5000 -61.7500 Du        
   4942 ****       266.7500 351.5000 -61.5000 Du        
   4943 ****       266.7500 351.5000 -61.2500 Du        
   4944 ****       266.7500 351.5000 -61.0000 Du        
   4945 ****       266.7500 351.5000 -60.7500 Du        
   4946 ****       266.7500 351.7500 -61.0000 Du        
   4947 ****       266.7500 351.7500 -60.7500 Du        
   4948 ****       267.0000 345.2500 -58.0000 Du        
   4949 ****       267.0000 345.2500 -57.7500 Du        
   4950 ****       267.0000 345.2500 -57.5000 Du        
   4951 ****       267.0000 345.2500 -57.2500 Du        
   4952 ****       267.0000 345.2500 -57.0000 Du        
   4953 ****       267.0000 345.2500 -56.7500 Du        
   4954 ****       267.0000 345.2500 -56.5000 Du        
   4955 ****       267.0000 345.2500 -56.2500 Du        
   4956 ****       267.0000 345.2500 -56.0000 Du        
   4957 ****       267.0000 345.5000 -58.2500 Du        
   4958 ****       267.0000 345.5000 -58.0000 Du        
   4959 ****       267.0000 345.5000 -57.7500 Du        
   4960 ****       267.0000 345.5000 -57.5000 Du        
   4961 ****       267.0000 345.5000 -57.2500 Du        
   4962 ****       267.0000 345.5000 -57.0000 Du        
   4963 ****       267.0000 345.5000 -56.7500 Du        
   4964 ****       267.0000 345.5000 -56.5000 Du        
   4965 ****       267.0000 345.5000 -56.2500 Du        
   4966 ****       267.0000 345.5000 -56.0000 Du        
   4967 ****       267.0000 345.5000 -55.7500 Du        
   4968 ****       267.0000 345.7500 -58.2500 Du        
   4969 ****       267.0000 345.7500 -58.0000 Du        
   4970 ****       267.0000 345.7500 -57.7500 Du        
   4971 ****       267.0000 345.7500 -57.5000 Du        
   4972 ****       267.0000 345.7500 -57.2500 Du        
   4973 ****       267.0000 345.7500 -57.0000 Du        
   4974 ****       267.0000 345.7500 -56.7500 Du        
   4975 ****       267.0000 345.7500 -56.5000 Du        
   4976 ****       267.0000 345.7500 -56.2500 Du        
   4977 ****       267.0000 345.7500 -56.0000 Du        
   4978 ****       267.0000 345.7500 -55.7500 Du        
   4979 ****       267.0000 346.0000 -58.0000 Du        
   4980 ****       267.0000 346.0000 -57.7500 Du        
   4981 ****       267.0000 346.0000 -57.5000 Du        
   4982 ****       267.0000 346.0000 -57.2500 Du        
   4983 ****       267.0000 346.0000 -57.0000 Du        
   4984 ****       267.0000 346.0000 -56.7500 Du        
   4985 ****       267.0000 346.0000 -56.5000 Du        
   4986 ****       267.0000 346.0000 -56.2500 Du        
   4987 ****       267.0000 346.0000 -56.0000 Du        
   4988 ****       267.0000 346.2500 -57.2500 Du        
   4989 ****       267.0000 346.2500 -57.0000 Du        
   4990 ****       267.0000 346.2500 -56.7500 Du        
   4991 ****       267.0000 346.2500 -56.5000 Du        
   4992 ****       267.0000 346.2500 -56.2500 Du        
   4993 ****       267.0000 346.2500 -56.0000 Du        
   4994 ****       267.0000 346.5000 -57.2500 Du        
   4995 ****       267.0000 346.5000 -57.0000 Du        
   4996 ****       267.0000 346.5000 -56.7500 Du        
   4997 ****       267.0000 346.5000 -56.5000 Du        
   4998 ****       267.0000 346.5000 -56.2500 Du        
   4999 ****       267.0000 346.7500 -57.0000 Du        
   5000 ****       267.0000 346.7500 -56.7500 Du        
   5001 ****       267.0000 346.7500 -56.5000 Du        
   5002 ****       267.0000 346.7500 -56.2500 Du        
   5003 ****       267.0000 347.0000 -57.2500 Du        
   5004 ****       267.0000 347.0000 -57.0000 Du        
   5005 ****       267.0000 347.0000 -56.7500 Du        
   5006 ****       267.0000 347.0000 -56.5000 Du        
   5007 ****       267.0000 347.2500 -57.0000 Du        
   5008 ****       267.0000 348.7500 -62.2500 Du        
   5009 ****       267.0000 349.0000 -62.2500 Du        
   5010 ****       267.0000 349.0000 -62.0000 Du        
   5011 ****       267.0000 349.2500 -62.2500 Du        
   5012 ****       267.0000 349.2500 -62.0000 Du        
   5013 ****       267.0000 349.5000 -62.2500 Du        
   5014 ****       267.0000 349.5000 -62.0000 Du        
   5015 ****       267.0000 349.7500 -62.7500 Du        
   5016 ****       267.0000 349.7500 -62.5000 Du        
   5017 ****       267.0000 349.7500 -62.2500 Du        
   5018 ****       267.0000 349.7500 -62.0000 Du        
   5019 ****       267.0000 349.7500 -61.7500 Du        
   5020 ****       267.0000 350.0000 -62.7500 Du        
   5021 ****       267.0000 350.0000 -62.5000 Du        
   5022 ****       267.0000 350.0000 -62.2500 Du        
   5023 ****       267.0000 350.0000 -62.0000 Du        
   5024 ****       267.0000 350.0000 -61.7500 Du        
   5025 ****       267.0000 350.0000 -61.5000 Du        
   5026 ****       267.0000 350.2500 -63.0000 Du        
   5027 ****       267.0000 350.2500 -62.7500 Du        
   5028 ****       267.0000 350.2500 -62.5000 Du        
   5029 ****       267.0000 350.2500 -62.2500 Du        
   5030 ****       267.0000 350.2500 -62.0000 Du        
   5031 ****       267.0000 350.2500 -61.7500 Du        
   5032 ****       267.0000 350.2500 -61.5000 Du        
   5033 ****       267.0000 350.2500 -61.2500 Du        
   5034 ****       267.0000 350.2500 -61.0000 Du        
   5035 ****       267.0000 350.5000 -63.2500 Du        
   5036 ****       267.0000 350.5000 -63.0000 Du        
   5037 ****       267.0000 350.5000 -62.7500 Du        
   5038 ****       267.0000 350.5000 -62.5000 Du        
   5039 ****       267.0000 350.5000 -62.2500 Du        
   5040 ****       267.0000 350.5000 -62.0000 Du        
   5041 ****       267.0000 350.5000 -61.7500 Du        
   5042 ****       267.0000 350.5000 -61.5000 Du        
   5043 ****       267.0000 350.5000 -61.2500 Du        
   5044 ****       267.0000 350.5000 -61.0000 Du        
   5045 ****       267.0000 350.5000 -60.7500 Du        
   5046 ****       267.0000 350.7500 -63.5000 Du        
   5047 ****       267.0000 350.7500 -63.2500 Du        
   5048 ****       267.0000 350.7500 -63.0000 Du        
   5049 ****       267.0000 350.7500 -62.7500 Du        
   5050 ****       267.0000 350.7500 -62.5000 Du        
   5051 ****       267.0000 350.7500 -62.2500 Du        
   5052 ****       267.0000 350.7500 -62.0000 Du        
   5053 ****       267.0000 350.7500 -61.7500 Du        
   5054 ****       267.0000 350.7500 -61.5000 Du        
   5055 ****       267.0000 350.7500 -61.2500 Du        
   5056 ****       267.0000 350.7500 -61.0000 Du        
   5057 ****       267.0000 350.7500 -60.7500 Du        
   5058 ****       267.0000 350.7500 -60.5000 Du        
   5059 ****       267.0000 351.0000 -63.5000 Du        
   5060 ****       267.0000 351.0000 -63.2500 Du        
   5061 ****       267.0000 351.0000 -63.0000 Du        
   5062 ****       267.0000 351.0000 -62.7500 Du        
   5063 ****       267.0000 351.0000 -62.5000 Du        
   5064 ****       267.0000 351.0000 -62.2500 Du        
   5065 ****       267.0000 351.0000 -62.0000 Du        
   5066 ****       267.0000 351.0000 -61.7500 Du        
   5067 ****       267.0000 351.0000 -61.5000 Du        
   5068 ****       267.0000 351.0000 -61.2500 Du        
   5069 ****       267.0000 351.0000 -61.0000 Du        
   5070 ****       267.0000 351.0000 -60.7500 Du        
   5071 ****       267.0000 351.0000 -60.5000 Du        
   5072 ****       267.0000 351.2500 -63.5000 Du        
   5073 ****       267.0000 351.2500 -63.2500 Du        
   5074 ****       267.0000 351.2500 -63.0000 Du        
   5075 ****       267.0000 351.2500 -62.7500 Du        
   5076 ****       267.0000 351.2500 -62.5000 Du        
   5077 ****       267.0000 351.2500 -62.2500 Du        
   5078 ****       267.0000 351.2500 -62.0000 Du        
   5079 ****       267.0000 351.2500 -61.7500 Du        
   5080 ****       267.0000 351.2500 -61.5000 Du        
   5081 ****       267.0000 351.2500 -61.2500 Du        
   5082 ****       267.0000 351.2500 -61.0000 Du        
   5083 ****       267.0000 351.2500 -60.7500 Du        
   5084 ****       267.0000 351.2500 -60.5000 Du        
   5085 ****       267.0000 351.5000 -62.7500 Du        
   5086 ****       267.0000 351.5000 -62.2500 Du        
   5087 ****       267.0000 351.5000 -62.0000 Du        
   5088 ****       267.0000 351.5000 -61.7500 Du        
   5089 ****       267.0000 351.5000 -61.5000 Du        
   5090 ****       267.0000 351.5000 -61.2500 Du        
   5091 ****       267.0000 351.5000 -61.0000 Du        
   5092 ****       267.0000 351.5000 -60.7500 Du        
   5093 ****       267.0000 351.5000 -60.5000 Du        
   5094 ****       267.0000 351.7500 -61.7500 Du        
   5095 ****       267.0000 351.7500 -61.5000 Du        
   5096 ****       267.0000 351.7500 -61.2500 Du        
   5097 ****       267.0000 351.7500 -61.0000 Du        
   5098 ****       267.0000 351.7500 -60.7500 Du        
   5099 ****       267.0000 351.7500 -60.5000 Du        
   5100 ****       267.0000 352.0000 -61.0000 Du        
   5101 ****       267.0000 352.0000 -60.7500 Du        
   5102 ****       267.2500 345.0000 -56.5000 Du        
   5103 ****       267.2500 345.0000 -56.2500 Du        
   5104 ****       267.2500 345.0000 -56.0000 Du        
   5105 ****       267.2500 345.2500 -58.0000 Du        
   5106 ****       267.2500 345.2500 -57.5000 Du        
   5107 ****       267.2500 345.2500 -57.2500 Du        
   5108 ****       267.2500 345.2500 -57.0000 Du        
   5109 ****       267.2500 345.2500 -56.7500 Du        
   5110 ****       267.2500 345.2500 -56.5000 Du        
   5111 ****       267.2500 345.2500 -56.2500 Du        
   5112 ****       267.2500 345.2500 -56.0000 Du        
   5113 ****       267.2500 345.2500 -55.7500 Du        
   5114 ****       267.2500 345.5000 -58.2500 Du        
   5115 ****       267.2500 345.5000 -58.0000 Du        
   5116 ****       267.2500 345.5000 -57.7500 Du        
   5117 ****       267.2500 345.5000 -57.2500 Du        
   5118 ****       267.2500 345.5000 -57.0000 Du        
   5119 ****       267.2500 345.5000 -56.7500 Du        
   5120 ****       267.2500 345.5000 -56.5000 Du        
   5121 ****       267.2500 345.5000 -56.2500 Du        
   5122 ****       267.2500 345.5000 -56.0000 Du        
   5123 ****       267.2500 345.7500 -58.2500 Du        
   5124 ****       267.2500 345.7500 -58.0000 Du        
   5125 ****       267.2500 345.7500 -57.7500 Du        
   5126 ****       267.2500 345.7500 -57.5000 Du        
   5127 ****       267.2500 345.7500 -57.2500 Du        
   5128 ****       267.2500 345.7500 -57.0000 Du        
   5129 ****       267.2500 345.7500 -56.7500 Du        
   5130 ****       267.2500 345.7500 -56.5000 Du        
   5131 ****       267.2500 345.7500 -56.2500 Du        
   5132 ****       267.2500 345.7500 -56.0000 Du        
   5133 ****       267.2500 346.0000 -57.7500 Du        
   5134 ****       267.2500 346.0000 -57.2500 Du        
   5135 ****       267.2500 346.0000 -57.0000 Du        
   5136 ****       267.2500 346.0000 -56.7500 Du        
   5137 ****       267.2500 346.0000 -56.5000 Du        
   5138 ****       267.2500 346.0000 -56.2500 Du        
   5139 ****       267.2500 346.0000 -56.0000 Du        
   5140 ****       267.2500 346.2500 -57.0000 Du        
   5141 ****       267.2500 346.2500 -56.7500 Du        
   5142 ****       267.2500 346.2500 -56.5000 Du        
   5143 ****       267.2500 346.2500 -56.2500 Du        
   5144 ****       267.2500 346.5000 -57.0000 Du        
   5145 ****       267.2500 346.5000 -56.7500 Du        
   5146 ****       267.2500 346.5000 -56.5000 Du        
   5147 ****       267.2500 346.7500 -57.0000 Du        
   5148 ****       267.2500 346.7500 -56.7500 Du        
   5149 ****       267.2500 346.7500 -56.5000 Du        
   5150 ****       267.2500 347.0000 -57.0000 Du        
   5151 ****       267.2500 347.0000 -56.5000 Du        
   5152 ****       267.2500 349.7500 -62.2500 Du        
   5153 ****       267.2500 349.7500 -62.0000 Du        
   5154 ****       267.2500 349.7500 -61.7500 Du        
   5155 ****       267.2500 350.0000 -62.7500 Du        
   5156 ****       267.2500 350.0000 -62.5000 Du        
   5157 ****       267.2500 350.0000 -62.2500 Du        
   5158 ****       267.2500 350.0000 -62.0000 Du        
   5159 ****       267.2500 350.0000 -61.7500 Du        
   5160 ****       267.2500 350.2500 -63.0000 Du        
   5161 ****       267.2500 350.2500 -62.7500 Du        
   5162 ****       267.2500 350.2500 -62.5000 Du        
   5163 ****       267.2500 350.2500 -62.2500 Du        
   5164 ****       267.2500 350.2500 -62.0000 Du        
   5165 ****       267.2500 350.2500 -61.7500 Du        
   5166 ****       267.2500 350.5000 -63.0000 Du        
   5167 ****       267.2500 350.5000 -62.7500 Du        
   5168 ****       267.2500 350.5000 -62.5000 Du        
   5169 ****       267.2500 350.5000 -62.2500 Du        
   5170 ****       267.2500 350.5000 -62.0000 Du        
   5171 ****       267.2500 350.5000 -61.7500 Du        
   5172 ****       267.2500 350.5000 -61.5000 Du        
   5173 ****       267.2500 350.5000 -61.2500 Du        
   5174 ****       267.2500 350.5000 -61.0000 Du        
   5175 ****       267.2500 350.5000 -60.7500 Du        
   5176 ****       267.2500 350.7500 -63.2500 Du        
   5177 ****       267.2500 350.7500 -63.0000 Du        
   5178 ****       267.2500 350.7500 -62.7500 Du        
   5179 ****       267.2500 350.7500 -62.5000 Du        
   5180 ****       267.2500 350.7500 -62.2500 Du        
   5181 ****       267.2500 350.7500 -62.0000 Du        
   5182 ****       267.2500 350.7500 -61.7500 Du        
   5183 ****       267.2500 350.7500 -61.5000 Du        
   5184 ****       267.2500 350.7500 -61.2500 Du        
   5185 ****       267.2500 350.7500 -61.0000 Du        
   5186 ****       267.2500 350.7500 -60.7500 Du        
   5187 ****       267.2500 350.7500 -60.5000 Du        
   5188 ****       267.2500 351.0000 -63.5000 Du        
   5189 ****       267.2500 351.0000 -63.2500 Du        
   5190 ****       267.2500 351.0000 -63.0000 Du        
   5191 ****       267.2500 351.0000 -62.7500 Du        
   5192 ****       267.2500 351.0000 -62.5000 Du        
   5193 ****       267.2500 351.0000 -62.2500 Du        
   5194 ****       267.2500 351.0000 -62.0000 Du        
   5195 ****       267.2500 351.0000 -61.7500 Du        
   5196 ****       267.2500 351.0000 -61.5000 Du        
   5197 ****       267.2500 351.0000 -61.2500 Du        
   5198 ****       267.2500 351.0000 -61.0000 Du        
   5199 ****       267.2500 351.0000 -60.7500 Du        
   5200 ****       267.2500 351.0000 -60.5000 Du        
   5201 ****       267.2500 351.2500 -63.5000 Du        
   5202 ****       267.2500 351.2500 -63.2500 Du        
   5203 ****       267.2500 351.2500 -63.0000 Du        
   5204 ****       267.2500 351.2500 -62.7500 Du        
   5205 ****       267.2500 351.2500 -62.5000 Du        
   5206 ****       267.2500 351.2500 -62.2500 Du        
   5207 ****       267.2500 351.2500 -62.0000 Du        
   5208 ****       267.2500 351.2500 -61.7500 Du        
   5209 ****       267.2500 351.2500 -61.5000 Du        
   5210 ****       267.2500 351.2500 -61.2500 Du        
   5211 ****       267.2500 351.2500 -61.0000 Du        
   5212 ****       267.2500 351.2500 -60.7500 Du        
   5213 ****       267.2500 351.2500 -60.5000 Du        
   5214 ****       267.2500 351.5000 -63.2500 Du        
   5215 ****       267.2500 351.5000 -63.0000 Du        
   5216 ****       267.2500 351.5000 -62.7500 Du        
   5217 ****       267.2500 351.5000 -62.5000 Du        
   5218 ****       267.2500 351.5000 -62.2500 Du        
   5219 ****       267.2500 351.5000 -62.0000 Du        
   5220 ****       267.2500 351.5000 -61.7500 Du        
   5221 ****       267.2500 351.5000 -61.5000 Du        
   5222 ****       267.2500 351.5000 -61.2500 Du        
   5223 ****       267.2500 351.5000 -61.0000 Du        
   5224 ****       267.2500 351.5000 -60.7500 Du        
   5225 ****       267.2500 351.5000 -60.5000 Du        
   5226 ****       267.2500 351.7500 -62.0000 Du        
   5227 ****       267.2500 351.7500 -61.7500 Du        
   5228 ****       267.2500 351.7500 -61.5000 Du        
   5229 ****       267.2500 351.7500 -61.2500 Du        
   5230 ****       267.2500 351.7500 -61.0000 Du        
   5231 ****       267.2500 351.7500 -60.7500 Du        
   5232 ****       267.2500 351.7500 -60.5000 Du        
   5233 ****       267.2500 352.0000 -61.2500 Du        
   5234 ****       267.2500 352.0000 -61.0000 Du        
   5235 ****       267.2500 352.0000 -60.7500 Du        
   5236 ****       267.2500 352.0000 -60.5000 Du        
   5237 ****       267.2500 352.2500 -61.0000 Du        
   5238 ****       267.2500 352.2500 -60.7500 Du        
   5239 ****       267.5000 345.0000 -56.2500 Du        
   5240 ****       267.5000 345.0000 -56.0000 Du        
   5241 ****       267.5000 345.2500 -57.2500 Du        
   5242 ****       267.5000 345.2500 -57.0000 Du        
   5243 ****       267.5000 345.2500 -56.7500 Du        
   5244 ****       267.5000 345.2500 -56.5000 Du        
   5245 ****       267.5000 345.2500 -56.2500 Du        
   5246 ****       267.5000 345.2500 -56.0000 Du        
   5247 ****       267.5000 345.2500 -55.7500 Du        
   5248 ****       267.5000 345.5000 -57.2500 Du        
   5249 ****       267.5000 345.5000 -57.0000 Du        
   5250 ****       267.5000 345.5000 -56.7500 Du        
   5251 ****       267.5000 345.5000 -56.5000 Du        
   5252 ****       267.5000 345.5000 -56.2500 Du        
   5253 ****       267.5000 345.5000 -56.0000 Du        
   5254 ****       267.5000 345.7500 -57.2500 Du        
   5255 ****       267.5000 345.7500 -57.0000 Du        
   5256 ****       267.5000 345.7500 -56.7500 Du        
   5257 ****       267.5000 345.7500 -56.5000 Du        
   5258 ****       267.5000 345.7500 -56.2500 Du        
   5259 ****       267.5000 346.0000 -57.0000 Du        
   5260 ****       267.5000 346.0000 -56.7500 Du        
   5261 ****       267.5000 346.0000 -56.5000 Du        
   5262 ****       267.5000 346.0000 -56.2500 Du        
   5263 ****       267.5000 346.2500 -57.0000 Du        
   5264 ****       267.5000 346.2500 -56.7500 Du        
   5265 ****       267.5000 346.2500 -56.5000 Du        
   5266 ****       267.5000 350.0000 -62.2500 Du        
   5267 ****       267.5000 350.2500 -62.7500 Du        
   5268 ****       267.5000 350.2500 -62.5000 Du        
   5269 ****       267.5000 350.2500 -62.2500 Du        
   5270 ****       267.5000 350.2500 -62.0000 Du        
   5271 ****       267.5000 350.2500 -61.7500 Du        
   5272 ****       267.5000 350.2500 -61.2500 Du        
   5273 ****       267.5000 350.5000 -63.0000 Du        
   5274 ****       267.5000 350.5000 -62.7500 Du        
   5275 ****       267.5000 350.5000 -62.5000 Du        
   5276 ****       267.5000 350.5000 -62.2500 Du        
   5277 ****       267.5000 350.5000 -62.0000 Du        
   5278 ****       267.5000 350.5000 -61.7500 Du        
   5279 ****       267.5000 350.5000 -61.5000 Du        
   5280 ****       267.5000 350.5000 -61.2500 Du        
   5281 ****       267.5000 350.5000 -61.0000 Du        
   5282 ****       267.5000 350.7500 -63.2500 Du        
   5283 ****       267.5000 350.7500 -63.0000 Du        
   5284 ****       267.5000 350.7500 -62.7500 Du        
   5285 ****       267.5000 350.7500 -62.5000 Du        
   5286 ****       267.5000 350.7500 -62.2500 Du        
   5287 ****       267.5000 350.7500 -62.0000 Du        
   5288 ****       267.5000 350.7500 -61.7500 Du        
   5289 ****       267.5000 350.7500 -61.5000 Du        
   5290 ****       267.5000 350.7500 -61.2500 Du        
   5291 ****       267.5000 350.7500 -61.0000 Du        
   5292 ****       267.5000 350.7500 -60.7500 Du        
   5293 ****       267.5000 350.7500 -60.5000 Du        
   5294 ****       267.5000 351.0000 -63.5000 Du        
   5295 ****       267.5000 351.0000 -63.2500 Du        
   5296 ****       267.5000 351.0000 -63.0000 Du        
   5297 ****       267.5000 351.0000 -62.7500 Du        
   5298 ****       267.5000 351.0000 -62.5000 Du        
   5299 ****       267.5000 351.0000 -62.2500 Du        
   5300 ****       267.5000 351.0000 -62.0000 Du        
   5301 ****       267.5000 351.0000 -61.7500 Du        
   5302 ****       267.5000 351.0000 -61.5000 Du        
   5303 ****       267.5000 351.0000 -61.2500 Du        
   5304 ****       267.5000 351.0000 -61.0000 Du        
   5305 ****       267.5000 351.0000 -60.7500 Du        
   5306 ****       267.5000 351.0000 -60.5000 Du        
   5307 ****       267.5000 351.2500 -63.5000 Du        
   5308 ****       267.5000 351.2500 -63.2500 Du        
   5309 ****       267.5000 351.2500 -63.0000 Du        
   5310 ****       267.5000 351.2500 -62.7500 Du        
   5311 ****       267.5000 351.2500 -62.5000 Du        
   5312 ****       267.5000 351.2500 -62.2500 Du        
   5313 ****       267.5000 351.2500 -62.0000 Du        
   5314 ****       267.5000 351.2500 -61.7500 Du        
   5315 ****       267.5000 351.2500 -61.5000 Du        
   5316 ****       267.5000 351.2500 -61.2500 Du        
   5317 ****       267.5000 351.2500 -61.0000 Du        
   5318 ****       267.5000 351.2500 -60.7500 Du        
   5319 ****       267.5000 351.2500 -60.5000 Du        
   5320 ****       267.5000 351.5000 -63.0000 Du        
   5321 ****       267.5000 351.5000 -62.7500 Du        
   5322 ****       267.5000 351.5000 -62.5000 Du        
   5323 ****       267.5000 351.5000 -62.2500 Du        
   5324 ****       267.5000 351.5000 -62.0000 Du        
   5325 ****       267.5000 351.5000 -61.7500 Du        
   5326 ****       267.5000 351.5000 -61.5000 Du        
   5327 ****       267.5000 351.5000 -61.2500 Du        
   5328 ****       267.5000 351.5000 -61.0000 Du        
   5329 ****       267.5000 351.5000 -60.7500 Du        
   5330 ****       267.5000 351.5000 -60.5000 Du        
   5331 ****       267.5000 351.7500 -62.0000 Du        
   5332 ****       267.5000 351.7500 -61.7500 Du        
   5333 ****       267.5000 351.7500 -61.5000 Du        
   5334 ****       267.5000 351.7500 -61.2500 Du        
   5335 ****       267.5000 351.7500 -61.0000 Du        
   5336 ****       267.5000 351.7500 -60.7500 Du        
   5337 ****       267.5000 351.7500 -60.5000 Du        
   5338 ****       267.5000 352.0000 -61.5000 Du        
   5339 ****       267.5000 352.0000 -61.2500 Du        
   5340 ****       267.5000 352.0000 -61.0000 Du        
   5341 ****       267.5000 352.0000 -60.7500 Du        
   5342 ****       267.5000 352.0000 -60.5000 Du        
   5343 ****       267.5000 352.2500 -61.2500 Du        
   5344 ****       267.5000 352.2500 -61.0000 Du        
   5345 ****       267.5000 352.2500 -60.7500 Du        
   5346 ****       267.5000 352.5000 -61.0000 Du        
   5347 ****       267.5000 352.5000 -60.7500 Du        
   5348 ****       267.7500 345.0000 -56.2500 Du        
   5349 ****       267.7500 345.0000 -56.0000 Du        
   5350 ****       267.7500 345.2500 -57.2500 Du        
   5351 ****       267.7500 345.2500 -57.0000 Du        
   5352 ****       267.7500 345.2500 -56.7500 Du        
   5353 ****       267.7500 345.2500 -56.5000 Du        
   5354 ****       267.7500 345.2500 -56.2500 Du        
   5355 ****       267.7500 345.2500 -56.0000 Du        
   5356 ****       267.7500 345.5000 -57.2500 Du        
   5357 ****       267.7500 345.5000 -57.0000 Du        
   5358 ****       267.7500 345.5000 -56.7500 Du        
   5359 ****       267.7500 345.5000 -56.5000 Du        
   5360 ****       267.7500 345.5000 -56.2500 Du        
   5361 ****       267.7500 345.5000 -56.0000 Du        
   5362 ****       267.7500 345.7500 -57.2500 Du        
   5363 ****       267.7500 345.7500 -57.0000 Du        
   5364 ****       267.7500 345.7500 -56.7500 Du        
   5365 ****       267.7500 345.7500 -56.5000 Du        
   5366 ****       267.7500 345.7500 -56.2500 Du        
   5367 ****       267.7500 346.0000 -57.2500 Du        
   5368 ****       267.7500 346.0000 -57.0000 Du        
   5369 ****       267.7500 346.0000 -56.7500 Du        
   5370 ****       267.7500 346.0000 -56.5000 Du        
   5371 ****       267.7500 346.2500 -56.7500 Du        
   5372 ****       267.7500 346.2500 -56.5000 Du        
   5373 ****       267.7500 350.2500 -62.7500 Du        
   5374 ****       267.7500 350.2500 -62.2500 Du        
   5375 ****       267.7500 350.2500 -62.0000 Du        
   5376 ****       267.7500 350.5000 -63.0000 Du        
   5377 ****       267.7500 350.5000 -62.7500 Du        
   5378 ****       267.7500 350.5000 -62.5000 Du        
   5379 ****       267.7500 350.5000 -62.2500 Du        
   5380 ****       267.7500 350.5000 -62.0000 Du        
   5381 ****       267.7500 350.5000 -61.7500 Du        
   5382 ****       267.7500 350.5000 -61.5000 Du        
   5383 ****       267.7500 350.5000 -61.2500 Du        
   5384 ****       267.7500 350.5000 -61.0000 Du        
   5385 ****       267.7500 350.7500 -63.2500 Du        
   5386 ****       267.7500 350.7500 -63.0000 Du        
   5387 ****       267.7500 350.7500 -62.7500 Du        
   5388 ****       267.7500 350.7500 -62.5000 Du        
   5389 ****       267.7500 350.7500 -62.2500 Du        
   5390 ****       267.7500 350.7500 -62.0000 Du        
   5391 ****       267.7500 350.7500 -61.7500 Du        
   5392 ****       267.7500 350.7500 -61.5000 Du        
   5393 ****       267.7500 350.7500 -61.2500 Du        
   5394 ****       267.7500 350.7500 -61.0000 Du        
   5395 ****       267.7500 350.7500 -60.7500 Du        
   5396 ****       267.7500 350.7500 -60.5000 Du        
   5397 ****       267.7500 351.0000 -63.5000 Du        
   5398 ****       267.7500 351.0000 -63.2500 Du        
   5399 ****       267.7500 351.0000 -63.0000 Du        
   5400 ****       267.7500 351.0000 -62.7500 Du        
   5401 ****       267.7500 351.0000 -62.5000 Du        
   5402 ****       267.7500 351.0000 -62.2500 Du        
   5403 ****       267.7500 351.0000 -62.0000 Du        
   5404 ****       267.7500 351.0000 -61.7500 Du        
   5405 ****       267.7500 351.0000 -61.5000 Du        
   5406 ****       267.7500 351.0000 -61.2500 Du        
   5407 ****       267.7500 351.0000 -61.0000 Du        
   5408 ****       267.7500 351.0000 -60.7500 Du        
   5409 ****       267.7500 351.0000 -60.5000 Du        
   5410 ****       267.7500 351.0000 -60.2500 Du        
   5411 ****       267.7500 351.2500 -63.2500 Du        
   5412 ****       267.7500 351.2500 -63.0000 Du        
   5413 ****       267.7500 351.2500 -62.7500 Du        
   5414 ****       267.7500 351.2500 -62.5000 Du        
   5415 ****       267.7500 351.2500 -62.2500 Du        
   5416 ****       267.7500 351.2500 -62.0000 Du        
   5417 ****       267.7500 351.2500 -61.7500 Du        
   5418 ****       267.7500 351.2500 -61.5000 Du        
   5419 ****       267.7500 351.2500 -61.2500 Du        
   5420 ****       267.7500 351.2500 -61.0000 Du        
   5421 ****       267.7500 351.2500 -60.7500 Du        
   5422 ****       267.7500 351.2500 -60.5000 Du        
   5423 ****       267.7500 351.5000 -62.0000 Du        
   5424 ****       267.7500 351.5000 -61.7500 Du        
   5425 ****       267.7500 351.5000 -61.5000 Du        
   5426 ****       267.7500 351.5000 -61.2500 Du        
   5427 ****       267.7500 351.5000 -61.0000 Du        
   5428 ****       267.7500 351.5000 -60.7500 Du        
   5429 ****       267.7500 351.5000 -60.5000 Du        
   5430 ****       267.7500 351.7500 -61.7500 Du        
   5431 ****       267.7500 351.7500 -61.5000 Du        
   5432 ****       267.7500 351.7500 -61.2500 Du        
   5433 ****       267.7500 351.7500 -61.0000 Du        
   5434 ****       267.7500 351.7500 -60.7500 Du        
   5435 ****       267.7500 351.7500 -60.5000 Du        
   5436 ****       267.7500 352.0000 -61.5000 Du        
   5437 ****       267.7500 352.0000 -61.2500 Du        
   5438 ****       267.7500 352.0000 -61.0000 Du        
   5439 ****       267.7500 352.0000 -60.7500 Du        
   5440 ****       267.7500 352.0000 -60.5000 Du        
   5441 ****       267.7500 352.2500 -61.2500 Du        
   5442 ****       267.7500 352.2500 -61.0000 Du        
   5443 ****       267.7500 352.2500 -60.7500 Du        
   5444 ****       267.7500 352.5000 -61.0000 Du        
   5445 ****       267.7500 352.5000 -60.7500 Du        
   5446 ****       268.0000 345.0000 -56.2500 Du        
   5447 ****       268.0000 345.0000 -56.0000 Du        
   5448 ****       268.0000 345.2500 -57.0000 Du        
   5449 ****       268.0000 345.2500 -56.7500 Du        
   5450 ****       268.0000 345.2500 -56.5000 Du        
   5451 ****       268.0000 345.2500 -56.2500 Du        
   5452 ****       268.0000 345.2500 -56.0000 Du        
   5453 ****       268.0000 345.5000 -57.0000 Du        
   5454 ****       268.0000 345.5000 -56.7500 Du        
   5455 ****       268.0000 345.5000 -56.5000 Du        
   5456 ****       268.0000 345.5000 -56.2500 Du        
   5457 ****       268.0000 345.7500 -57.2500 Du        
   5458 ****       268.0000 345.7500 -57.0000 Du        
   5459 ****       268.0000 345.7500 -56.7500 Du        
   5460 ****       268.0000 345.7500 -56.5000 Du        
   5461 ****       268.0000 345.7500 -56.2500 Du        
   5462 ****       268.0000 346.0000 -57.0000 Du        
   5463 ****       268.0000 346.0000 -56.7500 Du        
   5464 ****       268.0000 346.0000 -56.5000 Du        
   5465 ****       268.0000 346.2500 -56.5000 Du        
   5466 ****       268.0000 348.7500 -57.0000 Du        
   5467 ****       268.0000 350.5000 -62.7500 Du        
   5468 ****       268.0000 350.5000 -62.0000 Du        
   5469 ****       268.0000 350.5000 -61.7500 Du        
   5470 ****       268.0000 350.5000 -61.5000 Du        
   5471 ****       268.0000 350.5000 -61.2500 Du        
   5472 ****       268.0000 350.7500 -63.2500 Du        
   5473 ****       268.0000 350.7500 -63.0000 Du        
   5474 ****       268.0000 350.7500 -62.7500 Du        
   5475 ****       268.0000 350.7500 -62.5000 Du        
   5476 ****       268.0000 350.7500 -62.2500 Du        
   5477 ****       268.0000 350.7500 -62.0000 Du        
   5478 ****       268.0000 350.7500 -61.7500 Du        
   5479 ****       268.0000 350.7500 -61.5000 Du        
   5480 ****       268.0000 350.7500 -61.2500 Du        
   5481 ****       268.0000 350.7500 -61.0000 Du        
   5482 ****       268.0000 350.7500 -60.7500 Du        
   5483 ****       268.0000 351.0000 -63.2500 Du        
   5484 ****       268.0000 351.0000 -63.0000 Du        
   5485 ****       268.0000 351.0000 -62.7500 Du        
   5486 ****       268.0000 351.0000 -62.2500 Du        
   5487 ****       268.0000 351.0000 -62.0000 Du        
   5488 ****       268.0000 351.0000 -61.7500 Du        
   5489 ****       268.0000 351.0000 -61.5000 Du        
   5490 ****       268.0000 351.0000 -61.2500 Du        
   5491 ****       268.0000 351.0000 -61.0000 Du        
   5492 ****       268.0000 351.0000 -60.7500 Du        
   5493 ****       268.0000 351.0000 -60.5000 Du        
   5494 ****       268.0000 351.0000 -60.2500 Du        
   5495 ****       268.0000 351.2500 -61.5000 Du        
   5496 ****       268.0000 351.2500 -61.2500 Du        
   5497 ****       268.0000 351.2500 -61.0000 Du        
   5498 ****       268.0000 351.2500 -60.7500 Du        
   5499 ****       268.0000 351.2500 -60.5000 Du        
   5500 ****       268.0000 351.2500 -60.2500 Du        
   5501 ****       268.0000 351.5000 -61.2500 Du        
   5502 ****       268.0000 351.5000 -61.0000 Du        
   5503 ****       268.0000 351.5000 -60.7500 Du        
   5504 ****       268.0000 351.5000 -60.5000 Du        
   5505 ****       268.0000 351.5000 -60.2500 Du        
   5506 ****       268.0000 351.7500 -61.2500 Du        
   5507 ****       268.0000 351.7500 -61.0000 Du        
   5508 ****       268.0000 351.7500 -60.7500 Du        
   5509 ****       268.0000 351.7500 -60.5000 Du        
   5510 ****       268.0000 352.0000 -61.0000 Du        
   5511 ****       268.0000 352.0000 -60.7500 Du        
   5512 ****       268.2500 345.0000 -56.2500 Du        
   5513 ****       268.2500 345.0000 -56.0000 Du        
   5514 ****       268.2500 345.2500 -57.0000 Du        
   5515 ****       268.2500 345.2500 -56.7500 Du        
   5516 ****       268.2500 345.2500 -56.5000 Du        
   5517 ****       268.2500 345.2500 -56.2500 Du        
   5518 ****       268.2500 345.2500 -56.0000 Du        
   5519 ****       268.2500 345.5000 -57.0000 Du        
   5520 ****       268.2500 345.5000 -56.7500 Du        
   5521 ****       268.2500 345.5000 -56.5000 Du        
   5522 ****       268.2500 345.5000 -56.2500 Du        
   5523 ****       268.2500 345.7500 -57.0000 Du        
   5524 ****       268.2500 345.7500 -56.7500 Du        
   5525 ****       268.2500 345.7500 -56.5000 Du        
   5526 ****       268.2500 346.0000 -56.5000 Du        
   5527 ****       268.2500 351.0000 -61.0000 Du        
   5528 ****       268.2500 351.0000 -60.7500 Du        
   5529 ****       268.2500 351.0000 -60.5000 Du        
   5530 ****       268.2500 351.0000 -60.2500 Du        
   5531 ****       268.2500 351.2500 -60.7500 Du        
   5532 ****       268.2500 351.2500 -60.5000 Du        
   5533 ****       268.2500 351.2500 -60.2500 Du        
   5534 ****       268.5000 345.0000 -56.2500 Du        
   5535 ****       268.5000 345.2500 -56.5000 Du        
   5536 ****       268.5000 345.2500 -56.2500 Du        
   5537 ****       268.5000 345.5000 -56.5000 Du        
   5538 ****       268.5000 347.0000 -62.7500 Du        
   5539 ****       268.7500 345.0000 -56.2500 Du        
   5540 ****       268.7500 345.2500 -56.5000 Du        
   5541 ****       268.7500 345.2500 -56.2500 Du        
   5542 ****       268.7500 345.5000 -56.5000 Du        
   5543 ****       268.7500 346.5000 -63.0000 Du        
   5544 ****       268.7500 346.5000 -62.7500 Du        
   5545 ****       268.7500 346.7500 -63.2500 Du        
   5546 ****       268.7500 346.7500 -63.0000 Du        
   5547 ****       268.7500 346.7500 -62.7500 Du        
   5548 ****       268.7500 347.0000 -63.2500 Du        
   5549 ****       268.7500 347.0000 -63.0000 Du        
   5550 ****       268.7500 347.0000 -62.7500 Du        
   5551 ****       268.7500 347.2500 -63.0000 Du        
   5552 ****       268.7500 347.2500 -62.7500 Du        
   5553 ****       269.0000 345.0000 -56.5000 Du        
   5554 ****       269.0000 345.0000 -56.2500 Du        
   5555 ****       269.0000 345.0000 -56.0000 Du        
   5556 ****       269.0000 345.2500 -56.5000 Du        
   5557 ****       269.0000 345.2500 -56.2500 Du        
   5558 ****       269.0000 346.5000 -63.2500 Du        
   5559 ****       269.0000 346.5000 -63.0000 Du        
   5560 ****       269.0000 346.5000 -62.7500 Du        
   5561 ****       269.0000 346.7500 -63.2500 Du        
   5562 ****       269.0000 346.7500 -63.0000 Du        
   5563 ****       269.0000 346.7500 -62.7500 Du        
   5564 ****       269.0000 347.0000 -63.2500 Du        
   5565 ****       269.0000 347.0000 -63.0000 Du        
   5566 ****       269.0000 347.0000 -62.7500 Du        
   5567 ****       269.0000 347.2500 -63.0000 Du        
   5568 ****       269.0000 347.2500 -62.7500 Du        
   5569 ****       269.2500 344.7500 -56.2500 Du        
   5570 ****       269.2500 344.7500 -56.0000 Du        
   5571 ****       269.2500 345.0000 -56.2500 Du        
   5572 ****       269.2500 345.0000 -56.0000 Du        
   5573 ****       269.2500 345.2500 -56.2500 Du        
   5574 ****       269.2500 346.2500 -62.7500 Du        
   5575 ****       269.2500 346.2500 -62.0000 Du        
   5576 ****       269.2500 346.5000 -63.2500 Du        
   5577 ****       269.2500 346.5000 -63.0000 Du        
   5578 ****       269.2500 346.5000 -62.7500 Du        
   5579 ****       269.2500 346.7500 -63.5000 Du        
   5580 ****       269.2500 346.7500 -63.2500 Du        
   5581 ****       269.2500 346.7500 -63.0000 Du        
   5582 ****       269.2500 346.7500 -62.7500 Du        
   5583 ****       269.2500 347.0000 -63.5000 Du        
   5584 ****       269.2500 347.0000 -63.2500 Du        
   5585 ****       269.2500 347.0000 -63.0000 Du        
   5586 ****       269.2500 347.0000 -62.7500 Du        
   5587 ****       269.2500 347.2500 -63.0000 Du        
   5588 ****       269.2500 347.2500 -62.7500 Du        
   5589 ****       269.5000 346.2500 -62.7500 Du        
   5590 ****       269.5000 346.5000 -63.2500 Du        
   5591 ****       269.5000 346.5000 -63.0000 Du        
   5592 ****       269.5000 346.5000 -62.7500 Du        
   5593 ****       269.5000 346.7500 -63.7500 Du        
   5594 ****       269.5000 346.7500 -63.5000 Du        
   5595 ****       269.5000 346.7500 -63.2500 Du        
   5596 ****       269.5000 346.7500 -63.0000 Du        
   5597 ****       269.5000 346.7500 -62.7500 Du        
   5598 ****       269.5000 347.0000 -63.7500 Du        
   5599 ****       269.5000 347.0000 -63.5000 Du        
   5600 ****       269.5000 347.0000 -63.2500 Du        
   5601 ****       269.5000 347.0000 -63.0000 Du        
   5602 ****       269.5000 347.0000 -62.7500 Du        
   5603 ****       269.5000 347.2500 -63.2500 Du        
   5604 ****       269.5000 347.2500 -63.0000 Du        
   5605 ****       270.0000 347.5000 -63.2500 Du        
   5606 ****       271.0000 352.0000 -66.0000 Du        
   5607 ****       271.0000 352.0000 -65.7500 Du        
   5608 ****       271.0000 352.2500 -66.2500 Du        
   5609 ****       271.0000 352.2500 -66.0000 Du        
   5610 ****       271.0000 352.2500 -65.7500 Du        
   5611 ****       271.0000 352.5000 -66.0000 Du        
   5612 ****       271.0000 352.5000 -65.7500 Du        
