#       Name:                CT1002167954
#       Creating user name   hitesit
#       Creation time:       Sun Apr 16 02:23:58 2023


#       File generated by GOLD software.
#

@<TRIPOS>MOLECULE
CT1002167954|ligand_prepared|mol2|1|dock7
    29    30     1
SMALL
NO_CHARGES


@<TRIPOS>ATOM
      1 C1         264.9967 348.1138 -56.9398 C.3            1 RES1               0.0000
      2 C2         264.6416 348.7583 -58.2952 C.ar           1 RES1               0.0000
      3 C3         265.8229 346.8714 -57.2595 C.2            1 RES1               0.0000
      4 C4         265.7511 349.1755 -56.1471 C.2            1 RES1               0.0000
      5 C5         263.7644 347.6840 -56.1103 C.3            1 RES1               0.0000
      6 C6         263.4191 349.3979 -58.4770 C.ar           1 RES1               0.0000
      7 C7         265.5257 348.7238 -59.3703 C.ar           1 RES1               0.0000
      8 N8         267.1636 346.9240 -57.0150 N.am           1 RES1               0.0000
      9 O9         265.3123 345.8747 -57.7556 O.2            1 RES1               0.0000
     10 N10        267.0694 348.9426 -55.8546 N.am           1 RES1               0.0000
     11 O11        265.2203 350.2192 -55.7876 O.2            1 RES1               0.0000
     12 C12        264.1016 346.7818 -54.9337 C.3            1 RES1               0.0000
     13 C13        263.0933 349.9844 -59.6887 C.ar           1 RES1               0.0000
     14 C14        265.1978 349.3107 -60.5813 C.ar           1 RES1               0.0000
     15 C15        267.8181 347.8789 -56.2791 C.2            1 RES1               0.0000
     16 C16        263.9824 349.9416 -60.7414 C.ar           1 RES1               0.0000
     17 O17        269.0130 347.7665 -56.0206 O.2            1 RES1               0.0000
     18 H18        263.2616 348.5831 -55.7331 H              1 RES1               0.0000
     19 H19        263.0617 347.1582 -56.7684 H              1 RES1               0.0000
     20 H20        262.7056 349.4396 -57.6608 H              1 RES1               0.0000
     21 H21        266.4870 348.2320 -59.2675 H              1 RES1               0.0000
     22 H22        267.7320 346.1851 -57.4164 H              1 RES1               0.0000
     23 H23        267.5358 349.6253 -55.2658 H              1 RES1               0.0000
     24 H24        263.2018 346.5099 -54.3858 H              1 RES1               0.0000
     25 H25        264.5804 345.8661 -55.2745 H              1 RES1               0.0000
     26 H26        264.7792 347.2827 -54.2453 H              1 RES1               0.0000
     27 H27        262.1350 350.4785 -59.8101 H              1 RES1               0.0000
     28 H28        265.9004 349.2741 -61.4073 H              1 RES1               0.0000
     29 H29        263.7272 350.4014 -61.6904 H              1 RES1               0.0000
@<TRIPOS>BOND
    1    1    2 1     
    2    1    3 1     
    3    1    4 1     
    4    1    5 1     
    5    2    6 ar    
    6    2    7 ar    
    7    3    8 1     
    8    3    9 2     
    9    4   10 1     
   10    4   11 2     
   11    5   12 1     
   12    5   18 1     
   13    5   19 1     
   14    6   13 ar    
   15    6   20 1     
   16    7   14 ar    
   17    7   21 1     
   18    8   15 1     
   19    8   22 1     
   20   10   15 1     
   21   10   23 1     
   22   12   24 1     
   23   12   25 1     
   24   12   26 1     
   25   13   16 ar    
   26   13   27 1     
   27   14   16 ar    
   28   14   28 1     
   29   15   17 2     
   30   16   29 1     
@<TRIPOS>SUBSTRUCTURE
      1 RES1           1
@<TRIPOS>SET
DONOR_HYDROGENS      STATIC     ATOMS    <user>   **** ""
2 22 23
ATOM$RED        STATIC     ATOMS    COLORGROUP SYSTEM
2 22 23
@<TRIPOS>COMMENT
> <Gold.Version>
2022.3.0

> <Gold.Id.Protein>
unknown|7ts3_clean|pdb

> <Gold.Protein.RotatedTorsions>
[ 18421 18376 18375 18373 ] final  177.48 input   60.01 | X-H torsion
[ 18225 18202 18201 18198 ] final  134.43 input   60.03 | X-H torsion
[ 16931 16868 16867 16865 ] final  -34.84 input   59.99 | X-H torsion
[ 11361 11338 11337 11334 ] final  -87.82 input   60.02 | X-H torsion
[ 26024 25971 25970 25968 ] final -169.37 input   59.99 | X-H torsion
[ 18579 18551 18549 18546 ] final  149.17 input   60.03 | X-H torsion

> <Gold.Protein.ActiveResidues>
 MET341  HIS342  TRP414  ARG419  CYS420  VAL421  GLY422  LEU429  LEU460  SER462 
 ALA463  ILE464  SER482  GLN483  ARG486  TRP566  TYR567  GLY568  LEU569  PRO570 
 ALA571  VAL572  SER573  ASN574  MET575  PRO588  PHE589  SER590  GLY591  TRP592 
 TYR593  MET594  GLY595  THR596  GLU597  ILE598  ARG601  ASP602  ARG608  ILE653 
 VAL654  TRP683  PHE709  GLU710  TYR711  HEM801  H4B802 

> <Gold.Protein.RotatedAtoms>
  271.6252  354.4586  -57.7799 H   0  0  0  0  0  0  0  0  0  0  0  0  # atno 11361 bound_to 11338
  264.7688  353.3725  -53.4715 H   0  0  0  0  0  0  0  0  0  0  0  0  # atno 16931 bound_to 16868
  257.6385  360.2194  -58.8900 H   0  0  0  0  0  0  0  0  0  0  0  0  # atno 18225 bound_to 18202
  262.9448  351.8806  -53.8441 H   0  0  0  0  0  0  0  0  0  0  0  0  # atno 18421 bound_to 18376
  257.5944  342.4901  -54.7899 H   0  0  0  0  0  0  0  0  0  0  0  0  # atno 18579 bound_to 18551
  266.3558  347.1720  -65.2931 H   0  0  0  0  0  0  0  0  0  0  0  0  # atno 26024 bound_to 25971
  262.8636  352.4703  -52.3301 LP  0  0  0  0  0  0  0  0  0  0  0  0  # atno 27283 bound_to 18376
  262.5857  353.4495  -53.6070 LP  0  0  0  0  0  0  0  0  0  0  0  0  # atno 27284 bound_to 18376
  257.2626  359.6218  -60.3564 LP  0  0  0  0  0  0  0  0  0  0  0  0  # atno 27303 bound_to 18202
  258.4958  360.6799  -60.1945 LP  0  0  0  0  0  0  0  0  0  0  0  0  # atno 27304 bound_to 18202
  265.9827  353.2432  -52.3960 LP  0  0  0  0  0  0  0  0  0  0  0  0  # atno 27315 bound_to 16868
  266.0116  354.4211  -53.5265 LP  0  0  0  0  0  0  0  0  0  0  0  0  # atno 27316 bound_to 16868
  270.6200  353.1898  -57.9468 LP  0  0  0  0  0  0  0  0  0  0  0  0  # atno 27322 bound_to 11338
  270.0187  354.7056  -57.8607 LP  0  0  0  0  0  0  0  0  0  0  0  0  # atno 27323 bound_to 11338
  267.1125  345.8152  -65.7771 LP  0  0  0  0  0  0  0  0  0  0  0  0  # atno 27328 bound_to 25971
  265.8589  346.4067  -66.6404 LP  0  0  0  0  0  0  0  0  0  0  0  0  # atno 27329 bound_to 25971

> <Gold.Score>
     Fitness  S(hb_ext) S(vdw_ext)  S(hb_int)    S(int)      intcor
     28.39       0.19      20.99       0.00      -0.67      -0.76

> <Gold.Goldscore.Fitness>
28.3854

> <Gold.Goldscore.Internal.Vdw>
-0.8012

> <Gold.Goldscore.Internal.Torsion>
-0.6303

> <Gold.Goldscore.External.Vdw>
20.9915

> <Gold.Goldscore.Internal.HBond>
0.0000

> <Gold.Goldscore.External.HBond>
0.1886

> <Gold.Goldscore.Internal.Correction>
-0.7650

> <Gold.Goldscore.Hbonds>
donor molecule, donor type, donor heavy atom, donor atom, acceptor molecule, acceptor atom, score
      P1  H 11384 11419       L1    11  0.04
      P1  H 18376 18421       L1    11  0.05

> <Gold.Goldscore.Internal.Vdw.Weighted>
-0.8012

> <Gold.Goldscore.Internal.Torsion.Weighted>
-0.6303

> <Gold.Goldscore.External.Vdw.Weighted>
28.8634

> <Gold.Goldscore.Internal.HBond.Weighted>
0.0000

> <Gold.Goldscore.External.HBond.Weighted>
0.1886

> <Gold.Goldscore.Internal.Correction.Weighted>
-0.7650

> <Gold.Rescore>
     Score     S(PLP)   S(hbond)     S(cho)   S(metal)  DE(clash)   DE(tors)     intcor
     17.99     -17.27       1.00       0.00       0.00       0.00       1.14       ----

> <Gold.PLP.Fitness>
17.9916

> <Gold.PLP.PLP>
-17.2673

> <Gold.PLP.part.hbond>
-1.0000

> <Gold.PLP.part.metal>
0.0000

> <Gold.PLP.part.buried>
-5.4534

> <Gold.PLP.part.nonpolar>
-16.6753

> <Gold.PLP.part.repulsive>
4.7560

> <Gold.PLP.ligand.clash>
0.0000

> <Gold.PLP.ligand.torsion>
1.1379

> <Gold.PLP.Chemscore.Hbond>
1.0000

> <Gold.PLP.Chemscore.CHOScore>
0.0000

> <Gold.PLP.Chemscore.Metal>
0.0000

> <Gold.Chemscore.Hbonds>
donor molecule, donor type, donor heavy atom, donor atom, acceptor molecule, acceptor atom, score
      P1  H 11384 11419       L1    11  1.00

> <Gold.PLP.Chemscore.Internal.Correction>
   9.000000E+99

