#       Name:                CT1002167954
#       Creating user name   hitesit
#       Creation time:       Sun Apr 16 02:23:55 2023


#       File generated by GOLD software.
#

@<TRIPOS>MOLECULE
CT1002167954|ligand_prepared|mol2|1|dock3
    29    30     1
SMALL
NO_CHARGES


@<TRIPOS>ATOM
      1 C1         262.6842 351.3434 -58.4118 C.3            1 RES1               0.0000
      2 C2         261.5338 351.7177 -59.3685 C.ar           1 RES1               0.0000
      3 C3         262.8802 349.8362 -58.5465 C.2            1 RES1               0.0000
      4 C4         263.8889 352.1690 -58.8497 C.2            1 RES1               0.0000
      5 C5         262.3947 351.6705 -56.9283 C.3            1 RES1               0.0000
      6 C6         261.0538 353.0228 -59.4231 C.ar           1 RES1               0.0000
      7 C7         260.9453 350.7710 -60.2028 C.ar           1 RES1               0.0000
      8 N8         263.9779 349.4002 -59.2283 N.am           1 RES1               0.0000
      9 O9         262.0633 349.0427 -58.0955 O.2            1 RES1               0.0000
     10 N10        264.9745 351.5027 -59.3551 N.am           1 RES1               0.0000
     11 O11        263.9014 353.3916 -58.7772 O.2            1 RES1               0.0000
     12 C12        263.3802 351.0391 -55.9576 C.3            1 RES1               0.0000
     13 C13        260.0248 353.3698 -60.2828 C.ar           1 RES1               0.0000
     14 C14        259.9162 351.1201 -61.0617 C.ar           1 RES1               0.0000
     15 C15        265.0617 350.1580 -59.5928 C.2            1 RES1               0.0000
     16 C16        259.4557 352.4190 -61.1029 C.ar           1 RES1               0.0000
     17 O17        266.0517 349.6394 -60.1007 O.2            1 RES1               0.0000
     18 H18        262.4170 352.7592 -56.7959 H              1 RES1               0.0000
     19 H19        261.3839 351.3232 -56.6810 H              1 RES1               0.0000
     20 H20        261.4877 353.7841 -58.7834 H              1 RES1               0.0000
     21 H21        261.2907 349.7429 -60.1866 H              1 RES1               0.0000
     22 H22        263.9945 348.4200 -59.4916 H              1 RES1               0.0000
     23 H23        265.7935 352.0608 -59.5743 H              1 RES1               0.0000
     24 H24        263.1315 351.3001 -54.9311 H              1 RES1               0.0000
     25 H25        263.3661 349.9546 -56.0444 H              1 RES1               0.0000
     26 H26        264.3930 351.3820 -56.1587 H              1 RES1               0.0000
     27 H27        259.6651 354.3930 -60.3104 H              1 RES1               0.0000
     28 H28        259.4708 350.3684 -61.7049 H              1 RES1               0.0000
     29 H29        258.6498 352.6911 -61.7765 H              1 RES1               0.0000
@<TRIPOS>BOND
    1    1    2 1     
    2    1    3 1     
    3    1    4 1     
    4    1    5 1     
    5    2    6 ar    
    6    2    7 ar    
    7    3    8 1     
    8    3    9 2     
    9    4   10 1     
   10    4   11 2     
   11    5   12 1     
   12    5   18 1     
   13    5   19 1     
   14    6   13 ar    
   15    6   20 1     
   16    7   14 ar    
   17    7   21 1     
   18    8   15 1     
   19    8   22 1     
   20   10   15 1     
   21   10   23 1     
   22   12   24 1     
   23   12   25 1     
   24   12   26 1     
   25   13   16 ar    
   26   13   27 1     
   27   14   16 ar    
   28   14   28 1     
   29   15   17 2     
   30   16   29 1     
@<TRIPOS>SUBSTRUCTURE
      1 RES1           1
@<TRIPOS>SET
DONOR_HYDROGENS      STATIC     ATOMS    <user>   **** ""
2 22 23
ATOM$RED        STATIC     ATOMS    COLORGROUP SYSTEM
2 22 23
@<TRIPOS>COMMENT
> <Gold.Version>
2022.3.0

> <Gold.Id.Protein>
unknown|7ts3_clean|pdb

> <Gold.Protein.RotatedTorsions>
[ 18421 18376 18375 18373 ] final   52.93 input   60.01 | X-H torsion
[ 18225 18202 18201 18198 ] final  162.50 input   60.03 | X-H torsion
[ 16931 16868 16867 16865 ] final  -49.52 input   59.99 | X-H torsion
[ 11361 11338 11337 11334 ] final  135.61 input   60.02 | X-H torsion
[ 26024 25971 25970 25968 ] final  -58.25 input   59.99 | X-H torsion
[ 18579 18551 18549 18546 ] final   22.58 input   60.03 | X-H torsion

> <Gold.Protein.ActiveResidues>
 MET341  HIS342  TRP414  ARG419  CYS420  VAL421  GLY422  LEU429  LEU460  SER462 
 ALA463  ILE464  SER482  GLN483  ARG486  TRP566  TYR567  GLY568  LEU569  PRO570 
 ALA571  VAL572  SER573  ASN574  MET575  PRO588  PHE589  SER590  GLY591  TRP592 
 TYR593  MET594  GLY595  THR596  GLU597  ILE598  ARG601  ASP602  ARG608  ILE653 
 VAL654  TRP683  PHE709  GLU710  TYR711  HEM801  H4B802 

> <Gold.Protein.RotatedAtoms>
  270.3630  353.2747  -57.9590 H   0  0  0  0  0  0  0  0  0  0  0  0  # atno 11361 bound_to 11338
  264.7912  353.2114  -53.2962 H   0  0  0  0  0  0  0  0  0  0  0  0  # atno 16931 bound_to 16868
  257.9903  360.4995  -58.9548 H   0  0  0  0  0  0  0  0  0  0  0  0  # atno 18225 bound_to 18202
  262.8442  352.5427  -52.3289 H   0  0  0  0  0  0  0  0  0  0  0  0  # atno 18421 bound_to 18376
  257.6422  344.0283  -54.1340 H   0  0  0  0  0  0  0  0  0  0  0  0  # atno 18579 bound_to 18551
  265.8046  346.5296  -66.5848 H   0  0  0  0  0  0  0  0  0  0  0  0  # atno 26024 bound_to 25971
  262.5903  353.4196  -53.6755 LP  0  0  0  0  0  0  0  0  0  0  0  0  # atno 27283 bound_to 18376
  262.9605  351.8331  -53.7883 LP  0  0  0  0  0  0  0  0  0  0  0  0  # atno 27284 bound_to 18376
  257.0920  359.5622  -59.9362 LP  0  0  0  0  0  0  0  0  0  0  0  0  # atno 27303 bound_to 18202
  258.3122  360.4575  -60.5495 LP  0  0  0  0  0  0  0  0  0  0  0  0  # atno 27304 bound_to 18202
  266.1523  353.4113  -52.4274 LP  0  0  0  0  0  0  0  0  0  0  0  0  # atno 27315 bound_to 16868
  265.8194  354.4152  -53.6717 LP  0  0  0  0  0  0  0  0  0  0  0  0  # atno 27316 bound_to 16868
  270.2158  354.8904  -57.8328 LP  0  0  0  0  0  0  0  0  0  0  0  0  # atno 27322 bound_to 11338
  271.6937  354.1969  -57.7944 LP  0  0  0  0  0  0  0  0  0  0  0  0  # atno 27323 bound_to 11338
  266.4660  347.1142  -65.2177 LP  0  0  0  0  0  0  0  0  0  0  0  0  # atno 27328 bound_to 25971
  267.0604  345.7544  -65.8993 LP  0  0  0  0  0  0  0  0  0  0  0  0  # atno 27329 bound_to 25971

> <Gold.Score>
     Fitness  S(hb_ext) S(vdw_ext)  S(hb_int)    S(int)      intcor
     35.72       4.90      24.49       0.00      -2.86      -0.76

> <Gold.Goldscore.Fitness>
35.7188

> <Gold.Goldscore.Internal.Vdw>
-3.0050

> <Gold.Goldscore.Internal.Torsion>
-0.6159

> <Gold.Goldscore.External.Vdw>
24.4935

> <Gold.Goldscore.Internal.HBond>
0.0000

> <Gold.Goldscore.External.HBond>
4.8962

> <Gold.Goldscore.Internal.Correction>
-0.7650

> <Gold.Goldscore.Hbonds>
donor molecule, donor type, donor heavy atom, donor atom, acceptor molecule, acceptor atom, score
      L1  H     8    22       P1 26829  0.82

> <Gold.Goldscore.Internal.Vdw.Weighted>
-3.0050

> <Gold.Goldscore.Internal.Torsion.Weighted>
-0.6159

> <Gold.Goldscore.External.Vdw.Weighted>
33.6785

> <Gold.Goldscore.Internal.HBond.Weighted>
0.0000

> <Gold.Goldscore.External.HBond.Weighted>
4.8962

> <Gold.Goldscore.Internal.Correction.Weighted>
-0.7650

> <Gold.Rescore>
     Score     S(PLP)   S(hbond)     S(cho)   S(metal)  DE(clash)   DE(tors)     intcor
     21.35     -20.92       1.00       0.00       0.00       1.30       0.64       ----

> <Gold.PLP.Fitness>
21.3462

> <Gold.PLP.PLP>
-20.9248

> <Gold.PLP.part.hbond>
-1.9115

> <Gold.PLP.part.metal>
0.0000

> <Gold.PLP.part.buried>
12.5033

> <Gold.PLP.part.nonpolar>
-40.2105

> <Gold.PLP.part.repulsive>
6.3413

> <Gold.PLP.ligand.clash>
1.3030

> <Gold.PLP.ligand.torsion>
0.6378

> <Gold.PLP.Chemscore.Hbond>
1.0000

> <Gold.PLP.Chemscore.CHOScore>
0.0000

> <Gold.PLP.Chemscore.Metal>
0.0000

> <Gold.Chemscore.Hbonds>
donor molecule, donor type, donor heavy atom, donor atom, acceptor molecule, acceptor atom, score
      L1  H     8    22       P1 26829  1.00

> <Gold.PLP.Chemscore.Internal.Correction>
   9.000000E+99

