#       Name:                CT1002167954
#       Creating user name   hitesit
#       Creation time:       Sun Apr 16 02:24:01 2023


#       File generated by GOLD software.
#

@<TRIPOS>MOLECULE
CT1002167954|ligand_prepared|mol2|1|dock10
    29    30     1
SMALL
NO_CHARGES


@<TRIPOS>ATOM
      1 C1         265.3169 348.1438 -56.2784 C.3            1 RES1               0.0000
      2 C2         264.5520 348.9523 -57.3461 C.ar           1 RES1               0.0000
      3 C3         266.1409 347.1064 -57.0354 C.2            1 RES1               0.0000
      4 C4         266.1520 349.1520 -55.4969 C.2            1 RES1               0.0000
      5 C5         264.3985 347.4058 -55.2767 C.3            1 RES1               0.0000
      6 C6         263.4933 349.7801 -56.9844 C.ar           1 RES1               0.0000
      7 C7         264.8945 348.8829 -58.6939 C.ar           1 RES1               0.0000
      8 N8         267.4868 347.3090 -57.1215 N.am           1 RES1               0.0000
      9 O9         265.6128 346.1461 -57.5822 O.2            1 RES1               0.0000
     10 N10        267.5164 349.0649 -55.5899 N.am           1 RES1               0.0000
     11 O11        265.6407 350.0315 -54.8148 O.2            1 RES1               0.0000
     12 C12        263.2107 346.7151 -55.9281 C.3            1 RES1               0.0000
     13 C13        262.8039 350.5142 -57.9353 C.ar           1 RES1               0.0000
     14 C14        264.2035 349.6177 -59.6431 C.ar           1 RES1               0.0000
     15 C15        268.2212 348.2084 -56.3911 C.2            1 RES1               0.0000
     16 C16        263.1587 350.4339 -59.2650 C.ar           1 RES1               0.0000
     17 O17        269.4467 348.2268 -56.4616 O.2            1 RES1               0.0000
     18 H18        264.9922 346.6558 -54.7398 H              1 RES1               0.0000
     19 H19        264.0262 348.1286 -54.5403 H              1 RES1               0.0000
     20 H20        263.1982 349.8542 -55.9431 H              1 RES1               0.0000
     21 H21        265.7123 348.2466 -59.0145 H              1 RES1               0.0000
     22 H22        267.9942 346.7392 -57.7909 H              1 RES1               0.0000
     23 H23        268.0567 349.6971 -55.0078 H              1 RES1               0.0000
     24 H24        262.5993 346.2130 -55.1812 H              1 RES1               0.0000
     25 H25        262.5843 347.4354 -56.4502 H              1 RES1               0.0000
     26 H26        263.5446 345.9712 -56.6485 H              1 RES1               0.0000
     27 H27        261.9815 351.1540 -57.6327 H              1 RES1               0.0000
     28 H28        264.4858 349.5510 -60.6886 H              1 RES1               0.0000
     29 H29        262.6188 351.0094 -60.0096 H              1 RES1               0.0000
@<TRIPOS>BOND
    1    1    2 1     
    2    1    3 1     
    3    1    4 1     
    4    1    5 1     
    5    2    6 ar    
    6    2    7 ar    
    7    3    8 1     
    8    3    9 2     
    9    4   10 1     
   10    4   11 2     
   11    5   12 1     
   12    5   18 1     
   13    5   19 1     
   14    6   13 ar    
   15    6   20 1     
   16    7   14 ar    
   17    7   21 1     
   18    8   15 1     
   19    8   22 1     
   20   10   15 1     
   21   10   23 1     
   22   12   24 1     
   23   12   25 1     
   24   12   26 1     
   25   13   16 ar    
   26   13   27 1     
   27   14   16 ar    
   28   14   28 1     
   29   15   17 2     
   30   16   29 1     
@<TRIPOS>SUBSTRUCTURE
      1 RES1           1
@<TRIPOS>SET
DONOR_HYDROGENS      STATIC     ATOMS    <user>   **** ""
2 22 23
ATOM$RED        STATIC     ATOMS    COLORGROUP SYSTEM
2 22 23
@<TRIPOS>COMMENT
> <Gold.Version>
2022.3.0

> <Gold.Id.Protein>
unknown|7ts3_clean|pdb

> <Gold.Protein.RotatedTorsions>
[ 18421 18376 18375 18373 ] final  136.30 input   60.01 | X-H torsion
[ 18225 18202 18201 18198 ] final  -38.57 input   60.03 | X-H torsion
[ 16931 16868 16867 16865 ] final    2.45 input   59.99 | X-H torsion
[ 11361 11338 11337 11334 ] final  150.79 input   60.02 | X-H torsion
[ 26024 25971 25970 25968 ] final -159.97 input   59.99 | X-H torsion
[ 18579 18551 18549 18546 ] final -174.17 input   60.03 | X-H torsion

> <Gold.Protein.ActiveResidues>
 MET341  HIS342  TRP414  ARG419  CYS420  VAL421  GLY422  LEU429  LEU460  SER462 
 ALA463  ILE464  SER482  GLN483  ARG486  TRP566  TYR567  GLY568  LEU569  PRO570 
 ALA571  VAL572  SER573  ASN574  MET575  PRO588  PHE589  SER590  GLY591  TRP592 
 TYR593  MET594  GLY595  THR596  GLU597  ILE598  ARG601  ASP602  ARG608  ILE653 
 VAL654  TRP683  PHE709  GLU710  TYR711  HEM801  H4B802 

> <Gold.Protein.RotatedAtoms>
  270.5987  353.2000  -57.9500 H   0  0  0  0  0  0  0  0  0  0  0  0  # atno 11361 bound_to 11338
  264.9456  353.8443  -53.7945 H   0  0  0  0  0  0  0  0  0  0  0  0  # atno 16931 bound_to 16868
  257.8728  360.0526  -60.7371 H   0  0  0  0  0  0  0  0  0  0  0  0  # atno 18225 bound_to 18202
  263.0131  351.6886  -53.2183 H   0  0  0  0  0  0  0  0  0  0  0  0  # atno 18421 bound_to 18376
  257.0463  342.3456  -54.6300 H   0  0  0  0  0  0  0  0  0  0  0  0  # atno 18579 bound_to 18551
  266.2396  347.2180  -65.3821 H   0  0  0  0  0  0  0  0  0  0  0  0  # atno 26024 bound_to 25971
  262.7099  353.1003  -52.4687 LP  0  0  0  0  0  0  0  0  0  0  0  0  # atno 27283 bound_to 18376
  262.6707  353.0130  -54.0989 LP  0  0  0  0  0  0  0  0  0  0  0  0  # atno 27284 bound_to 18376
  258.3904  360.7550  -59.3632 LP  0  0  0  0  0  0  0  0  0  0  0  0  # atno 27303 bound_to 18202
  257.1321  359.7147  -59.3278 LP  0  0  0  0  0  0  0  0  0  0  0  0  # atno 27304 bound_to 18202
  265.4653  352.9638  -52.5289 LP  0  0  0  0  0  0  0  0  0  0  0  0  # atno 27315 bound_to 16868
  266.3509  354.2253  -53.0683 LP  0  0  0  0  0  0  0  0  0  0  0  0  # atno 27316 bound_to 16868
  270.0331  354.7232  -57.8584 LP  0  0  0  0  0  0  0  0  0  0  0  0  # atno 27322 bound_to 11338
  271.6392  354.4393  -57.7779 LP  0  0  0  0  0  0  0  0  0  0  0  0  # atno 27323 bound_to 11338
  267.1501  345.8964  -65.6512 LP  0  0  0  0  0  0  0  0  0  0  0  0  # atno 27328 bound_to 25971
  265.9383  346.2792  -66.6767 LP  0  0  0  0  0  0  0  0  0  0  0  0  # atno 27329 bound_to 25971

> <Gold.Score>
     Fitness  S(hb_ext) S(vdw_ext)  S(hb_int)    S(int)      intcor
     30.54       0.32      24.15       0.00      -3.00      -0.76

> <Gold.Goldscore.Fitness>
30.5363

> <Gold.Goldscore.Internal.Vdw>
-2.9681

> <Gold.Goldscore.Internal.Torsion>
-0.7948

> <Gold.Goldscore.External.Vdw>
24.1524

> <Gold.Goldscore.Internal.HBond>
0.0000

> <Gold.Goldscore.External.HBond>
0.3247

> <Gold.Goldscore.Internal.Correction>
-0.7650

> <Gold.Goldscore.Hbonds>
donor molecule, donor type, donor heavy atom, donor atom, acceptor molecule, acceptor atom, score
      P1  H 11384 11419       L1    11  0.02
      P1  H 11607 11665       L1    17  0.05

> <Gold.Goldscore.Internal.Vdw.Weighted>
-2.9681

> <Gold.Goldscore.Internal.Torsion.Weighted>
-0.7948

> <Gold.Goldscore.External.Vdw.Weighted>
33.2096

> <Gold.Goldscore.Internal.HBond.Weighted>
0.0000

> <Gold.Goldscore.External.HBond.Weighted>
0.3247

> <Gold.Goldscore.Internal.Correction.Weighted>
-0.7650

> <Gold.Rescore>
     Score     S(PLP)   S(hbond)     S(cho)   S(metal)  DE(clash)   DE(tors)     intcor
     18.17     -17.87       0.76       0.00       0.00       0.00       0.98       ----

> <Gold.PLP.Fitness>
18.1724

> <Gold.PLP.PLP>
-17.8653

> <Gold.PLP.part.hbond>
-2.3873

> <Gold.PLP.part.metal>
0.0000

> <Gold.PLP.part.buried>
-1.3553

> <Gold.PLP.part.nonpolar>
-21.4054

> <Gold.PLP.part.repulsive>
5.7936

> <Gold.PLP.ligand.clash>
0.0000

> <Gold.PLP.ligand.torsion>
0.9809

> <Gold.PLP.Chemscore.Hbond>
0.7563

> <Gold.PLP.Chemscore.CHOScore>
0.0000

> <Gold.PLP.Chemscore.Metal>
0.0000

> <Gold.Chemscore.Hbonds>
donor molecule, donor type, donor heavy atom, donor atom, acceptor molecule, acceptor atom, score
      P1  H 11384 11419       L1    11  0.31

> <Gold.PLP.Chemscore.Internal.Correction>
   9.000000E+99

