#       Name:                CT1002167954
#       Creating user name   hitesit
#       Creation time:       Sun Apr 16 02:24:00 2023


#       File generated by GOLD software.
#

@<TRIPOS>MOLECULE
CT1002167954|ligand_prepared|mol2|1|dock9
    29    30     1
SMALL
NO_CHARGES


@<TRIPOS>ATOM
      1 C1         264.7226 350.0494 -61.3637 C.3            1 RES1               0.0000
      2 C2         263.2904 350.3696 -60.8893 C.ar           1 RES1               0.0000
      3 C3         265.6542 350.4797 -60.2345 C.2            1 RES1               0.0000
      4 C4         264.7504 348.5535 -61.6573 C.2            1 RES1               0.0000
      5 C5         265.1355 350.7971 -62.6529 C.3            1 RES1               0.0000
      6 C6         262.2233 350.3321 -61.7818 C.ar           1 RES1               0.0000
      7 C7         263.0208 350.7008 -59.5641 C.ar           1 RES1               0.0000
      8 N8         266.2257 349.4989 -59.4785 N.am           1 RES1               0.0000
      9 O9         265.8534 351.6624 -59.9859 O.2            1 RES1               0.0000
     10 N10        265.5422 347.7592 -60.8700 N.am           1 RES1               0.0000
     11 O11        264.0809 348.0532 -62.5527 O.2            1 RES1               0.0000
     12 C12        266.5412 350.4669 -63.1296 C.3            1 RES1               0.0000
     13 C13        260.9329 350.6127 -61.3641 C.ar           1 RES1               0.0000
     14 C14        261.7296 350.9813 -59.1485 C.ar           1 RES1               0.0000
     15 C15        266.2573 348.1598 -59.7744 C.2            1 RES1               0.0000
     16 C16        260.6851 350.9370 -60.0473 C.ar           1 RES1               0.0000
     17 O17        266.9026 347.3764 -59.0836 O.2            1 RES1               0.0000
     18 H18        264.4244 350.5463 -63.4497 H              1 RES1               0.0000
     19 H19        265.0688 351.8769 -62.4716 H              1 RES1               0.0000
     20 H20        262.3993 350.0813 -62.8226 H              1 RES1               0.0000
     21 H21        263.8271 350.7428 -58.8397 H              1 RES1               0.0000
     22 H22        266.6705 349.7878 -58.6131 H              1 RES1               0.0000
     23 H23        265.6044 346.7785 -61.1243 H              1 RES1               0.0000
     24 H24        266.7802 351.0180 -64.0368 H              1 RES1               0.0000
     25 H25        267.2768 350.7271 -62.3713 H              1 RES1               0.0000
     26 H26        266.6363 349.4043 -63.3436 H              1 RES1               0.0000
     27 H27        260.1146 350.5779 -62.0757 H              1 RES1               0.0000
     28 H28        261.5393 351.2367 -58.1113 H              1 RES1               0.0000
     29 H29        259.6741 351.1564 -59.7203 H              1 RES1               0.0000
@<TRIPOS>BOND
    1    1    2 1     
    2    1    3 1     
    3    1    4 1     
    4    1    5 1     
    5    2    6 ar    
    6    2    7 ar    
    7    3    8 1     
    8    3    9 2     
    9    4   10 1     
   10    4   11 2     
   11    5   12 1     
   12    5   18 1     
   13    5   19 1     
   14    6   13 ar    
   15    6   20 1     
   16    7   14 ar    
   17    7   21 1     
   18    8   15 1     
   19    8   22 1     
   20   10   15 1     
   21   10   23 1     
   22   12   24 1     
   23   12   25 1     
   24   12   26 1     
   25   13   16 ar    
   26   13   27 1     
   27   14   16 ar    
   28   14   28 1     
   29   15   17 2     
   30   16   29 1     
@<TRIPOS>SUBSTRUCTURE
      1 RES1           1
@<TRIPOS>SET
DONOR_HYDROGENS      STATIC     ATOMS    <user>   **** ""
2 22 23
ATOM$RED        STATIC     ATOMS    COLORGROUP SYSTEM
2 22 23
@<TRIPOS>COMMENT
> <Gold.Version>
2022.3.0

> <Gold.Id.Protein>
unknown|7ts3_clean|pdb

> <Gold.Protein.RotatedTorsions>
[ 18421 18376 18375 18373 ] final -118.15 input   60.01 | X-H torsion
[ 18225 18202 18201 18198 ] final  -84.36 input   60.03 | X-H torsion
[ 16931 16868 16867 16865 ] final -127.76 input   59.99 | X-H torsion
[ 11361 11338 11337 11334 ] final  141.31 input   60.02 | X-H torsion
[ 26024 25971 25970 25968 ] final -171.27 input   59.99 | X-H torsion
[ 18579 18551 18549 18546 ] final   32.81 input   60.03 | X-H torsion

> <Gold.Protein.ActiveResidues>
 MET341  HIS342  TRP414  ARG419  CYS420  VAL421  GLY422  LEU429  LEU460  SER462 
 ALA463  ILE464  SER482  GLN483  ARG486  TRP566  TYR567  GLY568  LEU569  PRO570 
 ALA571  VAL572  SER573  ASN574  MET575  PRO588  PHE589  SER590  GLY591  TRP592 
 TYR593  MET594  GLY595  THR596  GLU597  ILE598  ARG601  ASP602  ARG608  ILE653 
 VAL654  TRP683  PHE709  GLU710  TYR711  HEM801  H4B802 

> <Gold.Protein.RotatedAtoms>
  270.4491  353.2394  -57.9564 H   0  0  0  0  0  0  0  0  0  0  0  0  # atno 11361 bound_to 11338
  265.6098  353.0207  -52.4664 H   0  0  0  0  0  0  0  0  0  0  0  0  # atno 16931 bound_to 16868
  258.3678  360.5166  -60.4713 H   0  0  0  0  0  0  0  0  0  0  0  0  # atno 18225 bound_to 18202
  262.7173  352.7935  -54.1734 H   0  0  0  0  0  0  0  0  0  0  0  0  # atno 18421 bound_to 18376
  257.7725  343.9633  -54.2156 H   0  0  0  0  0  0  0  0  0  0  0  0  # atno 18579 bound_to 18551
  266.3797  347.1604  -65.2770 H   0  0  0  0  0  0  0  0  0  0  0  0  # atno 26024 bound_to 25971
  263.0158  351.7238  -52.9845 LP  0  0  0  0  0  0  0  0  0  0  0  0  # atno 27283 bound_to 18376
  262.6628  353.2761  -52.6207 LP  0  0  0  0  0  0  0  0  0  0  0  0  # atno 27284 bound_to 18376
  257.9048  360.4391  -58.9130 LP  0  0  0  0  0  0  0  0  0  0  0  0  # atno 27303 bound_to 18202
  257.1192  359.5634  -60.0456 LP  0  0  0  0  0  0  0  0  0  0  0  0  # atno 27304 bound_to 18202
  266.2853  354.3067  -53.1995 LP  0  0  0  0  0  0  0  0  0  0  0  0  # atno 27315 bound_to 16868
  264.8619  353.7119  -53.7353 LP  0  0  0  0  0  0  0  0  0  0  0  0  # atno 27316 bound_to 16868
  270.1420  354.8334  -57.8422 LP  0  0  0  0  0  0  0  0  0  0  0  0  # atno 27322 bound_to 11338
  271.6808  354.2895  -57.7876 LP  0  0  0  0  0  0  0  0  0  0  0  0  # atno 27323 bound_to 11338
  267.1027  345.8008  -65.8031 LP  0  0  0  0  0  0  0  0  0  0  0  0  # atno 27328 bound_to 25971
  265.8447  346.4327  -66.6306 LP  0  0  0  0  0  0  0  0  0  0  0  0  # atno 27329 bound_to 25971

> <Gold.Score>
     Fitness  S(hb_ext) S(vdw_ext)  S(hb_int)    S(int)      intcor
     31.93       0.00      24.51       0.00      -1.77      -0.76

> <Gold.Goldscore.Fitness>
31.9277

> <Gold.Goldscore.Internal.Vdw>
-2.1662

> <Gold.Goldscore.Internal.Torsion>
-0.3684

> <Gold.Goldscore.External.Vdw>
24.5072

> <Gold.Goldscore.Internal.HBond>
0.0000

> <Gold.Goldscore.External.HBond>
0.0000

> <Gold.Goldscore.Internal.Correction>
-0.7650

> <Gold.Goldscore.Internal.Vdw.Weighted>
-2.1662

> <Gold.Goldscore.Internal.Torsion.Weighted>
-0.3684

> <Gold.Goldscore.External.Vdw.Weighted>
33.6974

> <Gold.Goldscore.Internal.HBond.Weighted>
0.0000

> <Gold.Goldscore.External.HBond.Weighted>
0.0000

> <Gold.Goldscore.Internal.Correction.Weighted>
-0.7650

> <Gold.Rescore>
     Score     S(PLP)   S(hbond)     S(cho)   S(metal)  DE(clash)   DE(tors)     intcor
     34.40     -34.17       0.59       0.00       0.00       1.37       0.09       ----

> <Gold.PLP.Fitness>
34.3993

> <Gold.PLP.PLP>
-34.1653

> <Gold.PLP.part.hbond>
-1.8672

> <Gold.PLP.part.metal>
0.0000

> <Gold.PLP.part.buried>
-4.1505

> <Gold.PLP.part.nonpolar>
-32.1258

> <Gold.PLP.part.repulsive>
2.7349

> <Gold.PLP.ligand.clash>
1.3667

> <Gold.PLP.ligand.torsion>
0.0876

> <Gold.PLP.Chemscore.Hbond>
0.5920

> <Gold.PLP.Chemscore.CHOScore>
0.0000

> <Gold.PLP.Chemscore.Metal>
0.0000

> <Gold.PLP.Chemscore.Internal.Correction>
   9.000000E+99

