#       Name:                CT1002167954
#       Creating user name   hitesit
#       Creation time:       Sun Apr 16 02:23:56 2023


#       File generated by GOLD software.
#

@<TRIPOS>MOLECULE
CT1002167954|ligand_prepared|mol2|1|dock4
    29    30     1
SMALL
NO_CHARGES


@<TRIPOS>ATOM
      1 C1         262.4333 350.8646 -58.4374 C.3            1 RES1               0.0000
      2 C2         260.9237 351.0951 -58.6535 C.ar           1 RES1               0.0000
      3 C3         262.9825 352.1562 -57.8387 C.2            1 RES1               0.0000
      4 C4         262.5527 349.6532 -57.5192 C.2            1 RES1               0.0000
      5 C5         263.2108 350.5566 -59.7382 C.3            1 RES1               0.0000
      6 C6         260.4401 351.5089 -59.8911 C.ar           1 RES1               0.0000
      7 C7         260.0038 350.8958 -57.6274 C.ar           1 RES1               0.0000
      8 N8         263.3046 352.1514 -56.5135 N.am           1 RES1               0.0000
      9 O9         263.0941 353.1747 -58.5098 O.2            1 RES1               0.0000
     10 N10        263.0751 349.8456 -56.2671 N.am           1 RES1               0.0000
     11 O11        262.1838 348.5369 -57.8628 O.2            1 RES1               0.0000
     12 C12        264.6206 350.0383 -59.5017 C.3            1 RES1               0.0000
     13 C13        259.0857 351.7133 -60.0964 C.ar           1 RES1               0.0000
     14 C14        258.6498 351.1010 -57.8349 C.ar           1 RES1               0.0000
     15 C15        263.4279 351.0453 -55.7116 C.2            1 RES1               0.0000
     16 C16        258.1897 351.5091 -59.0688 C.ar           1 RES1               0.0000
     17 O17        263.8393 351.1446 -54.5592 O.2            1 RES1               0.0000
     18 H18        262.6520 349.8094 -60.3150 H              1 RES1               0.0000
     19 H19        263.2675 351.4716 -60.3407 H              1 RES1               0.0000
     20 H20        261.1304 351.6770 -60.7110 H              1 RES1               0.0000
     21 H21        260.3431 350.5759 -56.6481 H              1 RES1               0.0000
     22 H22        263.4689 353.0536 -56.0785 H              1 RES1               0.0000
     23 H23        263.2138 349.0179 -55.6962 H              1 RES1               0.0000
     24 H24        265.1216 349.8382 -60.4465 H              1 RES1               0.0000
     25 H25        265.2125 350.7673 -58.9520 H              1 RES1               0.0000
     26 H26        264.6007 349.1149 -58.9265 H              1 RES1               0.0000
     27 H27        258.7288 352.0357 -61.0690 H              1 RES1               0.0000
     28 H28        257.9483 350.9397 -57.0231 H              1 RES1               0.0000
     29 H29        257.1287 351.6689 -59.2300 H              1 RES1               0.0000
@<TRIPOS>BOND
    1    1    2 1     
    2    1    3 1     
    3    1    4 1     
    4    1    5 1     
    5    2    6 ar    
    6    2    7 ar    
    7    3    8 1     
    8    3    9 2     
    9    4   10 1     
   10    4   11 2     
   11    5   12 1     
   12    5   18 1     
   13    5   19 1     
   14    6   13 ar    
   15    6   20 1     
   16    7   14 ar    
   17    7   21 1     
   18    8   15 1     
   19    8   22 1     
   20   10   15 1     
   21   10   23 1     
   22   12   24 1     
   23   12   25 1     
   24   12   26 1     
   25   13   16 ar    
   26   13   27 1     
   27   14   16 ar    
   28   14   28 1     
   29   15   17 2     
   30   16   29 1     
@<TRIPOS>SUBSTRUCTURE
      1 RES1           1
@<TRIPOS>SET
DONOR_HYDROGENS      STATIC     ATOMS    <user>   **** ""
2 22 23
ATOM$RED        STATIC     ATOMS    COLORGROUP SYSTEM
2 22 23
@<TRIPOS>COMMENT
> <Gold.Version>
2022.3.0

> <Gold.Id.Protein>
unknown|7ts3_clean|pdb

> <Gold.Protein.RotatedTorsions>
[ 18421 18376 18375 18373 ] final  -59.63 input   60.01 | X-H torsion
[ 18225 18202 18201 18198 ] final   17.03 input   60.03 | X-H torsion
[ 16931 16868 16867 16865 ] final  -43.45 input   59.99 | X-H torsion
[ 11361 11338 11337 11334 ] final  120.88 input   60.02 | X-H torsion
[ 26024 25971 25970 25968 ] final  120.80 input   59.99 | X-H torsion
[ 18579 18551 18549 18546 ] final -100.29 input   60.03 | X-H torsion

> <Gold.Protein.ActiveResidues>
 MET341  HIS342  TRP414  ARG419  CYS420  VAL421  GLY422  LEU429  LEU460  SER462 
 ALA463  ILE464  SER482  GLN483  ARG486  TRP566  TYR567  GLY568  LEU569  PRO570 
 ALA571  VAL572  SER573  ASN574  MET575  PRO588  PHE589  SER590  GLY591  TRP592 
 TYR593  MET594  GLY595  THR596  GLU597  ILE598  ARG601  ASP602  ARG608  ILE653 
 VAL654  TRP683  PHE709  GLU710  TYR711  HEM801  H4B802 

> <Gold.Protein.RotatedAtoms>
  270.1605  353.4035  -57.9615 H   0  0  0  0  0  0  0  0  0  0  0  0  # atno 11361 bound_to 11338
  264.7755  353.2749  -53.3707 H   0  0  0  0  0  0  0  0  0  0  0  0  # atno 16931 bound_to 16868
  257.2456  359.6128  -60.3177 H   0  0  0  0  0  0  0  0  0  0  0  0  # atno 18225 bound_to 18202
  262.5829  353.4587  -53.5600 H   0  0  0  0  0  0  0  0  0  0  0  0  # atno 18421 bound_to 18376
  256.3495  343.0145  -54.0524 H   0  0  0  0  0  0  0  0  0  0  0  0  # atno 18579 bound_to 18551
  267.0879  346.3920  -65.2282 H   0  0  0  0  0  0  0  0  0  0  0  0  # atno 26024 bound_to 25971
  262.9399  351.9051  -53.8851 LP  0  0  0  0  0  0  0  0  0  0  0  0  # atno 27283 bound_to 18376
  262.8741  352.4246  -52.3383 LP  0  0  0  0  0  0  0  0  0  0  0  0  # atno 27284 bound_to 18376
  258.4853  360.6637  -60.2326 LP  0  0  0  0  0  0  0  0  0  0  0  0  # atno 27303 bound_to 18202
  257.6687  360.2489  -58.8807 LP  0  0  0  0  0  0  0  0  0  0  0  0  # atno 27304 bound_to 18202
  266.0860  353.3390  -52.4086 LP  0  0  0  0  0  0  0  0  0  0  0  0  # atno 27315 bound_to 16868
  265.9015  354.4236  -53.6154 LP  0  0  0  0  0  0  0  0  0  0  0  0  # atno 27316 bound_to 16868
  270.4293  355.0013  -57.8098 LP  0  0  0  0  0  0  0  0  0  0  0  0  # atno 27322 bound_to 11338
  271.6841  353.9563  -57.8148 LP  0  0  0  0  0  0  0  0  0  0  0  0  # atno 27323 bound_to 11338
  266.4051  345.8247  -66.5920 LP  0  0  0  0  0  0  0  0  0  0  0  0  # atno 27328 bound_to 25971
  265.8293  347.1824  -65.8909 LP  0  0  0  0  0  0  0  0  0  0  0  0  # atno 27329 bound_to 25971

> <Gold.Score>
     Fitness  S(hb_ext) S(vdw_ext)  S(hb_int)    S(int)      intcor
     43.01       1.37      30.68       0.00      -0.54      -0.76

> <Gold.Goldscore.Fitness>
43.0128

> <Gold.Goldscore.Internal.Vdw>
-0.6974

> <Gold.Goldscore.Internal.Torsion>
-0.6037

> <Gold.Goldscore.External.Vdw>
30.6759

> <Gold.Goldscore.Internal.HBond>
0.0000

> <Gold.Goldscore.External.HBond>
1.3696

> <Gold.Goldscore.Internal.Correction>
-0.7650

> <Gold.Goldscore.Hbonds>
donor molecule, donor type, donor heavy atom, donor atom, acceptor molecule, acceptor atom, score
      P1  H 16868 16931       L1    17  0.67
      L1  H     8    22       P1 11385  0.01

> <Gold.Goldscore.Internal.Vdw.Weighted>
-0.6974

> <Gold.Goldscore.Internal.Torsion.Weighted>
-0.6037

> <Gold.Goldscore.External.Vdw.Weighted>
42.1793

> <Gold.Goldscore.Internal.HBond.Weighted>
0.0000

> <Gold.Goldscore.External.HBond.Weighted>
1.3696

> <Gold.Goldscore.Internal.Correction.Weighted>
-0.7650

> <Gold.Rescore>
     Score     S(PLP)   S(hbond)     S(cho)   S(metal)  DE(clash)   DE(tors)     intcor
     28.72     -30.18       0.35       0.00       0.00       0.00       1.25       ----

> <Gold.PLP.Fitness>
28.7216

> <Gold.PLP.PLP>
-30.1801

> <Gold.PLP.part.hbond>
-3.0000

> <Gold.PLP.part.metal>
0.0000

> <Gold.PLP.part.buried>
5.8690

> <Gold.PLP.part.nonpolar>
-36.7198

> <Gold.PLP.part.repulsive>
1.5744

> <Gold.PLP.ligand.clash>
0.0000

> <Gold.PLP.ligand.torsion>
1.2534

> <Gold.PLP.Chemscore.Hbond>
0.3494

> <Gold.PLP.Chemscore.CHOScore>
0.0000

> <Gold.PLP.Chemscore.Metal>
0.0000

> <Gold.Chemscore.Hbonds>
donor molecule, donor type, donor heavy atom, donor atom, acceptor molecule, acceptor atom, score
      L1  H     8    22       P1 11385  0.51

> <Gold.PLP.Chemscore.Internal.Correction>
   9.000000E+99

