#       Name:                CT1002167954
#       Creating user name   hitesit
#       Creation time:       Sun Apr 16 20:16:20 2023


#       File generated by GOLD software.
#

@<TRIPOS>MOLECULE
CT1002167954|ligand_prepared|mol2|1|dock7
    29    30     1
SMALL
NO_CHARGES


@<TRIPOS>ATOM
      1 C1          20.6290  -7.8611  -1.5195 C.3            1 RES1               0.0000
      2 C2          21.2669  -8.5920  -2.7184 C.ar           1 RES1               0.0000
      3 C3          20.9972  -6.3880  -1.6704 C.2            1 RES1               0.0000
      4 C4          19.1319  -8.1393  -1.5977 C.2            1 RES1               0.0000
      5 C5          21.1357  -8.3556  -0.1446 C.3            1 RES1               0.0000
      6 C6          21.1572  -8.0727  -4.0049 C.ar           1 RES1               0.0000
      7 C7          21.9693  -9.7828  -2.5537 C.ar           1 RES1               0.0000
      8 N8          20.0162  -5.5293  -2.0706 N.am           1 RES1               0.0000
      9 O9          22.1406  -5.9923  -1.4795 O.2            1 RES1               0.0000
     10 N10         18.2943  -7.0825  -1.8412 N.am           1 RES1               0.0000
     11 O11         18.6715  -9.2668  -1.4671 O.2            1 RES1               0.0000
     12 C12         20.6994  -7.4813   1.0204 C.3            1 RES1               0.0000
     13 C13         21.7313  -8.7189  -5.0871 C.ar           1 RES1               0.0000
     14 C14         22.5424 -10.4276  -3.6373 C.ar           1 RES1               0.0000
     15 C15         18.6711  -5.7952  -2.1117 C.2            1 RES1               0.0000
     16 C16         22.4246  -9.8964  -4.9041 C.ar           1 RES1               0.0000
     17 O17         17.8612  -4.9110  -2.3751 O.2            1 RES1               0.0000
     18 H18         20.7669  -9.3753   0.0217 H              1 RES1               0.0000
     19 H19         22.2318  -8.3948  -0.1655 H              1 RES1               0.0000
     20 H20         20.6133  -7.1484  -4.1688 H              1 RES1               0.0000
     21 H21         22.0739 -10.2197  -1.5664 H              1 RES1               0.0000
     22 H22         20.3098  -4.6039  -2.3667 H              1 RES1               0.0000
     23 H23         17.2976  -7.2731  -1.8186 H              1 RES1               0.0000
     24 H24         21.0816  -7.8727   1.9608 H              1 RES1               0.0000
     25 H25         21.0703  -6.4655   0.9004 H              1 RES1               0.0000
     26 H26         19.6141  -7.4402   1.0865 H              1 RES1               0.0000
     27 H27         21.6344  -8.2974  -6.0823 H              1 RES1               0.0000
     28 H28         23.0867 -11.3544  -3.4887 H              1 RES1               0.0000
     29 H29         22.8745 -10.4022  -5.7520 H              1 RES1               0.0000
@<TRIPOS>BOND
    1    1    2 1     
    2    1    3 1     
    3    1    4 1     
    4    1    5 1     
    5    2    6 ar    
    6    2    7 ar    
    7    3    8 1     
    8    3    9 2     
    9    4   10 1     
   10    4   11 2     
   11    5   12 1     
   12    5   18 1     
   13    5   19 1     
   14    6   13 ar    
   15    6   20 1     
   16    7   14 ar    
   17    7   21 1     
   18    8   15 1     
   19    8   22 1     
   20   10   15 1     
   21   10   23 1     
   22   12   24 1     
   23   12   25 1     
   24   12   26 1     
   25   13   16 ar    
   26   13   27 1     
   27   14   16 ar    
   28   14   28 1     
   29   15   17 2     
   30   16   29 1     
@<TRIPOS>SUBSTRUCTURE
      1 RES1           1
@<TRIPOS>SET
DONOR_HYDROGENS      STATIC     ATOMS    <user>   **** ""
2 22 23
ATOM$RED        STATIC     ATOMS    COLORGROUP SYSTEM
2 22 23
@<TRIPOS>COMMENT
> <Gold.Version>
2022.3.0

> <Gold.Id.Protein>
unknown|3oxt_clean|pdb

> <Gold.Protein.RotatedTorsions>
[ 3607 3598 3597 3595 ] final  -55.45 input   60.01 | X-H torsion
[ 3527 3518 3517 3515 ] final -104.44 input   60.00 | X-H torsion
[ 3788 3779 3778 3776 ] final -153.11 input   59.99 | X-H torsion
[ 3080 3073 3071 3068 ] final   70.31 input   60.03 | X-H torsion
[ 5059 5050 5049 5047 ] final  115.08 input   60.00 | X-H torsion
[ 2545 2534 2533 2532 ] final   -7.48 input   59.97 | X-H torsion
[  568  565  563  560 ] final  144.78 input   59.99 | X-H torsion
[ 1886 1881 1880 1877 ] final   39.68 input   59.97 | X-H torsion
[ 3128 3121 3120 3118 ] final  173.98 input   60.01 | X-H torsion
[  590  585  584  581 ] final -110.43 input   60.02 | X-H torsion

> <Gold.Protein.ActiveResidues>
 LEU49   GLY50   THR51   GLY52   SER53   PHE54   LEU82   LYS83   GLN84   HIS87  
 GLY126  GLU127  MET128  PHE129  SER130  HIS131  LEU132  ARG133  ARG134  ILE135 
 GLY136  ARG137  ARG165  ASP166  LEU167  LYS168  PRO169  GLU170  ASN171  LEU173 
 ASP184  GLY186  PHE187  TPO197  LEU198  CYS199  GLY200  THR201  PRO202  GLU203 
 TYR204  LEU205  ILE209  ILE210  VAL226  LEU227  TYR229  GLU230  ALA233  GLY234 
 TYR235  PRO236  PRO237  PHE238  PHE239  ALA240  ASP241  GLN242  PRO243  ILE244 
 GLN245  ILE246  TYR247  LYS249  ARG256  PHE257  PRO258  SER259  ASN326  PHE327 
 ASP328  ASP329  TYR330 

> <Gold.Protein.RotatedAtoms>
   20.0252  -13.5613    6.2448 H   0  0  0  0  0  0  0  0  0  0  0  0  # atno 568  bound_to 565 
   17.4536  -10.8034   -1.5419 H   0  0  0  0  0  0  0  0  0  0  0  0  # atno 590  bound_to 585 
   26.8593   -4.5310   11.1776 H   0  0  0  0  0  0  0  0  0  0  0  0  # atno 1886 bound_to 1881
   19.3683   -3.3330    1.1558 H   0  0  0  0  0  0  0  0  0  0  0  0  # atno 2545 bound_to 2534
   19.8236   -4.1618   -0.2061 H   0  0  0  0  0  0  0  0  0  0  0  0  # atno 2546 bound_to 2534
   20.0010   -4.8587    1.2876 H   0  0  0  0  0  0  0  0  0  0  0  0  # atno 2547 bound_to 2534
   19.0605   -2.0909   -1.4971 H   0  0  0  0  0  0  0  0  0  0  0  0  # atno 3080 bound_to 3073
   22.9466    4.7562    3.2005 H   0  0  0  0  0  0  0  0  0  0  0  0  # atno 3128 bound_to 3121
   16.1563   13.2934    6.9303 H   0  0  0  0  0  0  0  0  0  0  0  0  # atno 3527 bound_to 3518
   17.0857   13.7723   11.1456 H   0  0  0  0  0  0  0  0  0  0  0  0  # atno 3607 bound_to 3598
    9.1040   -1.2160   -3.2463 H   0  0  0  0  0  0  0  0  0  0  0  0  # atno 3788 bound_to 3779
   23.7310  -10.0582    8.3138 H   0  0  0  0  0  0  0  0  0  0  0  0  # atno 5059 bound_to 5050
   17.0910   13.4785   12.7460 LP  0  0  0  0  0  0  0  0  0  0  0  0  # atno 5367 bound_to 3598
   15.6823   13.4921   11.9201 LP  0  0  0  0  0  0  0  0  0  0  0  0  # atno 5368 bound_to 3598
   17.1479   14.2840    7.7579 LP  0  0  0  0  0  0  0  0  0  0  0  0  # atno 5371 bound_to 3518
   16.8502   12.7758    8.3088 LP  0  0  0  0  0  0  0  0  0  0  0  0  # atno 5372 bound_to 3518
    9.6653   -0.8603   -1.7610 LP  0  0  0  0  0  0  0  0  0  0  0  0  # atno 5429 bound_to 3779
   10.5751   -0.5411   -3.0790 LP  0  0  0  0  0  0  0  0  0  0  0  0  # atno 5430 bound_to 3779
   17.9501   -3.0378   -0.7773 LP  0  0  0  0  0  0  0  0  0  0  0  0  # atno 5433 bound_to 3073
   19.1430   -2.3573    0.1061 LP  0  0  0  0  0  0  0  0  0  0  0  0  # atno 5434 bound_to 3073
   24.8464   -9.7246    9.4500 LP  0  0  0  0  0  0  0  0  0  0  0  0  # atno 5443 bound_to 5050
   23.2563   -9.6205    9.8069 LP  0  0  0  0  0  0  0  0  0  0  0  0  # atno 5444 bound_to 5050
   21.0288  -12.3907    5.7243 LP  0  0  0  0  0  0  0  0  0  0  0  0  # atno 5447 bound_to 565 
   21.3341  -13.1671    7.1281 LP  0  0  0  0  0  0  0  0  0  0  0  0  # atno 5448 bound_to 565 
   26.5170   -5.2574   12.5929 LP  0  0  0  0  0  0  0  0  0  0  0  0  # atno 5453 bound_to 1881
   27.9749   -5.4768   11.8907 LP  0  0  0  0  0  0  0  0  0  0  0  0  # atno 5454 bound_to 1881
   22.2916    3.4595    3.9342 LP  0  0  0  0  0  0  0  0  0  0  0  0  # atno 5481 bound_to 3121
   21.5670    4.9184    4.0484 LP  0  0  0  0  0  0  0  0  0  0  0  0  # atno 5482 bound_to 3121
   17.1603  -11.8280   -2.7720 LP  0  0  0  0  0  0  0  0  0  0  0  0  # atno 5489 bound_to 585 
   18.4119  -12.1009   -1.7593 LP  0  0  0  0  0  0  0  0  0  0  0  0  # atno 5490 bound_to 585 

> <Gold.Score>
     Fitness  S(hb_ext) S(vdw_ext)  S(hb_int)    S(int)      intcor
     32.83       6.48      19.28       0.00      -0.16      -0.76

> <Gold.Goldscore.Fitness>
32.8286

> <Gold.Goldscore.Internal.Vdw>
-0.3821

> <Gold.Goldscore.Internal.Torsion>
-0.5344

> <Gold.Goldscore.External.Vdw>
19.2765

> <Gold.Goldscore.Internal.HBond>
0.0000

> <Gold.Goldscore.External.HBond>
6.4815

> <Gold.Goldscore.Internal.Correction>
-0.7585

> <Gold.Goldscore.Hbonds>
donor molecule, donor type, donor heavy atom, donor atom, acceptor molecule, acceptor atom, score
      P1  H  2583  2589       L1     9  1.00
      P1  H   580   586       L1    11  0.15
      P1  H   585   590       L1    11  0.17
      L1  H     8    22       P1  2501  0.64

> <Gold.Goldscore.Internal.Vdw.Weighted>
-0.3821

> <Gold.Goldscore.Internal.Torsion.Weighted>
-0.5344

> <Gold.Goldscore.External.Vdw.Weighted>
26.5052

> <Gold.Goldscore.Internal.HBond.Weighted>
0.0000

> <Gold.Goldscore.External.HBond.Weighted>
6.4815

> <Gold.Goldscore.Internal.Correction.Weighted>
-0.7585

> <Gold.Rescore>
     Score     S(PLP)   S(hbond)     S(cho)   S(metal)  DE(clash)   DE(tors)     intcor
     29.47     -28.00       0.51       0.00       0.00       0.00       0.03       ----

> <Gold.PLP.Fitness>
29.4680

> <Gold.PLP.PLP>
-28.0005

> <Gold.PLP.part.hbond>
-1.4825

> <Gold.PLP.part.metal>
0.0000

> <Gold.PLP.part.buried>
-6.8321

> <Gold.PLP.part.nonpolar>
-22.9348

> <Gold.PLP.part.repulsive>
2.9970

> <Gold.PLP.ligand.clash>
0.0000

> <Gold.PLP.ligand.torsion>
0.0343

> <Gold.PLP.Chemscore.Hbond>
0.5120

> <Gold.PLP.Chemscore.CHOScore>
0.0000

> <Gold.PLP.Chemscore.Metal>
0.0000

> <Gold.Chemscore.Hbonds>
donor molecule, donor type, donor heavy atom, donor atom, acceptor molecule, acceptor atom, score
      L1  H     8    22       P1  2501  0.47
      P1  H  2583  2589       L1     9  0.60
      P1  H   585   590       L1    11  0.77

> <Gold.PLP.Chemscore.Internal.Correction>
   9.000000E+99

