#       Name:                CT1002167954
#       Creating user name   hitesit
#       Creation time:       Sun Apr 16 20:16:15 2023


#       File generated by GOLD software.
#

@<TRIPOS>MOLECULE
CT1002167954|ligand_prepared|mol2|1|dock4
    29    30     1
SMALL
NO_CHARGES


@<TRIPOS>ATOM
      1 C1          21.4580  -8.7602  -0.1413 C.3            1 RES1               0.0000
      2 C2          22.4187  -9.8961  -0.5480 C.ar           1 RES1               0.0000
      3 C3          22.0623  -7.4710  -0.6899 C.2            1 RES1               0.0000
      4 C4          20.1009  -9.1147  -0.7391 C.2            1 RES1               0.0000
      5 C5          21.2817  -8.6084   1.3875 C.3            1 RES1               0.0000
      6 C6          22.6133 -10.2136  -1.8889 C.ar           1 RES1               0.0000
      7 C7          23.1183 -10.6323   0.4045 C.ar           1 RES1               0.0000
      8 N8          21.4647  -6.9059  -1.7777 N.am           1 RES1               0.0000
      9 O9          23.0714  -6.9791  -0.1998 O.2            1 RES1               0.0000
     10 N10         19.5968  -8.2977  -1.7169 N.am           1 RES1               0.0000
     11 O11         19.4713 -10.1035  -0.3839 O.2            1 RES1               0.0000
     12 C12         20.3269  -7.4944   1.7870 C.3            1 RES1               0.0000
     13 C13         23.4780 -11.2284  -2.2643 C.ar           1 RES1               0.0000
     14 C14         23.9824 -11.6468   0.0270 C.ar           1 RES1               0.0000
     15 C15         20.2311  -7.2266  -2.2849 C.2            1 RES1               0.0000
     16 C16         24.1635 -11.9453  -1.3068 C.ar           1 RES1               0.0000
     17 O17         19.7354  -6.5730  -3.1983 O.2            1 RES1               0.0000
     18 H18         20.9093  -9.5560   1.7958 H              1 RES1               0.0000
     19 H19         22.2622  -8.4114   1.8382 H              1 RES1               0.0000
     20 H20         22.0807  -9.6620  -2.6565 H              1 RES1               0.0000
     21 H21         22.9907 -10.4158   1.4597 H              1 RES1               0.0000
     22 H22         21.9828  -6.1775  -2.2586 H              1 RES1               0.0000
     23 H23         18.6619  -8.5073  -2.0522 H              1 RES1               0.0000
     24 H24         20.2394  -7.4310   2.8696 H              1 RES1               0.0000
     25 H25         20.6798  -6.5333   1.4187 H              1 RES1               0.0000
     26 H26         19.3348  -7.6711   1.3766 H              1 RES1               0.0000
     27 H27         23.6160 -11.4602  -3.3152 H              1 RES1               0.0000
     28 H28         24.5193 -12.2089   0.7840 H              1 RES1               0.0000
     29 H29         24.8411 -12.7399  -1.6011 H              1 RES1               0.0000
@<TRIPOS>BOND
    1    1    2 1     
    2    1    3 1     
    3    1    4 1     
    4    1    5 1     
    5    2    6 ar    
    6    2    7 ar    
    7    3    8 1     
    8    3    9 2     
    9    4   10 1     
   10    4   11 2     
   11    5   12 1     
   12    5   18 1     
   13    5   19 1     
   14    6   13 ar    
   15    6   20 1     
   16    7   14 ar    
   17    7   21 1     
   18    8   15 1     
   19    8   22 1     
   20   10   15 1     
   21   10   23 1     
   22   12   24 1     
   23   12   25 1     
   24   12   26 1     
   25   13   16 ar    
   26   13   27 1     
   27   14   16 ar    
   28   14   28 1     
   29   15   17 2     
   30   16   29 1     
@<TRIPOS>SUBSTRUCTURE
      1 RES1           1
@<TRIPOS>SET
DONOR_HYDROGENS      STATIC     ATOMS    <user>   **** ""
2 22 23
ATOM$RED        STATIC     ATOMS    COLORGROUP SYSTEM
2 22 23
@<TRIPOS>COMMENT
> <Gold.Version>
2022.3.0

> <Gold.Id.Protein>
unknown|3oxt_clean|pdb

> <Gold.Protein.RotatedTorsions>
[ 3607 3598 3597 3595 ] final -146.94 input   60.01 | X-H torsion
[ 3527 3518 3517 3515 ] final  -31.08 input   60.00 | X-H torsion
[ 3788 3779 3778 3776 ] final   -7.37 input   59.99 | X-H torsion
[ 3080 3073 3071 3068 ] final   42.76 input   60.03 | X-H torsion
[ 5059 5050 5049 5047 ] final  129.11 input   60.00 | X-H torsion
[ 2545 2534 2533 2532 ] final   28.28 input   59.97 | X-H torsion
[  568  565  563  560 ] final   92.54 input   59.99 | X-H torsion
[ 1886 1881 1880 1877 ] final  -55.38 input   59.97 | X-H torsion
[ 3128 3121 3120 3118 ] final  -30.92 input   60.01 | X-H torsion
[  590  585  584  581 ] final  -48.41 input   60.02 | X-H torsion

> <Gold.Protein.ActiveResidues>
 LEU49   GLY50   THR51   GLY52   SER53   PHE54   LEU82   LYS83   GLN84   HIS87  
 GLY126  GLU127  MET128  PHE129  SER130  HIS131  LEU132  ARG133  ARG134  ILE135 
 GLY136  ARG137  ARG165  ASP166  LEU167  LYS168  PRO169  GLU170  ASN171  LEU173 
 ASP184  GLY186  PHE187  TPO197  LEU198  CYS199  GLY200  THR201  PRO202  GLU203 
 TYR204  LEU205  ILE209  ILE210  VAL226  LEU227  TYR229  GLU230  ALA233  GLY234 
 TYR235  PRO236  PRO237  PHE238  PHE239  ALA240  ASP241  GLN242  PRO243  ILE244 
 GLN245  ILE246  TYR247  LYS249  ARG256  PHE257  PRO258  SER259  ASN326  PHE327 
 ASP328  ASP329  TYR330 

> <Gold.Protein.RotatedAtoms>
   20.1854  -13.0081    5.6548 H   0  0  0  0  0  0  0  0  0  0  0  0  # atno 568  bound_to 565 
   18.2045  -11.3521   -1.2841 H   0  0  0  0  0  0  0  0  0  0  0  0  # atno 590  bound_to 585 
   26.3073   -5.0093   12.3498 H   0  0  0  0  0  0  0  0  0  0  0  0  # atno 1886 bound_to 1881
   19.3767   -3.2457    0.5748 H   0  0  0  0  0  0  0  0  0  0  0  0  # atno 2545 bound_to 2534
   20.0196   -4.6688    0.0178 H   0  0  0  0  0  0  0  0  0  0  0  0  # atno 2546 bound_to 2534
   19.7966   -4.4394    1.6444 H   0  0  0  0  0  0  0  0  0  0  0  0  # atno 2547 bound_to 2534
   18.7054   -2.3170   -1.6436 H   0  0  0  0  0  0  0  0  0  0  0  0  # atno 3080 bound_to 3073
   21.4803    4.3885    4.2293 H   0  0  0  0  0  0  0  0  0  0  0  0  # atno 3128 bound_to 3121
   16.3937   12.5763    7.7561 H   0  0  0  0  0  0  0  0  0  0  0  0  # atno 3527 bound_to 3518
   17.4161   13.5669   12.4290 H   0  0  0  0  0  0  0  0  0  0  0  0  # atno 3607 bound_to 3598
   10.6307   -0.4840   -2.6682 H   0  0  0  0  0  0  0  0  0  0  0  0  # atno 3788 bound_to 3779
   23.5166  -10.0361    8.3894 H   0  0  0  0  0  0  0  0  0  0  0  0  # atno 5059 bound_to 5050
   15.7967   13.4210   12.3644 LP  0  0  0  0  0  0  0  0  0  0  0  0  # atno 5367 bound_to 3598
   16.6439   13.7564   11.0093 LP  0  0  0  0  0  0  0  0  0  0  0  0  # atno 5368 bound_to 3598
   16.4529   13.9758    6.9270 LP  0  0  0  0  0  0  0  0  0  0  0  0  # atno 5371 bound_to 3518
   17.3063   13.8056    8.3088 LP  0  0  0  0  0  0  0  0  0  0  0  0  # atno 5372 bound_to 3518
    9.3958   -1.1065   -3.5255 LP  0  0  0  0  0  0  0  0  0  0  0  0  # atno 5429 bound_to 3779
    9.3071   -1.0320   -1.8967 LP  0  0  0  0  0  0  0  0  0  0  0  0  # atno 5430 bound_to 3779
   18.0583   -3.0477   -0.3417 LP  0  0  0  0  0  0  0  0  0  0  0  0  # atno 5433 bound_to 3073
   19.3925   -2.1198   -0.1819 LP  0  0  0  0  0  0  0  0  0  0  0  0  # atno 5434 bound_to 3073
   24.8857   -9.7881    9.2322 LP  0  0  0  0  0  0  0  0  0  0  0  0  # atno 5443 bound_to 5050
   23.4331   -9.5792    9.9484 LP  0  0  0  0  0  0  0  0  0  0  0  0  # atno 5444 bound_to 5050
   21.5382  -12.4618    6.3759 LP  0  0  0  0  0  0  0  0  0  0  0  0  # atno 5447 bound_to 565 
   20.6634  -13.6530    7.0705 LP  0  0  0  0  0  0  0  0  0  0  0  0  # atno 5448 bound_to 565 
   27.8122   -5.6178   12.2364 LP  0  0  0  0  0  0  0  0  0  0  0  0  # atno 5453 bound_to 1881
   27.2356   -4.6347   11.0669 LP  0  0  0  0  0  0  0  0  0  0  0  0  # atno 5454 bound_to 1881
   22.5877    5.1744    3.3323 LP  0  0  0  0  0  0  0  0  0  0  0  0  # atno 5481 bound_to 3121
   22.7478    3.5739    3.6142 LP  0  0  0  0  0  0  0  0  0  0  0  0  # atno 5482 bound_to 3121
   16.9450  -11.0290   -2.2631 LP  0  0  0  0  0  0  0  0  0  0  0  0  # atno 5489 bound_to 585 
   17.8713  -12.3476   -2.5279 LP  0  0  0  0  0  0  0  0  0  0  0  0  # atno 5490 bound_to 585 

> <Gold.Score>
     Fitness  S(hb_ext) S(vdw_ext)  S(hb_int)    S(int)      intcor
     34.34      10.00      17.78       0.00      -0.11      -0.76

> <Gold.Goldscore.Fitness>
34.3401

> <Gold.Goldscore.Internal.Vdw>
-0.4990

> <Gold.Goldscore.Internal.Torsion>
-0.3675

> <Gold.Goldscore.External.Vdw>
17.7804

> <Gold.Goldscore.Internal.HBond>
0.0000

> <Gold.Goldscore.External.HBond>
10.0000

> <Gold.Goldscore.Internal.Correction>
-0.7585

> <Gold.Goldscore.Hbonds>
donor molecule, donor type, donor heavy atom, donor atom, acceptor molecule, acceptor atom, score
      P1  H   580   586       L1    11  1.00
      P1  H   585   590       L1    11  1.00
      L1  H     8    22       P1  2502  1.00

> <Gold.Goldscore.Internal.Vdw.Weighted>
-0.4990

> <Gold.Goldscore.Internal.Torsion.Weighted>
-0.3675

> <Gold.Goldscore.External.Vdw.Weighted>
24.4480

> <Gold.Goldscore.Internal.HBond.Weighted>
0.0000

> <Gold.Goldscore.External.HBond.Weighted>
10.0000

> <Gold.Goldscore.Internal.Correction.Weighted>
-0.7585

> <Gold.Rescore>
     Score     S(PLP)   S(hbond)     S(cho)   S(metal)  DE(clash)   DE(tors)     intcor
     29.09     -23.27       2.65       0.00       0.00       0.00       1.06       ----

> <Gold.PLP.Fitness>
29.0911

> <Gold.PLP.PLP>
-23.2681

> <Gold.PLP.part.hbond>
-2.7752

> <Gold.PLP.part.metal>
0.0000

> <Gold.PLP.part.buried>
-6.2863

> <Gold.PLP.part.nonpolar>
-16.9117

> <Gold.PLP.part.repulsive>
1.4199

> <Gold.PLP.ligand.clash>
0.0000

> <Gold.PLP.ligand.torsion>
1.0635

> <Gold.PLP.Chemscore.Hbond>
2.6500

> <Gold.PLP.Chemscore.CHOScore>
0.0000

> <Gold.PLP.Chemscore.Metal>
0.0000

> <Gold.Chemscore.Hbonds>
donor molecule, donor type, donor heavy atom, donor atom, acceptor molecule, acceptor atom, score
      L1  H     8    22       P1  2502  1.00
      P1  H   580   586       L1    11  1.00
      P1  H   585   590       L1    11  1.00

> <Gold.PLP.Chemscore.Internal.Correction>
   9.000000E+99

