#       Name:                CT1002167954
#       Creating user name   hitesit
#       Creation time:       Sun Apr 16 20:16:14 2023


#       File generated by GOLD software.
#

@<TRIPOS>MOLECULE
CT1002167954|ligand_prepared|mol2|1|dock3
    29    30     1
SMALL
NO_CHARGES


@<TRIPOS>ATOM
      1 C1          21.7704  -8.6195   0.2828 C.3            1 RES1               0.0000
      2 C2          22.6208  -9.7615  -0.3100 C.ar           1 RES1               0.0000
      3 C3          22.3235  -7.3242  -0.3043 C.2            1 RES1               0.0000
      4 C4          20.3270  -8.9141  -0.1103 C.2            1 RES1               0.0000
      5 C5          21.8362  -8.5271   1.8251 C.3            1 RES1               0.0000
      6 C6          23.2811 -10.6593   0.5235 C.ar           1 RES1               0.0000
      7 C7          22.7521  -9.9312  -1.6857 C.ar           1 RES1               0.0000
      8 N8          21.5837  -6.6992  -1.2646 N.am           1 RES1               0.0000
      9 O9          23.4109  -6.8791   0.0415 O.2            1 RES1               0.0000
     10 N10         19.7045  -8.0444  -0.9670 N.am           1 RES1               0.0000
     11 O11         19.7286  -9.9005   0.3010 O.2            1 RES1               0.0000
     12 C12         21.0950  -7.3302   2.3998 C.3            1 RES1               0.0000
     13 C13         24.0426 -11.6913   0.0007 C.ar           1 RES1               0.0000
     14 C14         23.5144 -10.9638  -2.2064 C.ar           1 RES1               0.0000
     15 C15         20.2774  -6.9671  -1.5861 C.2            1 RES1               0.0000
     16 C16         24.1594 -11.8446  -1.3644 C.ar           1 RES1               0.0000
     17 O17         19.6680  -6.2636  -2.3866 O.2            1 RES1               0.0000
     18 H18         21.4113  -9.4439   2.2521 H              1 RES1               0.0000
     19 H19         22.8882  -8.4710   2.1309 H              1 RES1               0.0000
     20 H20         23.2028 -10.5531   1.6003 H              1 RES1               0.0000
     21 H21         22.2544  -9.2497  -2.3671 H              1 RES1               0.0000
     22 H22         22.0445  -5.9648  -1.7924 H              1 RES1               0.0000
     23 H23         18.7230  -8.2160  -1.1611 H              1 RES1               0.0000
     24 H24         21.1728  -7.3131   3.4849 H              1 RES1               0.0000
     25 H25         21.5082  -6.3999   2.0157 H              1 RES1               0.0000
     26 H26         20.0400  -7.3669   2.1362 H              1 RES1               0.0000
     27 H27         24.5494 -12.3810   0.6676 H              1 RES1               0.0000
     28 H28         23.6040 -11.0803  -3.2814 H              1 RES1               0.0000
     29 H29         24.7557 -12.6533  -1.7737 H              1 RES1               0.0000
@<TRIPOS>BOND
    1    1    2 1     
    2    1    3 1     
    3    1    4 1     
    4    1    5 1     
    5    2    6 ar    
    6    2    7 ar    
    7    3    8 1     
    8    3    9 2     
    9    4   10 1     
   10    4   11 2     
   11    5   12 1     
   12    5   18 1     
   13    5   19 1     
   14    6   13 ar    
   15    6   20 1     
   16    7   14 ar    
   17    7   21 1     
   18    8   15 1     
   19    8   22 1     
   20   10   15 1     
   21   10   23 1     
   22   12   24 1     
   23   12   25 1     
   24   12   26 1     
   25   13   16 ar    
   26   13   27 1     
   27   14   16 ar    
   28   14   28 1     
   29   15   17 2     
   30   16   29 1     
@<TRIPOS>SUBSTRUCTURE
      1 RES1           1
@<TRIPOS>SET
DONOR_HYDROGENS      STATIC     ATOMS    <user>   **** ""
2 22 23
ATOM$RED        STATIC     ATOMS    COLORGROUP SYSTEM
2 22 23
@<TRIPOS>COMMENT
> <Gold.Version>
2022.3.0

> <Gold.Id.Protein>
unknown|3oxt_clean|pdb

> <Gold.Protein.RotatedTorsions>
[ 3607 3598 3597 3595 ] final   -8.91 input   60.01 | X-H torsion
[ 3527 3518 3517 3515 ] final   96.74 input   60.00 | X-H torsion
[ 3788 3779 3778 3776 ] final   64.16 input   59.99 | X-H torsion
[ 3080 3073 3071 3068 ] final   10.87 input   60.03 | X-H torsion
[ 5059 5050 5049 5047 ] final  123.69 input   60.00 | X-H torsion
[ 2545 2534 2533 2532 ] final -138.78 input   59.97 | X-H torsion
[  568  565  563  560 ] final  121.93 input   59.99 | X-H torsion
[ 1886 1881 1880 1877 ] final   89.51 input   59.97 | X-H torsion
[ 3128 3121 3120 3118 ] final   40.93 input   60.01 | X-H torsion
[  590  585  584  581 ] final  -64.96 input   60.02 | X-H torsion

> <Gold.Protein.ActiveResidues>
 LEU49   GLY50   THR51   GLY52   SER53   PHE54   LEU82   LYS83   GLN84   HIS87  
 GLY126  GLU127  MET128  PHE129  SER130  HIS131  LEU132  ARG133  ARG134  ILE135 
 GLY136  ARG137  ARG165  ASP166  LEU167  LYS168  PRO169  GLU170  ASN171  LEU173 
 ASP184  GLY186  PHE187  TPO197  LEU198  CYS199  GLY200  THR201  PRO202  GLU203 
 TYR204  LEU205  ILE209  ILE210  VAL226  LEU227  TYR229  GLU230  ALA233  GLY234 
 TYR235  PRO236  PRO237  PHE238  PHE239  ALA240  ASP241  GLN242  PRO243  ILE244 
 GLN245  ILE246  TYR247  LYS249  ARG256  PHE257  PRO258  SER259  ASN326  PHE327 
 ASP328  ASP329  TYR330 

> <Gold.Protein.RotatedAtoms>
   20.0177  -13.3477    5.9417 H   0  0  0  0  0  0  0  0  0  0  0  0  # atno 568  bound_to 565 
   18.0313  -11.1460   -1.2714 H   0  0  0  0  0  0  0  0  0  0  0  0  # atno 590  bound_to 585 
   27.5894   -4.8240   11.1215 H   0  0  0  0  0  0  0  0  0  0  0  0  # atno 1886 bound_to 1881
   20.0472   -4.9388    1.1227 H   0  0  0  0  0  0  0  0  0  0  0  0  # atno 2545 bound_to 2534
   19.3955   -3.4267    1.3170 H   0  0  0  0  0  0  0  0  0  0  0  0  # atno 2546 bound_to 2534
   19.7503   -3.9885   -0.2018 H   0  0  0  0  0  0  0  0  0  0  0  0  # atno 2547 bound_to 2534
   18.3031   -2.6246   -1.5533 H   0  0  0  0  0  0  0  0  0  0  0  0  # atno 3080 bound_to 3073
   22.1108    3.5098    4.0361 H   0  0  0  0  0  0  0  0  0  0  0  0  # atno 3128 bound_to 3121
   17.3041   13.9088    8.2325 H   0  0  0  0  0  0  0  0  0  0  0  0  # atno 3527 bound_to 3518
   16.3545   13.7178   11.0483 H   0  0  0  0  0  0  0  0  0  0  0  0  # atno 3607 bound_to 3598
   10.0007   -0.7083   -1.8021 H   0  0  0  0  0  0  0  0  0  0  0  0  # atno 3788 bound_to 3779
   23.5971  -10.0464    8.3542 H   0  0  0  0  0  0  0  0  0  0  0  0  # atno 5059 bound_to 5050
   17.5335   13.6299   12.1663 LP  0  0  0  0  0  0  0  0  0  0  0  0  # atno 5367 bound_to 3598
   15.9761   13.3955   12.5978 LP  0  0  0  0  0  0  0  0  0  0  0  0  # atno 5368 bound_to 3598
   16.4597   12.5664    7.8658 LP  0  0  0  0  0  0  0  0  0  0  0  0  # atno 5371 bound_to 3518
   16.3833   13.8741    6.8906 LP  0  0  0  0  0  0  0  0  0  0  0  0  # atno 5372 bound_to 3518
   10.3873   -0.6474   -3.3815 LP  0  0  0  0  0  0  0  0  0  0  0  0  # atno 5429 bound_to 3779
    8.9501   -1.2652   -2.9129 LP  0  0  0  0  0  0  0  0  0  0  0  0  # atno 5430 bound_to 3779
   18.3672   -2.9039    0.0485 LP  0  0  0  0  0  0  0  0  0  0  0  0  # atno 5433 bound_to 3073
   19.4886   -1.9538   -0.6631 LP  0  0  0  0  0  0  0  0  0  0  0  0  # atno 5434 bound_to 3073
   24.8771   -9.7633    9.3173 LP  0  0  0  0  0  0  0  0  0  0  0  0  # atno 5443 bound_to 5050
   23.3606   -9.5937    9.8987 LP  0  0  0  0  0  0  0  0  0  0  0  0  # atno 5444 bound_to 5050
   21.3053  -12.3529    5.9725 LP  0  0  0  0  0  0  0  0  0  0  0  0  # atno 5447 bound_to 565 
   21.0652  -13.4199    7.1851 LP  0  0  0  0  0  0  0  0  0  0  0  0  # atno 5448 bound_to 565 
   26.2363   -4.7792   12.0243 LP  0  0  0  0  0  0  0  0  0  0  0  0  # atno 5453 bound_to 1881
   27.5204   -5.6600   12.5158 LP  0  0  0  0  0  0  0  0  0  0  0  0  # atno 5454 bound_to 1881
   21.6713    5.0741    3.9441 LP  0  0  0  0  0  0  0  0  0  0  0  0  # atno 5481 bound_to 3121
   23.0291    4.5592    3.1970 LP  0  0  0  0  0  0  0  0  0  0  0  0  # atno 5482 bound_to 3121
   16.9197  -11.2157   -2.4582 LP  0  0  0  0  0  0  0  0  0  0  0  0  # atno 5489 bound_to 585 
   18.0710  -12.3682   -2.3455 LP  0  0  0  0  0  0  0  0  0  0  0  0  # atno 5490 bound_to 585 

> <Gold.Score>
     Fitness  S(hb_ext) S(vdw_ext)  S(hb_int)    S(int)      intcor
     31.47       7.25      18.26       0.00      -0.89      -0.76

> <Gold.Goldscore.Fitness>
31.4652

> <Gold.Goldscore.Internal.Vdw>
-1.2390

> <Gold.Goldscore.Internal.Torsion>
-0.4094

> <Gold.Goldscore.External.Vdw>
18.2619

> <Gold.Goldscore.Internal.HBond>
0.0000

> <Gold.Goldscore.External.HBond>
7.2450

> <Gold.Goldscore.Internal.Correction>
-0.7585

> <Gold.Goldscore.Hbonds>
donor molecule, donor type, donor heavy atom, donor atom, acceptor molecule, acceptor atom, score
      P1  H   580   586       L1    11  0.25
      P1  H   585   590       L1    11  0.37
      L1  H     8    22       P1  2502  1.00

> <Gold.Goldscore.Internal.Vdw.Weighted>
-1.2390

> <Gold.Goldscore.Internal.Torsion.Weighted>
-0.4094

> <Gold.Goldscore.External.Vdw.Weighted>
25.1101

> <Gold.Goldscore.Internal.HBond.Weighted>
0.0000

> <Gold.Goldscore.External.HBond.Weighted>
7.2450

> <Gold.Goldscore.Internal.Correction.Weighted>
-0.7585

> <Gold.Rescore>
     Score     S(PLP)   S(hbond)     S(cho)   S(metal)  DE(clash)   DE(tors)     intcor
     27.80     -19.77       2.77       0.00       0.00       0.00       0.14       ----

> <Gold.PLP.Fitness>
27.7961

> <Gold.PLP.PLP>
-19.7672

> <Gold.PLP.part.hbond>
-2.8847

> <Gold.PLP.part.metal>
0.0000

> <Gold.PLP.part.buried>
-5.7669

> <Gold.PLP.part.nonpolar>
-16.5839

> <Gold.PLP.part.repulsive>
3.6854

> <Gold.PLP.ligand.clash>
0.0000

> <Gold.PLP.ligand.torsion>
0.1443

> <Gold.PLP.Chemscore.Hbond>
2.7725

> <Gold.PLP.Chemscore.CHOScore>
0.0000

> <Gold.PLP.Chemscore.Metal>
0.0000

> <Gold.Chemscore.Hbonds>
donor molecule, donor type, donor heavy atom, donor atom, acceptor molecule, acceptor atom, score
      L1  H     8    22       P1  2502  1.00
      P1  H   580   586       L1    11  0.77

> <Gold.PLP.Chemscore.Internal.Correction>
   9.000000E+99

