#       Name:                CT1002167954
#       Creating user name   hitesit
#       Creation time:       Sun Apr 16 20:17:38 2023


#       File generated by GOLD software.
#

@<TRIPOS>MOLECULE
CT1002167954|ligand_prepared|mol2|1|dock4
    29    30     1
SMALL
NO_CHARGES


@<TRIPOS>ATOM
      1 C1         116.2360 258.4610 347.5070 C.3            1 RES1               0.0000
      2 C2         115.7326 257.3120 346.6097 C.ar           1 RES1               0.0000
      3 C3         117.6500 258.7857 347.0343 C.2            1 RES1               0.0000
      4 C4         115.2435 259.6051 347.3321 C.2            1 RES1               0.0000
      5 C5         116.2910 258.1018 349.0102 C.3            1 RES1               0.0000
      6 C6         114.6477 257.5007 345.7588 C.ar           1 RES1               0.0000
      7 C7         116.3434 256.0608 346.6200 C.ar           1 RES1               0.0000
      8 N8         117.8301 259.9355 346.3233 N.am           1 RES1               0.0000
      9 O9         118.5858 258.0249 347.2481 O.2            1 RES1               0.0000
     10 N10        115.6893 260.7567 346.7382 N.am           1 RES1               0.0000
     11 O11        114.0751 259.5136 347.6881 O.2            1 RES1               0.0000
     12 C12        116.5427 259.2960 349.9171 C.3            1 RES1               0.0000
     13 C13        114.1918 256.4766 344.9453 C.ar           1 RES1               0.0000
     14 C14        115.8857 255.0380 345.8058 C.ar           1 RES1               0.0000
     15 C15        116.9295 260.9626 346.1981 C.2            1 RES1               0.0000
     16 C16        114.8106 255.2449 344.9679 C.ar           1 RES1               0.0000
     17 O17        117.2387 262.0069 345.6315 O.2            1 RES1               0.0000
     18 H18        115.3405 257.6349 349.2966 H              1 RES1               0.0000
     19 H19        117.0878 257.3645 349.1681 H              1 RES1               0.0000
     20 H20        114.1466 258.4624 345.7291 H              1 RES1               0.0000
     21 H21        117.1902 255.8749 347.2720 H              1 RES1               0.0000
     22 H22        118.7163 260.0414 345.8398 H              1 RES1               0.0000
     23 H23        115.0361 261.5325 346.6948 H              1 RES1               0.0000
     24 H24        116.5718 258.9887 350.9604 H              1 RES1               0.0000
     25 H25        117.4922 259.7697 349.6767 H              1 RES1               0.0000
     26 H26        115.7554 260.0386 349.8045 H              1 RES1               0.0000
     27 H27        113.3445 256.6441 344.2886 H              1 RES1               0.0000
     28 H28        116.3754 254.0701 345.8273 H              1 RES1               0.0000
     29 H29        114.4535 254.4430 344.3302 H              1 RES1               0.0000
@<TRIPOS>BOND
    1    1    2 1     
    2    1    3 1     
    3    1    4 1     
    4    1    5 1     
    5    2    6 ar    
    6    2    7 ar    
    7    3    8 1     
    8    3    9 2     
    9    4   10 1     
   10    4   11 2     
   11    5   12 1     
   12    5   18 1     
   13    5   19 1     
   14    6   13 ar    
   15    6   20 1     
   16    7   14 ar    
   17    7   21 1     
   18    8   15 1     
   19    8   22 1     
   20   10   15 1     
   21   10   23 1     
   22   12   24 1     
   23   12   25 1     
   24   12   26 1     
   25   13   16 ar    
   26   13   27 1     
   27   14   16 ar    
   28   14   28 1     
   29   15   17 2     
   30   16   29 1     
@<TRIPOS>SUBSTRUCTURE
      1 RES1           1
@<TRIPOS>SET
DONOR_HYDROGENS      STATIC     ATOMS    <user>   **** ""
2 22 23
ATOM$RED        STATIC     ATOMS    COLORGROUP SYSTEM
2 22 23
@<TRIPOS>COMMENT
> <Gold.Version>
2022.3.0

> <Gold.Id.Protein>
unknown|5adg_clean|pdb

> <Gold.Protein.RotatedTorsions>
[ 1107 1100 1101 1102 ] final -163.15 input   86.23 | X-H torsion
[ 1140 1124 1125 1126 ] final   69.02 input   63.27 | X-H torsion
[ 1158 1154 1155 1156 ] final  107.02 input  128.69 | X-H torsion
[ 1176 1170 1171 1172 ] final  -62.03 input   75.71 | X-H torsion
[ 1180 1175 1174 1171 ] final -145.73 input   60.03 | X-H torsion
[ 1202 1194 1195 1196 ] final   11.95 input   99.83 | X-H torsion
[ 1240 1232 1233 1234 ] final -167.41 input  109.94 | X-H torsion
[ 13440 13433 13432 13430 ] final  153.92 input   60.02 | X-H torsion
[ 11619 11589 11588 11586 ] final -117.02 input   59.96 | X-H torsion
[ 11922 11915 11916 11917 ] final  138.72 input  122.96 | X-H torsion
[ 13465 1067 1066 1065 ] final  165.66 input   -0.00 | X-H torsion
[ 13468 1103 1102 1101 ] final -142.75 input   -0.00 | X-H torsion
[ 13471 1127 1126 1125 ] final    3.12 input   -0.00 | X-H torsion
[ 13476 1157 1156 1155 ] final  138.61 input    0.00 | X-H torsion
[ 13479 1173 1172 1171 ] final  -18.82 input    0.00 | X-H torsion
[ 13484 1197 1196 1195 ] final -124.25 input   -0.00 | X-H torsion

> <Gold.Protein.ActiveResidues>
 VAL308  THR329  CYS331  ILE335  CYS336  MET337  GLY338  SER339  ILE340  MET341 
 PRO343  SER418  ARG419  ARG423  PHE663  TYR671  CYS677  PRO678  ALA679  ASP680 
 TRP681  VAL682  TRP683  ILE684  VAL685  VAL695  GLN698  GLU699  MET700  LEU701 
 ASN702  TYR703  H4B760 

> <Gold.Protein.RotatedAtoms>
  110.5329  261.9118  344.9441 H   0  0  0  0  0  0  0  0  0  0  0  0  # atno 1107 bound_to 1100
  110.7933  260.0964  341.0264 H   0  0  0  0  0  0  0  0  0  0  0  0  # atno 1140 bound_to 1124
  111.7128  257.4803  341.4412 H   0  0  0  0  0  0  0  0  0  0  0  0  # atno 1158 bound_to 1154
  111.4447  255.1659  339.3602 H   0  0  0  0  0  0  0  0  0  0  0  0  # atno 1176 bound_to 1170
  109.8295  252.4710  342.7383 H   0  0  0  0  0  0  0  0  0  0  0  0  # atno 1180 bound_to 1175
  109.9506  254.2432  338.0765 H   0  0  0  0  0  0  0  0  0  0  0  0  # atno 1202 bound_to 1194
  107.8618  252.5423  336.2557 H   0  0  0  0  0  0  0  0  0  0  0  0  # atno 1240 bound_to 1232
  102.2939  254.9402  346.0870 H   0  0  0  0  0  0  0  0  0  0  0  0  # atno 11619 bound_to 11589
  117.5694  252.1863  338.6981 H   0  0  0  0  0  0  0  0  0  0  0  0  # atno 11922 bound_to 11915
  109.7158  250.5117  338.0389 H   0  0  0  0  0  0  0  0  0  0  0  0  # atno 13440 bound_to 13433
  110.5827  262.5353  342.5962 LP  0  0  0  0  0  0  0  0  0  0  0  0  # atno 13465 bound_to 1067
  109.2091  263.5409  342.9155 LP  0  0  0  0  0  0  0  0  0  0  0  0  # atno 13466 bound_to 1067
  109.3351  260.6493  344.7997 LP  0  0  0  0  0  0  0  0  0  0  0  0  # atno 13467 bound_to 1100
  109.2588  257.6897  343.1326 LP  0  0  0  0  0  0  0  0  0  0  0  0  # atno 13468 bound_to 1103
  108.9230  258.9769  344.2419 LP  0  0  0  0  0  0  0  0  0  0  0  0  # atno 13469 bound_to 1103
  110.2369  259.2959  342.4785 LP  0  0  0  0  0  0  0  0  0  0  0  0  # atno 13470 bound_to 1124
  109.2061  257.1924  338.4373 LP  0  0  0  0  0  0  0  0  0  0  0  0  # atno 13471 bound_to 1127
  110.7061  256.3303  338.3557 LP  0  0  0  0  0  0  0  0  0  0  0  0  # atno 13472 bound_to 1127
  110.9169  257.6852  339.8954 LP  0  0  0  0  0  0  0  0  0  0  0  0  # atno 13475 bound_to 1154
  113.0127  253.4775  338.6211 LP  0  0  0  0  0  0  0  0  0  0  0  0  # atno 13476 bound_to 1157
  113.0787  254.9438  337.7014 LP  0  0  0  0  0  0  0  0  0  0  0  0  # atno 13477 bound_to 1157
  111.2700  254.7527  341.0458 LP  0  0  0  0  0  0  0  0  0  0  0  0  # atno 13478 bound_to 1170
  109.3468  251.1849  338.7892 LP  0  0  0  0  0  0  0  0  0  0  0  0  # atno 13479 bound_to 1173
  107.8994  252.0586  338.4124 LP  0  0  0  0  0  0  0  0  0  0  0  0  # atno 13480 bound_to 1173
  108.7431  252.1430  341.5726 LP  0  0  0  0  0  0  0  0  0  0  0  0  # atno 13481 bound_to 1175
  109.4099  253.6300  341.6766 LP  0  0  0  0  0  0  0  0  0  0  0  0  # atno 13482 bound_to 1175
  108.8485  254.2941  339.4298 LP  0  0  0  0  0  0  0  0  0  0  0  0  # atno 13483 bound_to 1194
  109.2700  255.0674  334.7733 LP  0  0  0  0  0  0  0  0  0  0  0  0  # atno 13484 bound_to 1197
  110.2119  254.5313  336.1243 LP  0  0  0  0  0  0  0  0  0  0  0  0  # atno 13485 bound_to 1197
  107.1318  253.9216  335.4817 LP  0  0  0  0  0  0  0  0  0  0  0  0  # atno 13504 bound_to 1232
  109.7765  250.0208  336.4886 LP  0  0  0  0  0  0  0  0  0  0  0  0  # atno 13509 bound_to 13433
  111.1118  249.9433  337.4256 LP  0  0  0  0  0  0  0  0  0  0  0  0  # atno 13510 bound_to 13433

> <Gold.Score>
     Fitness  S(hb_ext) S(vdw_ext)  S(hb_int)    S(int)      intcor
     29.21       0.02      24.17       0.00      -4.04      -0.76

> <Gold.Goldscore.Fitness>
29.2133

> <Gold.Goldscore.Internal.Vdw>
-4.2721

> <Gold.Goldscore.Internal.Torsion>
-0.5351

> <Gold.Goldscore.External.Vdw>
24.1684

> <Gold.Goldscore.Internal.HBond>
0.0000

> <Gold.Goldscore.External.HBond>
0.0240

> <Gold.Goldscore.Internal.Correction>
-0.7650

> <Gold.Goldscore.Hbonds>
donor molecule, donor type, donor heavy atom, donor atom, acceptor molecule, acceptor atom, score
      L1  H     8    22       P1  1119  0.01

> <Gold.Goldscore.Internal.Vdw.Weighted>
-4.2721

> <Gold.Goldscore.Internal.Torsion.Weighted>
-0.5351

> <Gold.Goldscore.External.Vdw.Weighted>
33.2316

> <Gold.Goldscore.Internal.HBond.Weighted>
0.0000

> <Gold.Goldscore.External.HBond.Weighted>
0.0240

> <Gold.Goldscore.Internal.Correction.Weighted>
-0.7650

> <Gold.Rescore>
     Score     S(PLP)   S(hbond)     S(cho)   S(metal)  DE(clash)   DE(tors)     intcor
     -8.74       8.30       0.69       0.00       0.00       1.87       0.31       ----

> <Gold.PLP.Fitness>
-8.7359

> <Gold.PLP.PLP>
8.2996

> <Gold.PLP.part.hbond>
-3.0000

> <Gold.PLP.part.metal>
0.0000

> <Gold.PLP.part.buried>
29.4102

> <Gold.PLP.part.nonpolar>
-24.7002

> <Gold.PLP.part.repulsive>
6.1452

> <Gold.PLP.ligand.clash>
1.8719

> <Gold.PLP.ligand.torsion>
0.3142

> <Gold.PLP.Chemscore.Hbond>
0.6880

> <Gold.PLP.Chemscore.CHOScore>
0.0000

> <Gold.PLP.Chemscore.Metal>
0.0000

> <Gold.Chemscore.Hbonds>
donor molecule, donor type, donor heavy atom, donor atom, acceptor molecule, acceptor atom, score
      L1  H     8    22       P1  1119  0.46

> <Gold.PLP.Chemscore.Internal.Correction>
   9.000000E+99

