#       Name:                CT1002167954
#       Creating user name   hitesit
#       Creation time:       Sun Apr 16 20:17:37 2023


#       File generated by GOLD software.
#

@<TRIPOS>MOLECULE
CT1002167954|ligand_prepared|mol2|1|dock3
    29    30     1
SMALL
NO_CHARGES


@<TRIPOS>ATOM
      1 C1         115.2631 259.7411 350.4115 C.3            1 RES1               0.0000
      2 C2         115.9853 259.0628 349.2295 C.ar           1 RES1               0.0000
      3 C3         113.7944 259.8478 350.0119 C.2            1 RES1               0.0000
      4 C4         115.5141 258.8578 351.6285 C.2            1 RES1               0.0000
      5 C5         115.7886 261.1594 350.7339 C.3            1 RES1               0.0000
      6 C6         116.3551 257.7230 349.2997 C.ar           1 RES1               0.0000
      7 C7         116.2857 259.7618 348.0635 C.ar           1 RES1               0.0000
      8 N8         112.9125 258.9997 350.6143 N.am           1 RES1               0.0000
      9 O9         113.4217 260.6369 349.1524 O.2            1 RES1               0.0000
     10 N10        114.4392 258.2236 352.1943 N.am           1 RES1               0.0000
     11 O11        116.6355 258.6920 352.0926 O.2            1 RES1               0.0000
     12 C12        115.1886 261.7639 351.9936 C.3            1 RES1               0.0000
     13 C13        116.9991 257.1036 348.2415 C.ar           1 RES1               0.0000
     14 C14        116.9300 259.1405 347.0064 C.ar           1 RES1               0.0000
     15 C15        113.1544 258.2301 351.7237 C.2            1 RES1               0.0000
     16 C16        117.2866 257.8117 347.0941 C.ar           1 RES1               0.0000
     17 O17        112.2521 257.5903 352.2564 O.2            1 RES1               0.0000
     18 H18        116.8787 261.1144 350.8485 H              1 RES1               0.0000
     19 H19        115.5676 261.8192 349.8859 H              1 RES1               0.0000
     20 H20        116.1393 257.1503 350.1956 H              1 RES1               0.0000
     21 H21        116.0156 260.8085 347.9726 H              1 RES1               0.0000
     22 H22        111.9876 258.9314 350.2018 H              1 RES1               0.0000
     23 H23        114.6129 257.6980 353.0451 H              1 RES1               0.0000
     24 H24        115.5911 262.7585 352.1736 H              1 RES1               0.0000
     25 H25        114.1074 261.8468 351.9044 H              1 RES1               0.0000
     26 H26        115.4108 261.1462 352.8614 H              1 RES1               0.0000
     27 H27        117.2788 256.0579 348.3160 H              1 RES1               0.0000
     28 H28        117.1549 259.7019 346.1056 H              1 RES1               0.0000
     29 H29        117.7908 257.3261 346.2651 H              1 RES1               0.0000
@<TRIPOS>BOND
    1    1    2 1     
    2    1    3 1     
    3    1    4 1     
    4    1    5 1     
    5    2    6 ar    
    6    2    7 ar    
    7    3    8 1     
    8    3    9 2     
    9    4   10 1     
   10    4   11 2     
   11    5   12 1     
   12    5   18 1     
   13    5   19 1     
   14    6   13 ar    
   15    6   20 1     
   16    7   14 ar    
   17    7   21 1     
   18    8   15 1     
   19    8   22 1     
   20   10   15 1     
   21   10   23 1     
   22   12   24 1     
   23   12   25 1     
   24   12   26 1     
   25   13   16 ar    
   26   13   27 1     
   27   14   16 ar    
   28   14   28 1     
   29   15   17 2     
   30   16   29 1     
@<TRIPOS>SUBSTRUCTURE
      1 RES1           1
@<TRIPOS>SET
DONOR_HYDROGENS      STATIC     ATOMS    <user>   **** ""
2 22 23
ATOM$RED        STATIC     ATOMS    COLORGROUP SYSTEM
2 22 23
@<TRIPOS>COMMENT
> <Gold.Version>
2022.3.0

> <Gold.Id.Protein>
unknown|5adg_clean|pdb

> <Gold.Protein.RotatedTorsions>
[ 1107 1100 1101 1102 ] final   65.20 input   86.23 | X-H torsion
[ 1140 1124 1125 1126 ] final  -81.12 input   63.27 | X-H torsion
[ 1158 1154 1155 1156 ] final -106.08 input  128.69 | X-H torsion
[ 1176 1170 1171 1172 ] final  148.91 input   75.71 | X-H torsion
[ 1180 1175 1174 1171 ] final  167.41 input   60.03 | X-H torsion
[ 1202 1194 1195 1196 ] final  -87.72 input   99.83 | X-H torsion
[ 1240 1232 1233 1234 ] final  -18.57 input  109.94 | X-H torsion
[ 13440 13433 13432 13430 ] final -155.65 input   60.02 | X-H torsion
[ 11619 11589 11588 11586 ] final -108.15 input   59.96 | X-H torsion
[ 11922 11915 11916 11917 ] final  176.97 input  122.96 | X-H torsion
[ 13465 1067 1066 1065 ] final -129.94 input   -0.00 | X-H torsion
[ 13468 1103 1102 1101 ] final  146.15 input   -0.00 | X-H torsion
[ 13471 1127 1126 1125 ] final  -84.87 input   -0.00 | X-H torsion
[ 13476 1157 1156 1155 ] final  178.76 input    0.00 | X-H torsion
[ 13479 1173 1172 1171 ] final -112.02 input    0.00 | X-H torsion
[ 13484 1197 1196 1195 ] final -148.96 input   -0.00 | X-H torsion

> <Gold.Protein.ActiveResidues>
 VAL308  THR329  CYS331  ILE335  CYS336  MET337  GLY338  SER339  ILE340  MET341 
 PRO343  SER418  ARG419  ARG423  PHE663  TYR671  CYS677  PRO678  ALA679  ASP680 
 TRP681  VAL682  TRP683  ILE684  VAL685  VAL695  GLN698  GLU699  MET700  LEU701 
 ASN702  TYR703  H4B760 

> <Gold.Protein.RotatedAtoms>
  109.8245  260.5135  345.3033 H   0  0  0  0  0  0  0  0  0  0  0  0  # atno 1107 bound_to 1100
  110.6127  259.0647  342.3833 H   0  0  0  0  0  0  0  0  0  0  0  0  # atno 1140 bound_to 1124
  111.2571  258.0514  339.8988 H   0  0  0  0  0  0  0  0  0  0  0  0  # atno 1158 bound_to 1154
  111.7117  254.6445  340.9465 H   0  0  0  0  0  0  0  0  0  0  0  0  # atno 1176 bound_to 1170
  109.3928  251.9365  342.4603 H   0  0  0  0  0  0  0  0  0  0  0  0  # atno 1180 bound_to 1175
  109.2677  253.4058  338.8787 H   0  0  0  0  0  0  0  0  0  0  0  0  # atno 1202 bound_to 1194
  107.5520  254.0706  335.6247 H   0  0  0  0  0  0  0  0  0  0  0  0  # atno 1240 bound_to 1232
  102.3771  254.8987  346.1981 H   0  0  0  0  0  0  0  0  0  0  0  0  # atno 11619 bound_to 11589
  117.8018  251.9301  339.1661 H   0  0  0  0  0  0  0  0  0  0  0  0  # atno 11922 bound_to 11915
  110.4815  250.3490  338.1920 H   0  0  0  0  0  0  0  0  0  0  0  0  # atno 13440 bound_to 13433
  109.7333  262.3119  342.3129 LP  0  0  0  0  0  0  0  0  0  0  0  0  # atno 13465 bound_to 1067
  110.0586  263.7643  343.1987 LP  0  0  0  0  0  0  0  0  0  0  0  0  # atno 13466 bound_to 1067
  110.0302  262.0215  344.4471 LP  0  0  0  0  0  0  0  0  0  0  0  0  # atno 13467 bound_to 1100
  108.5211  258.3685  343.0360 LP  0  0  0  0  0  0  0  0  0  0  0  0  # atno 13468 bound_to 1103
  109.6607  258.2981  344.3385 LP  0  0  0  0  0  0  0  0  0  0  0  0  # atno 13469 bound_to 1103
  110.4124  260.2984  341.1600 LP  0  0  0  0  0  0  0  0  0  0  0  0  # atno 13470 bound_to 1124
  109.5760  256.1194  338.8361 LP  0  0  0  0  0  0  0  0  0  0  0  0  # atno 13471 bound_to 1127
  110.3362  257.4034  337.9568 LP  0  0  0  0  0  0  0  0  0  0  0  0  # atno 13472 bound_to 1127
  111.3573  257.1332  341.3860 LP  0  0  0  0  0  0  0  0  0  0  0  0  # atno 13475 bound_to 1154
  112.5296  253.5250  338.2777 LP  0  0  0  0  0  0  0  0  0  0  0  0  # atno 13476 bound_to 1157
  113.5618  254.8963  338.0448 LP  0  0  0  0  0  0  0  0  0  0  0  0  # atno 13477 bound_to 1157
  111.0062  255.2679  339.4782 LP  0  0  0  0  0  0  0  0  0  0  0  0  # atno 13478 bound_to 1170
  108.8202  251.6811  337.7596 LP  0  0  0  0  0  0  0  0  0  0  0  0  # atno 13479 bound_to 1173
  108.4261  251.5623  339.4420 LP  0  0  0  0  0  0  0  0  0  0  0  0  # atno 13480 bound_to 1173
  108.7505  252.8230  341.2569 LP  0  0  0  0  0  0  0  0  0  0  0  0  # atno 13481 bound_to 1175
  109.8426  253.4886  342.2723 LP  0  0  0  0  0  0  0  0  0  0  0  0  # atno 13482 bound_to 1175
  109.5198  255.1172  338.6412 LP  0  0  0  0  0  0  0  0  0  0  0  0  # atno 13483 bound_to 1194
  109.4003  254.7413  334.6547 LP  0  0  0  0  0  0  0  0  0  0  0  0  # atno 13484 bound_to 1197
  110.0817  254.8574  336.2428 LP  0  0  0  0  0  0  0  0  0  0  0  0  # atno 13485 bound_to 1197
  107.4399  252.4013  336.1095 LP  0  0  0  0  0  0  0  0  0  0  0  0  # atno 13504 bound_to 1232
  109.3080  250.3266  337.0650 LP  0  0  0  0  0  0  0  0  0  0  0  0  # atno 13509 bound_to 13433
  110.8093  249.8014  336.6951 LP  0  0  0  0  0  0  0  0  0  0  0  0  # atno 13510 bound_to 13433

> <Gold.Score>
     Fitness  S(hb_ext) S(vdw_ext)  S(hb_int)    S(int)      intcor
     30.51       0.00      23.26       0.00      -1.48      -0.77

> <Gold.Goldscore.Fitness>
30.5091

> <Gold.Goldscore.Internal.Vdw>
-1.8132

> <Gold.Goldscore.Internal.Torsion>
-0.4348

> <Gold.Goldscore.External.Vdw>
23.2639

> <Gold.Goldscore.Internal.HBond>
0.0000

> <Gold.Goldscore.External.HBond>
0.0000

> <Gold.Goldscore.Internal.Correction>
-0.7693

> <Gold.Goldscore.Internal.Vdw.Weighted>
-1.8132

> <Gold.Goldscore.Internal.Torsion.Weighted>
-0.4348

> <Gold.Goldscore.External.Vdw.Weighted>
31.9878

> <Gold.Goldscore.Internal.HBond.Weighted>
0.0000

> <Gold.Goldscore.External.HBond.Weighted>
0.0000

> <Gold.Goldscore.Internal.Correction.Weighted>
-0.7693

> <Gold.Rescore>
     Score     S(PLP)   S(hbond)     S(cho)   S(metal)  DE(clash)   DE(tors)     intcor
     32.80     -35.08       0.00       0.00       0.00       2.01       0.14       ----

> <Gold.PLP.Fitness>
32.7960

> <Gold.PLP.PLP>
-35.0815

> <Gold.PLP.part.hbond>
-1.7807

> <Gold.PLP.part.metal>
0.0000

> <Gold.PLP.part.buried>
-7.0696

> <Gold.PLP.part.nonpolar>
-28.0628

> <Gold.PLP.part.repulsive>
0.3747

> <Gold.PLP.ligand.clash>
2.0086

> <Gold.PLP.ligand.torsion>
0.1384

> <Gold.PLP.Chemscore.Hbond>
0.0000

> <Gold.PLP.Chemscore.CHOScore>
0.0000

> <Gold.PLP.Chemscore.Metal>
0.0000

> <Gold.Chemscore.Hbonds>
donor molecule, donor type, donor heavy atom, donor atom, acceptor molecule, acceptor atom, score
      L1  H     8    22       P1 12549  0.07

> <Gold.PLP.Chemscore.Internal.Correction>
   9.000000E+99

