#       Name:                CT1002167954
#       Creating user name   hitesit
#       Creation time:       Sun Apr 16 20:17:37 2023


#       File generated by GOLD software.
#

@<TRIPOS>MOLECULE
CT1002167954|ligand_prepared|mol2|1|dock2
    29    30     1
SMALL
NO_CHARGES


@<TRIPOS>ATOM
      1 C1         113.7451 255.6257 343.9377 C.3            1 RES1               0.0000
      2 C2         114.4298 256.4993 345.0086 C.ar           1 RES1               0.0000
      3 C3         113.1374 254.4380 344.6783 C.2            1 RES1               0.0000
      4 C4         112.7201 256.5200 343.2491 C.2            1 RES1               0.0000
      5 C5         114.7126 255.0883 342.8576 C.3            1 RES1               0.0000
      6 C6         114.1933 257.8697 345.0624 C.ar           1 RES1               0.0000
      7 C7         115.2969 255.9498 345.9492 C.ar           1 RES1               0.0000
      8 N8         111.7831 254.4185 344.8376 N.am           1 RES1               0.0000
      9 O9         113.8394 253.5518 345.1497 O.2            1 RES1               0.0000
     10 N10        111.3936 256.2116 343.4013 N.am           1 RES1               0.0000
     11 O11        113.0484 257.4987 342.5898 O.2            1 RES1               0.0000
     12 C12        115.3995 256.1798 342.0521 C.3            1 RES1               0.0000
     13 C13        114.7993 258.6616 346.0236 C.ar           1 RES1               0.0000
     14 C14        115.9020 256.7437 346.9095 C.ar           1 RES1               0.0000
     15 C15        110.8774 255.2194 344.1895 C.2            1 RES1               0.0000
     16 C16        115.6536 258.0992 346.9480 C.ar           1 RES1               0.0000
     17 O17        109.6700 255.0383 344.3182 O.2            1 RES1               0.0000
     18 H18        115.4793 254.4733 343.3447 H              1 RES1               0.0000
     19 H19        114.1515 254.4427 342.1707 H              1 RES1               0.0000
     20 H20        113.5260 258.3304 344.3417 H              1 RES1               0.0000
     21 H21        115.5080 254.8859 345.9373 H              1 RES1               0.0000
     22 H22        111.4092 253.7464 345.4999 H              1 RES1               0.0000
     23 H23        110.7295 256.7736 342.8784 H              1 RES1               0.0000
     24 H24        116.0668 255.7486 341.3087 H              1 RES1               0.0000
     25 H25        114.6674 256.7955 341.5337 H              1 RES1               0.0000
     26 H26        115.9873 256.8259 342.7008 H              1 RES1               0.0000
     27 H27        114.6015 259.7282 346.0488 H              1 RES1               0.0000
     28 H28        116.5741 256.2968 347.6347 H              1 RES1               0.0000
     29 H29        116.1278 258.7197 347.7011 H              1 RES1               0.0000
@<TRIPOS>BOND
    1    1    2 1     
    2    1    3 1     
    3    1    4 1     
    4    1    5 1     
    5    2    6 ar    
    6    2    7 ar    
    7    3    8 1     
    8    3    9 2     
    9    4   10 1     
   10    4   11 2     
   11    5   12 1     
   12    5   18 1     
   13    5   19 1     
   14    6   13 ar    
   15    6   20 1     
   16    7   14 ar    
   17    7   21 1     
   18    8   15 1     
   19    8   22 1     
   20   10   15 1     
   21   10   23 1     
   22   12   24 1     
   23   12   25 1     
   24   12   26 1     
   25   13   16 ar    
   26   13   27 1     
   27   14   16 ar    
   28   14   28 1     
   29   15   17 2     
   30   16   29 1     
@<TRIPOS>SUBSTRUCTURE
      1 RES1           1
@<TRIPOS>SET
DONOR_HYDROGENS      STATIC     ATOMS    <user>   **** ""
2 22 23
ATOM$RED        STATIC     ATOMS    COLORGROUP SYSTEM
2 22 23
@<TRIPOS>COMMENT
> <Gold.Version>
2022.3.0

> <Gold.Id.Protein>
unknown|5adg_clean|pdb

> <Gold.Protein.RotatedTorsions>
[ 1107 1100 1101 1102 ] final   49.66 input   86.23 | X-H torsion
[ 1140 1124 1125 1126 ] final  -81.58 input   63.27 | X-H torsion
[ 1158 1154 1155 1156 ] final  163.85 input  128.69 | X-H torsion
[ 1176 1170 1171 1172 ] final   74.30 input   75.71 | X-H torsion
[ 1180 1175 1174 1171 ] final  -53.88 input   60.03 | X-H torsion
[ 1202 1194 1195 1196 ] final  150.45 input   99.83 | X-H torsion
[ 1240 1232 1233 1234 ] final -116.47 input  109.94 | X-H torsion
[ 13440 13433 13432 13430 ] final  -96.08 input   60.02 | X-H torsion
[ 11619 11589 11588 11586 ] final   48.71 input   59.96 | X-H torsion
[ 11922 11915 11916 11917 ] final  129.99 input  122.96 | X-H torsion
[ 13465 1067 1066 1065 ] final   67.50 input   -0.00 | X-H torsion
[ 13468 1103 1102 1101 ] final  -63.28 input   -0.00 | X-H torsion
[ 13471 1127 1126 1125 ] final  -11.25 input   -0.00 | X-H torsion
[ 13476 1157 1156 1155 ] final  126.56 input    0.00 | X-H torsion
[ 13479 1173 1172 1171 ] final  -70.31 input    0.00 | X-H torsion
[ 13484 1197 1196 1195 ] final -123.75 input   -0.00 | X-H torsion

> <Gold.Protein.ActiveResidues>
 VAL308  THR329  CYS331  ILE335  CYS336  MET337  GLY338  SER339  ILE340  MET341 
 PRO343  SER418  ARG419  ARG423  PHE663  TYR671  CYS677  PRO678  ALA679  ASP680 
 TRP681  VAL682  TRP683  ILE684  VAL685  VAL695  GLN698  GLU699  MET700  LEU701 
 ASN702  TYR703  H4B760 

> <Gold.Protein.RotatedAtoms>
  109.6360  260.4945  345.1589 H   0  0  0  0  0  0  0  0  0  0  0  0  # atno 1107 bound_to 1100
  110.6067  259.0667  342.3863 H   0  0  0  0  0  0  0  0  0  0  0  0  # atno 1140 bound_to 1124
  111.9529  258.1248  340.9465 H   0  0  0  0  0  0  0  0  0  0  0  0  # atno 1158 bound_to 1154
  110.7235  255.0135  340.8125 H   0  0  0  0  0  0  0  0  0  0  0  0  # atno 1176 bound_to 1170
  109.6957  253.6074  342.0324 H   0  0  0  0  0  0  0  0  0  0  0  0  # atno 1180 bound_to 1175
  109.0064  254.8709  339.2708 H   0  0  0  0  0  0  0  0  0  0  0  0  # atno 1202 bound_to 1194
  108.2899  253.1586  336.2233 H   0  0  0  0  0  0  0  0  0  0  0  0  # atno 1240 bound_to 1232
  102.7442  253.2079  345.5890 H   0  0  0  0  0  0  0  0  0  0  0  0  # atno 11619 bound_to 11589
  117.5468  252.2069  338.5664 H   0  0  0  0  0  0  0  0  0  0  0  0  # atno 11922 bound_to 11915
  111.0847  249.9950  337.5787 H   0  0  0  0  0  0  0  0  0  0  0  0  # atno 13440 bound_to 13433
  110.3027  263.6681  343.1889 LP  0  0  0  0  0  0  0  0  0  0  0  0  # atno 13465 bound_to 1067
  109.4891  262.4081  342.3227 LP  0  0  0  0  0  0  0  0  0  0  0  0  # atno 13466 bound_to 1067
  110.2152  262.0402  344.5888 LP  0  0  0  0  0  0  0  0  0  0  0  0  # atno 13467 bound_to 1100
  109.7702  257.9625  344.0759 LP  0  0  0  0  0  0  0  0  0  0  0  0  # atno 13468 bound_to 1103
  108.4116  258.7041  343.2986 LP  0  0  0  0  0  0  0  0  0  0  0  0  # atno 13469 bound_to 1103
  110.4182  260.2964  341.1571 LP  0  0  0  0  0  0  0  0  0  0  0  0  # atno 13470 bound_to 1124
  109.1417  257.0157  338.5449 LP  0  0  0  0  0  0  0  0  0  0  0  0  # atno 13471 bound_to 1127
  110.7705  256.5070  338.2481 LP  0  0  0  0  0  0  0  0  0  0  0  0  # atno 13472 bound_to 1127
  110.6848  257.0623  340.3735 LP  0  0  0  0  0  0  0  0  0  0  0  0  # atno 13475 bound_to 1154
  113.1723  253.5342  338.6870 LP  0  0  0  0  0  0  0  0  0  0  0  0  # atno 13476 bound_to 1157
  112.9191  254.8870  337.6355 LP  0  0  0  0  0  0  0  0  0  0  0  0  # atno 13477 bound_to 1157
  111.9827  254.9033  339.6106 LP  0  0  0  0  0  0  0  0  0  0  0  0  # atno 13478 bound_to 1170
  109.2598  251.3772  338.0671 LP  0  0  0  0  0  0  0  0  0  0  0  0  # atno 13479 bound_to 1173
  107.9865  251.8663  339.1346 LP  0  0  0  0  0  0  0  0  0  0  0  0  # atno 13480 bound_to 1173
  109.5904  252.0974  342.6286 LP  0  0  0  0  0  0  0  0  0  0  0  0  # atno 13481 bound_to 1175
  108.6975  252.5305  341.3318 LP  0  0  0  0  0  0  0  0  0  0  0  0  # atno 13482 bound_to 1175
  109.7767  253.6771  338.2558 LP  0  0  0  0  0  0  0  0  0  0  0  0  # atno 13483 bound_to 1194
  109.2682  255.0737  334.7770 LP  0  0  0  0  0  0  0  0  0  0  0  0  # atno 13484 bound_to 1197
  110.2137  254.5250  336.1205 LP  0  0  0  0  0  0  0  0  0  0  0  0  # atno 13485 bound_to 1197
  106.7059  253.3085  335.5140 LP  0  0  0  0  0  0  0  0  0  0  0  0  # atno 13504 bound_to 1232
  109.5867  250.5190  337.9383 LP  0  0  0  0  0  0  0  0  0  0  0  0  # atno 13509 bound_to 13433
  109.9232  249.9654  336.4393 LP  0  0  0  0  0  0  0  0  0  0  0  0  # atno 13510 bound_to 13433

> <Gold.Score>
     Fitness  S(hb_ext) S(vdw_ext)  S(hb_int)    S(int)      intcor
      0.00       3.13    -484.51       0.00     -30.43      -0.77

> <Gold.Goldscore.Fitness>
0.0000

> <Gold.Goldscore.Internal.Vdw>
-28.9174

> <Gold.Goldscore.Internal.Torsion>
-2.2773

> <Gold.Goldscore.External.Vdw>
-484.5056

> <Gold.Goldscore.Internal.HBond>
0.0000

> <Gold.Goldscore.External.HBond>
3.1306

> <Gold.Goldscore.Internal.Correction>
-0.7693

> <Gold.Goldscore.Hbonds>
donor molecule, donor type, donor heavy atom, donor atom, acceptor molecule, acceptor atom, score
      P1  H 11860 11898       L1    17  0.04
      L1  H     8    22       P1 11819  0.23

> <Gold.Goldscore.Internal.Vdw.Weighted>
-28.9174

> <Gold.Goldscore.Internal.Torsion.Weighted>
-2.2773

> <Gold.Goldscore.External.Vdw.Weighted>
-666.1952

> <Gold.Goldscore.Internal.HBond.Weighted>
0.0000

> <Gold.Goldscore.External.HBond.Weighted>
3.1306

> <Gold.Goldscore.Internal.Correction.Weighted>
-0.7693

> <Gold.Rescore>
     Score     S(PLP)   S(hbond)     S(cho)   S(metal)  DE(clash)   DE(tors)     intcor
    -16.96      20.20       1.90       0.00       0.00       1.91       0.28       ----

> <Gold.PLP.Fitness>
-16.9641

> <Gold.PLP.PLP>
20.1966

> <Gold.PLP.part.hbond>
-6.9162

> <Gold.PLP.part.metal>
0.0000

> <Gold.PLP.part.buried>
31.1689

> <Gold.PLP.part.nonpolar>
-13.9703

> <Gold.PLP.part.repulsive>
9.3690

> <Gold.PLP.ligand.clash>
1.9090

> <Gold.PLP.ligand.torsion>
0.2776

> <Gold.PLP.Chemscore.Hbond>
1.8989

> <Gold.PLP.Chemscore.CHOScore>
0.0000

> <Gold.PLP.Chemscore.Metal>
0.0000

> <Gold.Chemscore.Hbonds>
donor molecule, donor type, donor heavy atom, donor atom, acceptor molecule, acceptor atom, score
      L1  H     8    22       P1 11819  0.29
      L1  H    10    23       P1  1103  0.13
      P1  H  1154  1158       L1    11  0.14
      P1  H 11908 11931       L1     9  1.00

> <Gold.PLP.Chemscore.Internal.Correction>
   9.000000E+99

