#       Name:                CT1002167954
#       Creating user name   hitesit
#       Creation time:       Sun Apr 16 20:17:40 2023


#       File generated by GOLD software.
#

@<TRIPOS>MOLECULE
CT1002167954|ligand_prepared|mol2|1|dock6
    29    30     1
SMALL
NO_CHARGES


@<TRIPOS>ATOM
      1 C1         114.3131 259.8254 351.0305 C.3            1 RES1               0.0000
      2 C2         115.0788 259.4492 349.7456 C.ar           1 RES1               0.0000
      3 C3         115.0743 260.9897 351.6576 C.2            1 RES1               0.0000
      4 C4         112.8938 260.1726 350.5950 C.2            1 RES1               0.0000
      5 C5         114.2284 258.6795 352.0655 C.3            1 RES1               0.0000
      6 C6         116.0143 258.4189 349.7542 C.ar           1 RES1               0.0000
      7 C7         114.8590 260.1203 348.5457 C.ar           1 RES1               0.0000
      8 N8         114.5182 262.2314 351.5647 N.am           1 RES1               0.0000
      9 O9         116.1650 260.8268 352.1907 O.2            1 RES1               0.0000
     10 N10        112.4717 261.4665 350.7544 N.am           1 RES1               0.0000
     11 O11        112.1428 259.3412 350.1000 O.2            1 RES1               0.0000
     12 C12        113.1422 258.8769 353.1112 C.3            1 RES1               0.0000
     13 C13        116.7030 258.0701 348.6043 C.ar           1 RES1               0.0000
     14 C14        115.5490 259.7700 347.3969 C.ar           1 RES1               0.0000
     15 C15        113.2299 262.5185 351.1911 C.2            1 RES1               0.0000
     16 C16        116.4705 258.7450 347.4249 C.ar           1 RES1               0.0000
     17 O17        112.7951 263.6648 351.2557 O.2            1 RES1               0.0000
     18 H18        114.0410 257.7377 351.5352 H              1 RES1               0.0000
     19 H19        115.1963 258.5910 352.5743 H              1 RES1               0.0000
     20 H20        116.2124 257.8780 350.6736 H              1 RES1               0.0000
     21 H21        114.1394 260.9307 348.5004 H              1 RES1               0.0000
     22 H22        115.1154 263.0194 351.7942 H              1 RES1               0.0000
     23 H23        111.5024 261.6637 350.5266 H              1 RES1               0.0000
     24 H24        113.1260 258.0450 353.8123 H              1 RES1               0.0000
     25 H25        113.3112 259.7919 353.6750 H              1 RES1               0.0000
     26 H26        112.1628 258.9438 352.6420 H              1 RES1               0.0000
     27 H27        117.4282 257.2636 348.6319 H              1 RES1               0.0000
     28 H28        115.3633 260.3044 346.4710 H              1 RES1               0.0000
     29 H29        117.0099 258.4713 346.5241 H              1 RES1               0.0000
@<TRIPOS>BOND
    1    1    2 1     
    2    1    3 1     
    3    1    4 1     
    4    1    5 1     
    5    2    6 ar    
    6    2    7 ar    
    7    3    8 1     
    8    3    9 2     
    9    4   10 1     
   10    4   11 2     
   11    5   12 1     
   12    5   18 1     
   13    5   19 1     
   14    6   13 ar    
   15    6   20 1     
   16    7   14 ar    
   17    7   21 1     
   18    8   15 1     
   19    8   22 1     
   20   10   15 1     
   21   10   23 1     
   22   12   24 1     
   23   12   25 1     
   24   12   26 1     
   25   13   16 ar    
   26   13   27 1     
   27   14   16 ar    
   28   14   28 1     
   29   15   17 2     
   30   16   29 1     
@<TRIPOS>SUBSTRUCTURE
      1 RES1           1
@<TRIPOS>SET
DONOR_HYDROGENS      STATIC     ATOMS    <user>   **** ""
2 22 23
ATOM$RED        STATIC     ATOMS    COLORGROUP SYSTEM
2 22 23
@<TRIPOS>COMMENT
> <Gold.Version>
2022.3.0

> <Gold.Id.Protein>
unknown|5adg_clean|pdb

> <Gold.Protein.RotatedTorsions>
[ 1107 1100 1101 1102 ] final  -33.93 input   86.23 | X-H torsion
[ 1140 1124 1125 1126 ] final  169.36 input   63.27 | X-H torsion
[ 1158 1154 1155 1156 ] final  -48.27 input  128.69 | X-H torsion
[ 1176 1170 1171 1172 ] final  -33.26 input   75.71 | X-H torsion
[ 1180 1175 1174 1171 ] final  179.08 input   60.03 | X-H torsion
[ 1202 1194 1195 1196 ] final   40.99 input   99.83 | X-H torsion
[ 1240 1232 1233 1234 ] final    3.70 input  109.94 | X-H torsion
[ 13440 13433 13432 13430 ] final -122.44 input   60.02 | X-H torsion
[ 11619 11589 11588 11586 ] final  170.55 input   59.96 | X-H torsion
[ 11922 11915 11916 11917 ] final   58.03 input  122.96 | X-H torsion
[ 13465 1067 1066 1065 ] final  -84.84 input   -0.00 | X-H torsion
[ 13468 1103 1102 1101 ] final  168.65 input   -0.00 | X-H torsion
[ 13471 1127 1126 1125 ] final  -33.68 input   -0.00 | X-H torsion
[ 13476 1157 1156 1155 ] final  -27.30 input    0.00 | X-H torsion
[ 13479 1173 1172 1171 ] final -118.85 input    0.00 | X-H torsion
[ 13484 1197 1196 1195 ] final  149.39 input   -0.00 | X-H torsion

> <Gold.Protein.ActiveResidues>
 VAL308  THR329  CYS331  ILE335  CYS336  MET337  GLY338  SER339  ILE340  MET341 
 PRO343  SER418  ARG419  ARG423  PHE663  TYR671  CYS677  PRO678  ALA679  ASP680 
 TRP681  VAL682  TRP683  ILE684  VAL685  VAL695  GLN698  GLU699  MET700  LEU701 
 ASN702  TYR703  H4B760 

> <Gold.Protein.RotatedAtoms>
  109.2353  261.2232  344.3290 H   0  0  0  0  0  0  0  0  0  0  0  0  # atno 1107 bound_to 1100
  109.7581  260.1351  341.9111 H   0  0  0  0  0  0  0  0  0  0  0  0  # atno 1140 bound_to 1124
  110.7454  257.3669  340.0003 H   0  0  0  0  0  0  0  0  0  0  0  0  # atno 1158 bound_to 1154
  111.0347  255.2775  339.4571 H   0  0  0  0  0  0  0  0  0  0  0  0  # atno 1176 bound_to 1170
  109.5181  252.0304  342.5684 H   0  0  0  0  0  0  0  0  0  0  0  0  # atno 1180 bound_to 1175
  109.8988  254.6734  338.1609 H   0  0  0  0  0  0  0  0  0  0  0  0  # atno 1202 bound_to 1194
  107.2392  253.9945  335.5243 H   0  0  0  0  0  0  0  0  0  0  0  0  # atno 1240 bound_to 1232
  101.9058  254.5370  345.1328 H   0  0  0  0  0  0  0  0  0  0  0  0  # atno 11619 bound_to 11589
  117.8308  251.8183  337.6406 H   0  0  0  0  0  0  0  0  0  0  0  0  # atno 11922 bound_to 11915
  110.9070  250.1528  337.9333 H   0  0  0  0  0  0  0  0  0  0  0  0  # atno 13440 bound_to 13433
  109.1864  262.6739  342.4182 LP  0  0  0  0  0  0  0  0  0  0  0  0  # atno 13465 bound_to 1067
  110.6054  263.4023  343.0934 LP  0  0  0  0  0  0  0  0  0  0  0  0  # atno 13466 bound_to 1067
  110.6084  261.3251  345.4032 LP  0  0  0  0  0  0  0  0  0  0  0  0  # atno 13467 bound_to 1100
  108.7070  258.1009  342.9466 LP  0  0  0  0  0  0  0  0  0  0  0  0  # atno 13468 bound_to 1103
  109.4748  258.5657  344.4279 LP  0  0  0  0  0  0  0  0  0  0  0  0  # atno 13469 bound_to 1103
  111.2428  259.2583  341.6188 LP  0  0  0  0  0  0  0  0  0  0  0  0  # atno 13470 bound_to 1124
  109.1435  256.7126  338.6919 LP  0  0  0  0  0  0  0  0  0  0  0  0  # atno 13471 bound_to 1127
  110.7687  256.8102  338.1011 LP  0  0  0  0  0  0  0  0  0  0  0  0  # atno 13472 bound_to 1127
  111.8518  257.7948  341.2879 LP  0  0  0  0  0  0  0  0  0  0  0  0  # atno 13475 bound_to 1154
  113.2630  254.9690  337.8040 LP  0  0  0  0  0  0  0  0  0  0  0  0  # atno 13476 bound_to 1157
  112.8284  253.4523  338.5185 LP  0  0  0  0  0  0  0  0  0  0  0  0  # atno 13477 bound_to 1157
  111.6751  254.6424  340.9500 LP  0  0  0  0  0  0  0  0  0  0  0  0  # atno 13478 bound_to 1170
  108.7312  251.7324  337.7487 LP  0  0  0  0  0  0  0  0  0  0  0  0  # atno 13479 bound_to 1173
  108.5150  251.5111  339.4529 LP  0  0  0  0  0  0  0  0  0  0  0  0  # atno 13480 bound_to 1173
  108.7098  252.6395  341.2948 LP  0  0  0  0  0  0  0  0  0  0  0  0  # atno 13481 bound_to 1175
  109.7571  253.5774  342.1255 LP  0  0  0  0  0  0  0  0  0  0  0  0  # atno 13482 bound_to 1175
  108.8995  253.8712  339.3468 LP  0  0  0  0  0  0  0  0  0  0  0  0  # atno 13483 bound_to 1194
  109.9191  254.0964  334.9753 LP  0  0  0  0  0  0  0  0  0  0  0  0  # atno 13484 bound_to 1197
  109.5628  255.5023  335.9222 LP  0  0  0  0  0  0  0  0  0  0  0  0  # atno 13485 bound_to 1197
  107.7511  252.4770  336.2094 LP  0  0  0  0  0  0  0  0  0  0  0  0  # atno 13504 bound_to 1232
  109.3510  250.4738  337.5816 LP  0  0  0  0  0  0  0  0  0  0  0  0  # atno 13509 bound_to 13433
  110.3378  249.8517  336.4389 LP  0  0  0  0  0  0  0  0  0  0  0  0  # atno 13510 bound_to 13433

> <Gold.Score>
     Fitness  S(hb_ext) S(vdw_ext)  S(hb_int)    S(int)      intcor
     33.42       0.00      25.02       0.00      -0.98      -0.76

> <Gold.Goldscore.Fitness>
33.4225

> <Gold.Goldscore.Internal.Vdw>
-0.9057

> <Gold.Goldscore.Internal.Torsion>
-0.8435

> <Gold.Goldscore.External.Vdw>
25.0231

> <Gold.Goldscore.Internal.HBond>
0.0000

> <Gold.Goldscore.External.HBond>
0.0000

> <Gold.Goldscore.Internal.Correction>
-0.7650

> <Gold.Goldscore.Internal.Vdw.Weighted>
-0.9057

> <Gold.Goldscore.Internal.Torsion.Weighted>
-0.8435

> <Gold.Goldscore.External.Vdw.Weighted>
34.4068

> <Gold.Goldscore.Internal.HBond.Weighted>
0.0000

> <Gold.Goldscore.External.HBond.Weighted>
0.0000

> <Gold.Goldscore.Internal.Correction.Weighted>
-0.7650

> <Gold.Rescore>
     Score     S(PLP)   S(hbond)     S(cho)   S(metal)  DE(clash)   DE(tors)     intcor
     28.31     -28.44       0.37       0.00       0.00       0.00       0.61       ----

> <Gold.PLP.Fitness>
28.3085

> <Gold.PLP.PLP>
-28.4404

> <Gold.PLP.part.hbond>
-2.0029

> <Gold.PLP.part.metal>
0.0000

> <Gold.PLP.part.buried>
-4.0801

> <Gold.PLP.part.nonpolar>
-24.1656

> <Gold.PLP.part.repulsive>
0.5318

> <Gold.PLP.ligand.clash>
0.0000

> <Gold.PLP.ligand.torsion>
0.6135

> <Gold.PLP.Chemscore.Hbond>
0.3650

> <Gold.PLP.Chemscore.CHOScore>
0.0000

> <Gold.PLP.Chemscore.Metal>
0.0000

> <Gold.PLP.Chemscore.Internal.Correction>
   9.000000E+99

