#       Name:                CT1002167954
#       Creating user name   hitesit
#       Creation time:       Sun Apr 16 20:17:41 2023


#       File generated by GOLD software.
#

@<TRIPOS>MOLECULE
CT1002167954|ligand_prepared|mol2|1|dock7
    29    30     1
SMALL
NO_CHARGES


@<TRIPOS>ATOM
      1 C1         113.7295 255.2193 343.1660 C.3            1 RES1               0.0000
      2 C2         114.8262 255.0778 342.0908 C.ar           1 RES1               0.0000
      3 C3         114.1947 254.3959 344.3635 C.2            1 RES1               0.0000
      4 C4         113.6002 256.7117 343.4497 C.2            1 RES1               0.0000
      5 C5         112.3447 254.6963 342.7185 C.3            1 RES1               0.0000
      6 C6         115.2110 253.8214 341.6321 C.ar           1 RES1               0.0000
      7 C7         115.4593 256.1924 341.5473 C.ar           1 RES1               0.0000
      8 N8         114.6488 255.0723 345.4572 N.am           1 RES1               0.0000
      9 O9         114.2002 253.1714 344.3336 O.2            1 RES1               0.0000
     10 N10        113.9537 257.1616 344.6948 N.am           1 RES1               0.0000
     11 O11        113.2113 257.5045 342.6009 O.2            1 RES1               0.0000
     12 C12        111.2345 254.9640 343.7225 C.3            1 RES1               0.0000
     13 C13        116.1909 253.6844 340.6630 C.ar           1 RES1               0.0000
     14 C14        116.4392 256.0531 340.5783 C.ar           1 RES1               0.0000
     15 C15        114.5012 256.4140 345.7016 C.2            1 RES1               0.0000
     16 C16        116.8054 254.8000 340.1352 C.ar           1 RES1               0.0000
     17 O17        114.8440 256.9009 346.7751 O.2            1 RES1               0.0000
     18 H18        112.0799 255.1693 341.7648 H              1 RES1               0.0000
     19 H19        112.4137 253.6147 342.5486 H              1 RES1               0.0000
     20 H20        114.7404 252.9320 342.0376 H              1 RES1               0.0000
     21 H21        115.1881 257.1880 341.8815 H              1 RES1               0.0000
     22 H22        115.1439 254.5304 346.1583 H              1 RES1               0.0000
     23 H23        113.7937 258.1450 344.8893 H              1 RES1               0.0000
     24 H24        110.2846 254.5770 343.3595 H              1 RES1               0.0000
     25 H25        111.4529 254.4867 344.6755 H              1 RES1               0.0000
     26 H26        111.1211 256.0321 343.8964 H              1 RES1               0.0000
     27 H27        116.4765 252.6959 340.3186 H              1 RES1               0.0000
     28 H28        116.9205 256.9338 340.1662 H              1 RES1               0.0000
     29 H29        117.5727 254.6924 339.3757 H              1 RES1               0.0000
@<TRIPOS>BOND
    1    1    2 1     
    2    1    3 1     
    3    1    4 1     
    4    1    5 1     
    5    2    6 ar    
    6    2    7 ar    
    7    3    8 1     
    8    3    9 2     
    9    4   10 1     
   10    4   11 2     
   11    5   12 1     
   12    5   18 1     
   13    5   19 1     
   14    6   13 ar    
   15    6   20 1     
   16    7   14 ar    
   17    7   21 1     
   18    8   15 1     
   19    8   22 1     
   20   10   15 1     
   21   10   23 1     
   22   12   24 1     
   23   12   25 1     
   24   12   26 1     
   25   13   16 ar    
   26   13   27 1     
   27   14   16 ar    
   28   14   28 1     
   29   15   17 2     
   30   16   29 1     
@<TRIPOS>SUBSTRUCTURE
      1 RES1           1
@<TRIPOS>SET
DONOR_HYDROGENS      STATIC     ATOMS    <user>   **** ""
2 22 23
ATOM$RED        STATIC     ATOMS    COLORGROUP SYSTEM
2 22 23
@<TRIPOS>COMMENT
> <Gold.Version>
2022.3.0

> <Gold.Id.Protein>
unknown|5adg_clean|pdb

> <Gold.Protein.RotatedTorsions>
[ 1107 1100 1101 1102 ] final    8.88 input   86.23 | X-H torsion
[ 1140 1124 1125 1126 ] final  -95.64 input   63.27 | X-H torsion
[ 1158 1154 1155 1156 ] final  -21.78 input  128.69 | X-H torsion
[ 1176 1170 1171 1172 ] final  -71.95 input   75.71 | X-H torsion
[ 1180 1175 1174 1171 ] final    6.59 input   60.03 | X-H torsion
[ 1202 1194 1195 1196 ] final   89.98 input   99.83 | X-H torsion
[ 1240 1232 1233 1234 ] final   10.10 input  109.94 | X-H torsion
[ 13440 13433 13432 13430 ] final -141.08 input   60.02 | X-H torsion
[ 11619 11589 11588 11586 ] final   34.65 input   59.96 | X-H torsion
[ 11922 11915 11916 11917 ] final -166.73 input  122.96 | X-H torsion
[ 13465 1067 1066 1065 ] final  -87.19 input   -0.00 | X-H torsion
[ 13468 1103 1102 1101 ] final -174.38 input   -0.00 | X-H torsion
[ 13471 1127 1126 1125 ] final   -0.00 input   -0.00 | X-H torsion
[ 13476 1157 1156 1155 ] final  -97.03 input    0.00 | X-H torsion
[ 13479 1173 1172 1171 ] final  112.50 input    0.00 | X-H torsion
[ 13484 1197 1196 1195 ] final -119.53 input   -0.00 | X-H torsion

> <Gold.Protein.ActiveResidues>
 VAL308  THR329  CYS331  ILE335  CYS336  MET337  GLY338  SER339  ILE340  MET341 
 PRO343  SER418  ARG419  ARG423  PHE663  TYR671  CYS677  PRO678  ALA679  ASP680 
 TRP681  VAL682  TRP683  ILE684  VAL685  VAL695  GLN698  GLU699  MET700  LEU701 
 ASN702  TYR703  H4B760 

> <Gold.Protein.RotatedAtoms>
  109.2731  260.7072  344.7114 H   0  0  0  0  0  0  0  0  0  0  0  0  # atno 1107 bound_to 1100
  110.4194  259.1488  342.4594 H   0  0  0  0  0  0  0  0  0  0  0  0  # atno 1140 bound_to 1124
  110.6761  257.0803  340.2821 H   0  0  0  0  0  0  0  0  0  0  0  0  # atno 1158 bound_to 1154
  111.5864  255.1140  339.3757 H   0  0  0  0  0  0  0  0  0  0  0  0  # atno 1176 bound_to 1170
  109.0650  253.3869  341.3678 H   0  0  0  0  0  0  0  0  0  0  0  0  # atno 1180 bound_to 1175
  109.5475  255.1241  338.6156 H   0  0  0  0  0  0  0  0  0  0  0  0  # atno 1202 bound_to 1194
  107.1544  253.9508  335.5047 H   0  0  0  0  0  0  0  0  0  0  0  0  # atno 1240 bound_to 1232
  102.8498  253.2376  345.7903 H   0  0  0  0  0  0  0  0  0  0  0  0  # atno 11619 bound_to 11589
  117.9488  251.7588  339.2776 H   0  0  0  0  0  0  0  0  0  0  0  0  # atno 11922 bound_to 11915
  110.6891  250.2671  338.1106 H   0  0  0  0  0  0  0  0  0  0  0  0  # atno 13440 bound_to 13433
  109.2065  262.6471  342.4067 LP  0  0  0  0  0  0  0  0  0  0  0  0  # atno 13465 bound_to 1067
  110.5853  263.4291  343.1050 LP  0  0  0  0  0  0  0  0  0  0  0  0  # atno 13466 bound_to 1067
  110.5713  261.8315  345.0280 LP  0  0  0  0  0  0  0  0  0  0  0  0  # atno 13467 bound_to 1100
  108.8879  257.9203  342.9536 LP  0  0  0  0  0  0  0  0  0  0  0  0  # atno 13468 bound_to 1103
  109.2939  258.7462  344.4209 LP  0  0  0  0  0  0  0  0  0  0  0  0  # atno 13469 bound_to 1103
  110.6002  260.2166  341.0861 LP  0  0  0  0  0  0  0  0  0  0  0  0  # atno 13470 bound_to 1124
  109.1879  257.1560  338.4611 LP  0  0  0  0  0  0  0  0  0  0  0  0  # atno 13471 bound_to 1127
  110.7243  256.3668  338.3318 LP  0  0  0  0  0  0  0  0  0  0  0  0  # atno 13472 bound_to 1127
  111.9188  258.0717  341.0155 LP  0  0  0  0  0  0  0  0  0  0  0  0  # atno 13475 bound_to 1154
  112.4359  254.4640  337.6009 LP  0  0  0  0  0  0  0  0  0  0  0  0  # atno 13476 bound_to 1157
  113.6555  253.9573  338.7216 LP  0  0  0  0  0  0  0  0  0  0  0  0  # atno 13477 bound_to 1157
  111.1300  254.8040  341.0304 LP  0  0  0  0  0  0  0  0  0  0  0  0  # atno 13478 bound_to 1170
  107.9667  251.8838  339.1013 LP  0  0  0  0  0  0  0  0  0  0  0  0  # atno 13479 bound_to 1173
  109.2795  251.3597  338.1004 LP  0  0  0  0  0  0  0  0  0  0  0  0  # atno 13480 bound_to 1173
  109.9594  252.9716  342.6617 LP  0  0  0  0  0  0  0  0  0  0  0  0  # atno 13481 bound_to 1175
  108.9640  251.8784  341.9684 LP  0  0  0  0  0  0  0  0  0  0  0  0  # atno 13482 bound_to 1175
  109.2447  253.4282  338.8999 LP  0  0  0  0  0  0  0  0  0  0  0  0  # atno 13483 bound_to 1194
  109.2545  255.1258  334.8110 LP  0  0  0  0  0  0  0  0  0  0  0  0  # atno 13484 bound_to 1197
  110.2275  254.4729  336.0865 LP  0  0  0  0  0  0  0  0  0  0  0  0  # atno 13485 bound_to 1197
  107.8355  252.5204  336.2288 LP  0  0  0  0  0  0  0  0  0  0  0  0  # atno 13504 bound_to 1232
  109.2895  250.4014  337.2914 LP  0  0  0  0  0  0  0  0  0  0  0  0  # atno 13509 bound_to 13433
  110.6188  249.8091  336.5507 LP  0  0  0  0  0  0  0  0  0  0  0  0  # atno 13510 bound_to 13433

> <Gold.Score>
     Fitness  S(hb_ext) S(vdw_ext)  S(hb_int)    S(int)      intcor
      0.00       0.00     -70.47       0.00      -4.12      -0.76

> <Gold.Goldscore.Fitness>
0.0000

> <Gold.Goldscore.Internal.Vdw>
-3.5353

> <Gold.Goldscore.Internal.Torsion>
-1.3539

> <Gold.Goldscore.External.Vdw>
-70.4699

> <Gold.Goldscore.Internal.HBond>
0.0000

> <Gold.Goldscore.External.HBond>
0.0000

> <Gold.Goldscore.Internal.Correction>
-0.7650

> <Gold.Goldscore.Hbonds>
donor molecule, donor type, donor heavy atom, donor atom, acceptor molecule, acceptor atom, score
      P1  H 11908 11931       L1     9  1.00
      P1  H 12548 12563       L1    17  0.11

> <Gold.Goldscore.Internal.Vdw.Weighted>
-3.5353

> <Gold.Goldscore.Internal.Torsion.Weighted>
-1.3539

> <Gold.Goldscore.External.Vdw.Weighted>
-96.8961

> <Gold.Goldscore.Internal.HBond.Weighted>
0.0000

> <Gold.Goldscore.External.HBond.Weighted>
0.0000

> <Gold.Goldscore.Internal.Correction.Weighted>
-0.7650

> <Gold.Rescore>
     Score     S(PLP)   S(hbond)     S(cho)   S(metal)  DE(clash)   DE(tors)     intcor
      3.93       2.61       2.70       0.00       0.00       1.44       0.05       ----

> <Gold.PLP.Fitness>
3.9327

> <Gold.PLP.PLP>
2.6130

> <Gold.PLP.part.hbond>
-4.6042

> <Gold.PLP.part.metal>
0.0000

> <Gold.PLP.part.buried>
24.5818

> <Gold.PLP.part.nonpolar>
-21.0065

> <Gold.PLP.part.repulsive>
2.8712

> <Gold.PLP.ligand.clash>
1.4396

> <Gold.PLP.ligand.torsion>
0.0513

> <Gold.PLP.Chemscore.Hbond>
2.6960

> <Gold.PLP.Chemscore.CHOScore>
0.0000

> <Gold.PLP.Chemscore.Metal>
0.0000

> <Gold.Chemscore.Hbonds>
donor molecule, donor type, donor heavy atom, donor atom, acceptor molecule, acceptor atom, score
      L1  H     8    22       P1 11842  0.90
      P1  H 11908 11931       L1     9  1.00
      P1  H 12548 12563       L1    17  0.80

> <Gold.PLP.Chemscore.Internal.Correction>
   9.000000E+99

