#       Name:                CT1002167954
#       Creating user name   hitesit
#       Creation time:       Sun Apr 16 20:17:36 2023


#       File generated by GOLD software.
#

@<TRIPOS>MOLECULE
CT1002167954|ligand_prepared|mol2|1|dock1
    29    30     1
SMALL
NO_CHARGES


@<TRIPOS>ATOM
      1 C1         113.6319 255.2381 344.1790 C.3            1 RES1               0.0000
      2 C2         114.4188 256.1331 345.1580 C.ar           1 RES1               0.0000
      3 C3         112.4034 254.7477 344.9397 C.2            1 RES1               0.0000
      4 C4         113.3084 256.1095 342.9704 C.2            1 RES1               0.0000
      5 C5         114.4255 254.0073 343.6819 C.3            1 RES1               0.0000
      6 C6         115.5594 255.6540 345.7955 C.ar           1 RES1               0.0000
      7 C7         114.0187 257.4384 345.4313 C.ar           1 RES1               0.0000
      8 N8         111.1983 255.2976 344.6154 N.am           1 RES1               0.0000
      9 O9         112.4963 253.9199 345.8377 O.2            1 RES1               0.0000
     10 N10        111.9927 256.4023 342.7237 N.am           1 RES1               0.0000
     11 O11        114.1822 256.5588 342.2391 O.2            1 RES1               0.0000
     12 C12        113.7819 253.2993 342.5002 C.3            1 RES1               0.0000
     13 C13        116.2758 256.4519 346.6721 C.ar           1 RES1               0.0000
     14 C14        114.7365 258.2346 346.3085 C.ar           1 RES1               0.0000
     15 C15        110.9253 256.0613 343.5090 C.2            1 RES1               0.0000
     16 C16        115.8652 257.7427 346.9288 C.ar           1 RES1               0.0000
     17 O17        109.7765 256.4081 343.2500 O.2            1 RES1               0.0000
     18 H18        115.4336 254.3300 343.3940 H              1 RES1               0.0000
     19 H19        114.5253 253.2939 344.5093 H              1 RES1               0.0000
     20 H20        115.8963 254.6400 345.6078 H              1 RES1               0.0000
     21 H21        113.1333 257.8461 344.9555 H              1 RES1               0.0000
     22 H22        110.4289 255.1251 345.2546 H              1 RES1               0.0000
     23 H23        111.7901 256.9226 341.8760 H              1 RES1               0.0000
     24 H24        114.3789 252.4436 342.1915 H              1 RES1               0.0000
     25 H25        112.7872 252.9427 342.7592 H              1 RES1               0.0000
     26 H26        113.6901 253.9726 341.6505 H              1 RES1               0.0000
     27 H27        117.1626 256.0596 347.1589 H              1 RES1               0.0000
     28 H28        114.4093 259.2496 346.5080 H              1 RES1               0.0000
     29 H29        116.4268 258.3677 347.6153 H              1 RES1               0.0000
@<TRIPOS>BOND
    1    1    2 1     
    2    1    3 1     
    3    1    4 1     
    4    1    5 1     
    5    2    6 ar    
    6    2    7 ar    
    7    3    8 1     
    8    3    9 2     
    9    4   10 1     
   10    4   11 2     
   11    5   12 1     
   12    5   18 1     
   13    5   19 1     
   14    6   13 ar    
   15    6   20 1     
   16    7   14 ar    
   17    7   21 1     
   18    8   15 1     
   19    8   22 1     
   20   10   15 1     
   21   10   23 1     
   22   12   24 1     
   23   12   25 1     
   24   12   26 1     
   25   13   16 ar    
   26   13   27 1     
   27   14   16 ar    
   28   14   28 1     
   29   15   17 2     
   30   16   29 1     
@<TRIPOS>SUBSTRUCTURE
      1 RES1           1
@<TRIPOS>SET
DONOR_HYDROGENS      STATIC     ATOMS    <user>   **** ""
2 22 23
ATOM$RED        STATIC     ATOMS    COLORGROUP SYSTEM
2 22 23
@<TRIPOS>COMMENT
> <Gold.Version>
2022.3.0

> <Gold.Id.Protein>
unknown|5adg_clean|pdb

> <Gold.Protein.RotatedTorsions>
[ 1107 1100 1101 1102 ] final   -9.45 input   86.23 | X-H torsion
[ 1140 1124 1125 1126 ] final  -70.40 input   63.27 | X-H torsion
[ 1158 1154 1155 1156 ] final  -93.82 input  128.69 | X-H torsion
[ 1176 1170 1171 1172 ] final   33.16 input   75.71 | X-H torsion
[ 1180 1175 1174 1171 ] final  -52.08 input   60.03 | X-H torsion
[ 1202 1194 1195 1196 ] final -158.15 input   99.83 | X-H torsion
[ 1240 1232 1233 1234 ] final  -54.35 input  109.94 | X-H torsion
[ 13440 13433 13432 13430 ] final -139.54 input   60.02 | X-H torsion
[ 11619 11589 11588 11586 ] final  149.02 input   59.96 | X-H torsion
[ 11922 11915 11916 11917 ] final  -93.18 input  122.96 | X-H torsion
[ 13465 1067 1066 1065 ] final  141.99 input   -0.00 | X-H torsion
[ 13468 1103 1102 1101 ] final  177.57 input   -0.00 | X-H torsion
[ 13471 1127 1126 1125 ] final -135.85 input   -0.00 | X-H torsion
[ 13476 1157 1156 1155 ] final  151.66 input    0.00 | X-H torsion
[ 13479 1173 1172 1171 ] final  139.03 input    0.00 | X-H torsion
[ 13484 1197 1196 1195 ] final -161.83 input   -0.00 | X-H torsion

> <Gold.Protein.ActiveResidues>
 VAL308  THR329  CYS331  ILE335  CYS336  MET337  GLY338  SER339  ILE340  MET341 
 PRO343  SER418  ARG419  ARG423  PHE663  TYR671  CYS677  PRO678  ALA679  ASP680 
 TRP681  VAL682  TRP683  ILE684  VAL685  VAL695  GLN698  GLU699  MET700  LEU701 
 ASN702  TYR703  H4B760 

> <Gold.Protein.RotatedAtoms>
  109.2082  260.9048  344.5228 H   0  0  0  0  0  0  0  0  0  0  0  0  # atno 1107 bound_to 1100
  110.7518  259.0277  342.3012 H   0  0  0  0  0  0  0  0  0  0  0  0  # atno 1140 bound_to 1124
  111.1232  257.9244  339.8533 H   0  0  0  0  0  0  0  0  0  0  0  0  # atno 1158 bound_to 1154
  110.5245  255.2281  340.2699 H   0  0  0  0  0  0  0  0  0  0  0  0  # atno 1176 bound_to 1170
  109.6794  253.6147  342.0090 H   0  0  0  0  0  0  0  0  0  0  0  0  # atno 1180 bound_to 1175
  108.8450  254.1428  339.4351 H   0  0  0  0  0  0  0  0  0  0  0  0  # atno 1202 bound_to 1194
  108.0165  253.9347  335.8562 H   0  0  0  0  0  0  0  0  0  0  0  0  # atno 1240 bound_to 1232
  101.9429  254.2290  344.9712 H   0  0  0  0  0  0  0  0  0  0  0  0  # atno 11619 bound_to 11589
  118.5842  250.9768  338.9382 H   0  0  0  0  0  0  0  0  0  0  0  0  # atno 11922 bound_to 11915
  110.7094  250.2579  338.0989 H   0  0  0  0  0  0  0  0  0  0  0  0  # atno 13440 bound_to 13433
  110.7295  262.8042  342.7761 LP  0  0  0  0  0  0  0  0  0  0  0  0  # atno 13465 bound_to 1067
  109.0623  263.2720  342.7356 LP  0  0  0  0  0  0  0  0  0  0  0  0  # atno 13466 bound_to 1067
  110.6351  261.6376  345.2131 LP  0  0  0  0  0  0  0  0  0  0  0  0  # atno 13467 bound_to 1100
  108.7989  258.0024  342.9421 LP  0  0  0  0  0  0  0  0  0  0  0  0  # atno 13468 bound_to 1103
  109.3830  258.6642  344.4324 LP  0  0  0  0  0  0  0  0  0  0  0  0  # atno 13469 bound_to 1103
  110.2772  260.3343  341.2398 LP  0  0  0  0  0  0  0  0  0  0  0  0  # atno 13470 bound_to 1124
  110.2894  256.0046  338.6535 LP  0  0  0  0  0  0  0  0  0  0  0  0  # atno 13471 bound_to 1127
  109.6227  257.5182  338.1394 LP  0  0  0  0  0  0  0  0  0  0  0  0  # atno 13472 bound_to 1127
  111.4867  257.2560  341.4300 LP  0  0  0  0  0  0  0  0  0  0  0  0  # atno 13475 bound_to 1154
  112.8417  253.4526  338.5269 LP  0  0  0  0  0  0  0  0  0  0  0  0  # atno 13476 bound_to 1157
  113.2497  254.9687  337.7956 LP  0  0  0  0  0  0  0  0  0  0  0  0  # atno 13477 bound_to 1157
  112.1794  254.6912  340.1468 LP  0  0  0  0  0  0  0  0  0  0  0  0  # atno 13478 bound_to 1170
  107.8632  252.0131  338.7401 LP  0  0  0  0  0  0  0  0  0  0  0  0  # atno 13479 bound_to 1173
  109.3830  251.2304  338.4616 LP  0  0  0  0  0  0  0  0  0  0  0  0  # atno 13480 bound_to 1173
  109.6084  252.1173  342.6410 LP  0  0  0  0  0  0  0  0  0  0  0  0  # atno 13481 bound_to 1175
  108.6959  252.5032  341.3429 LP  0  0  0  0  0  0  0  0  0  0  0  0  # atno 13482 bound_to 1175
  109.9353  254.3928  338.0943 LP  0  0  0  0  0  0  0  0  0  0  0  0  # atno 13483 bound_to 1194
  109.4948  254.5719  334.6502 LP  0  0  0  0  0  0  0  0  0  0  0  0  # atno 13484 bound_to 1197
  109.9871  255.0268  336.2473 LP  0  0  0  0  0  0  0  0  0  0  0  0  # atno 13485 bound_to 1197
  106.9779  252.5365  335.8791 LP  0  0  0  0  0  0  0  0  0  0  0  0  # atno 13504 bound_to 1232
  109.2909  250.4084  337.3157 LP  0  0  0  0  0  0  0  0  0  0  0  0  # atno 13509 bound_to 13433
  110.5969  249.8112  336.5382 LP  0  0  0  0  0  0  0  0  0  0  0  0  # atno 13510 bound_to 13433

> <Gold.Score>
     Fitness  S(hb_ext) S(vdw_ext)  S(hb_int)    S(int)      intcor
     24.74       3.53      15.91       0.00      -0.68      -0.77

> <Gold.Goldscore.Fitness>
24.7352

> <Gold.Goldscore.Internal.Vdw>
-0.8327

> <Gold.Goldscore.Internal.Torsion>
-0.6124

> <Gold.Goldscore.External.Vdw>
15.9134

> <Gold.Goldscore.Internal.HBond>
0.0000

> <Gold.Goldscore.External.HBond>
3.5300

> <Gold.Goldscore.Internal.Correction>
-0.7693

> <Gold.Goldscore.Hbonds>
donor molecule, donor type, donor heavy atom, donor atom, acceptor molecule, acceptor atom, score
      P1  H  1175  1180       L1    17  0.02
      P1  H 11860 11898       L1     9  0.02
      L1  H     8    22       P1 11819  0.09
      L1  H    10    23       P1  1154  0.54

> <Gold.Goldscore.Internal.Vdw.Weighted>
-0.8327

> <Gold.Goldscore.Internal.Torsion.Weighted>
-0.6124

> <Gold.Goldscore.External.Vdw.Weighted>
21.8810

> <Gold.Goldscore.Internal.HBond.Weighted>
0.0000

> <Gold.Goldscore.External.HBond.Weighted>
3.5300

> <Gold.Goldscore.Internal.Correction.Weighted>
-0.7693

> <Gold.Rescore>
     Score     S(PLP)   S(hbond)     S(cho)   S(metal)  DE(clash)   DE(tors)     intcor
    -13.64      16.89       1.58       0.00       0.00       0.00       0.74       ----

> <Gold.PLP.Fitness>
-13.6421

> <Gold.PLP.PLP>
16.8870

> <Gold.PLP.part.hbond>
-5.7281

> <Gold.PLP.part.metal>
0.0000

> <Gold.PLP.part.buried>
32.8827

> <Gold.PLP.part.nonpolar>
-21.6786

> <Gold.PLP.part.repulsive>
11.0883

> <Gold.PLP.ligand.clash>
0.0000

> <Gold.PLP.ligand.torsion>
0.7449

> <Gold.PLP.Chemscore.Hbond>
1.5782

> <Gold.PLP.Chemscore.CHOScore>
0.0000

> <Gold.PLP.Chemscore.Metal>
0.0000

> <Gold.Chemscore.Hbonds>
donor molecule, donor type, donor heavy atom, donor atom, acceptor molecule, acceptor atom, score
      L1  H     8    22       P1 11819  0.01
      L1  H    10    23       P1  1154  0.71
      P1  H 11860 11898       L1     9  0.42

> <Gold.PLP.Chemscore.Internal.Correction>
   9.000000E+99

