#       Name:                CT1002167954
#       Creating user name   hitesit
#       Creation time:       Sun Apr 16 20:17:43 2023


#       File generated by GOLD software.
#

@<TRIPOS>MOLECULE
CT1002167954|ligand_prepared|mol2|1|dock9
    29    30     1
SMALL
NO_CHARGES


@<TRIPOS>ATOM
      1 C1         115.9296 259.3426 350.8046 C.3            1 RES1               0.0000
      2 C2         116.3454 259.3785 349.3198 C.ar           1 RES1               0.0000
      3 C3         116.6040 260.5402 351.4674 C.2            1 RES1               0.0000
      4 C4         114.4061 259.3980 350.8224 C.2            1 RES1               0.0000
      5 C5         116.3697 258.0587 351.5458 C.3            1 RES1               0.0000
      6 C6         115.6166 260.1236 348.3976 C.ar           1 RES1               0.0000
      7 C7         117.4550 258.6752 348.8585 C.ar           1 RES1               0.0000
      8 N8         115.8189 261.6063 351.7944 N.am           1 RES1               0.0000
      9 O9         117.8127 260.5649 351.6641 O.2            1 RES1               0.0000
     10 N10        113.8101 260.5058 351.3657 N.am           1 RES1               0.0000
     11 O11        113.7164 258.4997 350.3557 O.2            1 RES1               0.0000
     12 C12        115.6188 257.8128 352.8449 C.3            1 RES1               0.0000
     13 C13        115.9853 260.1665 347.0632 C.ar           1 RES1               0.0000
     14 C14        117.8219 258.7192 347.5236 C.ar           1 RES1               0.0000
     15 C15        114.4476 261.6262 351.8247 C.2            1 RES1               0.0000
     16 C16        117.0883 259.4648 346.6254 C.ar           1 RES1               0.0000
     17 O17        113.8403 262.6052 352.2489 O.2            1 RES1               0.0000
     18 H18        116.2185 257.1984 350.8822 H              1 RES1               0.0000
     19 H19        117.4423 258.1280 351.7657 H              1 RES1               0.0000
     20 H20        114.7442 260.6803 348.7232 H              1 RES1               0.0000
     21 H21        118.0464 258.0811 349.5470 H              1 RES1               0.0000
     22 H22        116.2954 262.4685 352.0390 H              1 RES1               0.0000
     23 H23        112.7975 260.4942 351.4346 H              1 RES1               0.0000
     24 H24        115.9660 256.8999 353.3243 H              1 RES1               0.0000
     25 H25        115.7676 258.6376 353.5386 H              1 RES1               0.0000
     26 H26        114.5511 257.7136 352.6603 H              1 RES1               0.0000
     27 H27        115.4038 260.7536 346.3601 H              1 RES1               0.0000
     28 H28        118.6903 258.1649 347.1834 H              1 RES1               0.0000
     29 H29        117.3771 259.4988 345.5802 H              1 RES1               0.0000
@<TRIPOS>BOND
    1    1    2 1     
    2    1    3 1     
    3    1    4 1     
    4    1    5 1     
    5    2    6 ar    
    6    2    7 ar    
    7    3    8 1     
    8    3    9 2     
    9    4   10 1     
   10    4   11 2     
   11    5   12 1     
   12    5   18 1     
   13    5   19 1     
   14    6   13 ar    
   15    6   20 1     
   16    7   14 ar    
   17    7   21 1     
   18    8   15 1     
   19    8   22 1     
   20   10   15 1     
   21   10   23 1     
   22   12   24 1     
   23   12   25 1     
   24   12   26 1     
   25   13   16 ar    
   26   13   27 1     
   27   14   16 ar    
   28   14   28 1     
   29   15   17 2     
   30   16   29 1     
@<TRIPOS>SUBSTRUCTURE
      1 RES1           1
@<TRIPOS>SET
DONOR_HYDROGENS      STATIC     ATOMS    <user>   **** ""
2 22 23
ATOM$RED        STATIC     ATOMS    COLORGROUP SYSTEM
2 22 23
@<TRIPOS>COMMENT
> <Gold.Version>
2022.3.0

> <Gold.Id.Protein>
unknown|5adg_clean|pdb

> <Gold.Protein.RotatedTorsions>
[ 1107 1100 1101 1102 ] final   24.44 input   86.23 | X-H torsion
[ 1140 1124 1125 1126 ] final -129.98 input   63.27 | X-H torsion
[ 1158 1154 1155 1156 ] final -146.16 input  128.69 | X-H torsion
[ 1176 1170 1171 1172 ] final    0.40 input   75.71 | X-H torsion
[ 1180 1175 1174 1171 ] final   28.36 input   60.03 | X-H torsion
[ 1202 1194 1195 1196 ] final   84.97 input   99.83 | X-H torsion
[ 1240 1232 1233 1234 ] final  -21.67 input  109.94 | X-H torsion
[ 13440 13433 13432 13430 ] final   15.89 input   60.02 | X-H torsion
[ 11619 11589 11588 11586 ] final  -19.62 input   59.96 | X-H torsion
[ 11922 11915 11916 11917 ] final -157.04 input  122.96 | X-H torsion
[ 13465 1067 1066 1065 ] final   27.08 input   -0.00 | X-H torsion
[ 13468 1103 1102 1101 ] final  152.22 input   -0.00 | X-H torsion
[ 13471 1127 1126 1125 ] final -114.37 input   -0.00 | X-H torsion
[ 13476 1157 1156 1155 ] final  -34.23 input    0.00 | X-H torsion
[ 13479 1173 1172 1171 ] final -109.08 input    0.00 | X-H torsion
[ 13484 1197 1196 1195 ] final  118.77 input   -0.00 | X-H torsion

> <Gold.Protein.ActiveResidues>
 VAL308  THR329  CYS331  ILE335  CYS336  MET337  GLY338  SER339  ILE340  MET341 
 PRO343  SER418  ARG419  ARG423  PHE663  TYR671  CYS677  PRO678  ALA679  ASP680 
 TRP681  VAL682  TRP683  ILE684  VAL685  VAL695  GLN698  GLU699  MET700  LEU701 
 ASN702  TYR703  H4B760 

> <Gold.Protein.RotatedAtoms>
  109.3809  260.5840  344.8851 H   0  0  0  0  0  0  0  0  0  0  0  0  # atno 1107 bound_to 1100
  110.0061  259.4704  342.4581 H   0  0  0  0  0  0  0  0  0  0  0  0  # atno 1140 bound_to 1124
  111.6811  258.2927  340.2653 H   0  0  0  0  0  0  0  0  0  0  0  0  # atno 1158 bound_to 1154
  110.6629  255.3089  339.8018 H   0  0  0  0  0  0  0  0  0  0  0  0  # atno 1176 bound_to 1170
  108.8724  253.1090  341.2653 H   0  0  0  0  0  0  0  0  0  0  0  0  # atno 1180 bound_to 1175
  109.5937  255.1027  338.5577 H   0  0  0  0  0  0  0  0  0  0  0  0  # atno 1202 bound_to 1194
  107.5959  254.0714  335.6421 H   0  0  0  0  0  0  0  0  0  0  0  0  # atno 1240 bound_to 1232
  102.9996  253.7748  346.4369 H   0  0  0  0  0  0  0  0  0  0  0  0  # atno 11619 bound_to 11589
  118.0428  251.6473  339.3121 H   0  0  0  0  0  0  0  0  0  0  0  0  # atno 11922 bound_to 11915
  110.0477  249.9243  336.4261 H   0  0  0  0  0  0  0  0  0  0  0  0  # atno 13440 bound_to 13433
  109.7179  263.7885  343.1498 LP  0  0  0  0  0  0  0  0  0  0  0  0  # atno 13465 bound_to 1067
  110.0740  262.2877  342.3618 LP  0  0  0  0  0  0  0  0  0  0  0  0  # atno 13466 bound_to 1067
  110.4655  261.9524  344.8576 LP  0  0  0  0  0  0  0  0  0  0  0  0  # atno 13467 bound_to 1100
  108.5638  258.2950  343.0012 LP  0  0  0  0  0  0  0  0  0  0  0  0  # atno 13468 bound_to 1103
  109.6181  258.3716  344.3733 LP  0  0  0  0  0  0  0  0  0  0  0  0  # atno 13469 bound_to 1103
  111.0018  259.9041  341.0873 LP  0  0  0  0  0  0  0  0  0  0  0  0  # atno 13470 bound_to 1124
  109.9883  255.9791  338.7666 LP  0  0  0  0  0  0  0  0  0  0  0  0  # atno 13471 bound_to 1127
  109.9239  257.5437  338.0264 LP  0  0  0  0  0  0  0  0  0  0  0  0  # atno 13472 bound_to 1127
  110.9476  256.9000  341.0318 LP  0  0  0  0  0  0  0  0  0  0  0  0  # atno 13475 bound_to 1154
  113.1733  254.9623  337.7504 LP  0  0  0  0  0  0  0  0  0  0  0  0  # atno 13476 bound_to 1157
  112.9181  253.4590  338.5721 LP  0  0  0  0  0  0  0  0  0  0  0  0  # atno 13477 bound_to 1157
  112.0426  254.6114  340.6094 LP  0  0  0  0  0  0  0  0  0  0  0  0  # atno 13478 bound_to 1170
  108.8576  251.6588  337.7680 LP  0  0  0  0  0  0  0  0  0  0  0  0  # atno 13479 bound_to 1173
  108.3886  251.5847  339.4337 LP  0  0  0  0  0  0  0  0  0  0  0  0  # atno 13480 bound_to 1173
  109.9352  253.2798  342.4851 LP  0  0  0  0  0  0  0  0  0  0  0  0  # atno 13481 bound_to 1175
  109.1823  251.8503  342.2483 LP  0  0  0  0  0  0  0  0  0  0  0  0  # atno 13482 bound_to 1175
  109.1994  253.4492  338.9568 LP  0  0  0  0  0  0  0  0  0  0  0  0  # atno 13483 bound_to 1194
  110.1404  254.0349  335.3706 LP  0  0  0  0  0  0  0  0  0  0  0  0  # atno 13484 bound_to 1197
  109.3416  255.5638  335.5269 LP  0  0  0  0  0  0  0  0  0  0  0  0  # atno 13485 bound_to 1197
  107.3962  252.4005  336.0922 LP  0  0  0  0  0  0  0  0  0  0  0  0  # atno 13504 bound_to 1232
  111.0557  250.0425  337.6980 LP  0  0  0  0  0  0  0  0  0  0  0  0  # atno 13509 bound_to 13433
  109.4984  250.5130  337.8402 LP  0  0  0  0  0  0  0  0  0  0  0  0  # atno 13510 bound_to 13433

> <Gold.Score>
     Fitness  S(hb_ext) S(vdw_ext)  S(hb_int)    S(int)      intcor
     29.22       0.00      21.81       0.00      -0.76      -0.76

> <Gold.Goldscore.Fitness>
29.2243

> <Gold.Goldscore.Internal.Vdw>
-0.6864

> <Gold.Goldscore.Internal.Torsion>
-0.8436

> <Gold.Goldscore.External.Vdw>
21.8104

> <Gold.Goldscore.Internal.HBond>
0.0000

> <Gold.Goldscore.External.HBond>
0.0000

> <Gold.Goldscore.Internal.Correction>
-0.7650

> <Gold.Goldscore.Internal.Vdw.Weighted>
-0.6864

> <Gold.Goldscore.Internal.Torsion.Weighted>
-0.8436

> <Gold.Goldscore.External.Vdw.Weighted>
29.9893

> <Gold.Goldscore.Internal.HBond.Weighted>
0.0000

> <Gold.Goldscore.External.HBond.Weighted>
0.0000

> <Gold.Goldscore.Internal.Correction.Weighted>
-0.7650

> <Gold.Rescore>
     Score     S(PLP)   S(hbond)     S(cho)   S(metal)  DE(clash)   DE(tors)     intcor
     29.33     -31.98       0.00       0.00       0.00       0.00       1.32       ----

> <Gold.PLP.Fitness>
29.3316

> <Gold.PLP.PLP>
-31.9758

> <Gold.PLP.part.hbond>
-0.3893

> <Gold.PLP.part.metal>
0.0000

> <Gold.PLP.part.buried>
-7.2506

> <Gold.PLP.part.nonpolar>
-24.8783

> <Gold.PLP.part.repulsive>
0.2827

> <Gold.PLP.ligand.clash>
0.0000

> <Gold.PLP.ligand.torsion>
1.3221

> <Gold.PLP.Chemscore.Hbond>
0.0000

> <Gold.PLP.Chemscore.CHOScore>
0.0000

> <Gold.PLP.Chemscore.Metal>
0.0000

> <Gold.Chemscore.Hbonds>
donor molecule, donor type, donor heavy atom, donor atom, acceptor molecule, acceptor atom, score
      P1  H 12548 12562       L1    11  0.43

> <Gold.PLP.Chemscore.Internal.Correction>
   9.000000E+99

