#       Name:                CT1002167954
#       Creating user name   hitesit
#       Creation time:       Sun Apr 16 02:22:48 2023


#       File generated by GOLD software.
#

@<TRIPOS>MOLECULE
CT1002167954|ligand_prepared|mol2|1|dock7
    29    30     1
SMALL
NO_CHARGES


@<TRIPOS>ATOM
      1 C1         -46.8878  29.5635 -19.1959 C.3            1 RES1               0.0000
      2 C2         -46.7892  29.3432 -20.7193 C.ar           1 RES1               0.0000
      3 C3         -46.9569  28.1755 -18.5659 C.2            1 RES1               0.0000
      4 C4         -45.6531  30.3657 -18.8001 C.2            1 RES1               0.0000
      5 C5         -48.1373  30.3636 -18.7600 C.3            1 RES1               0.0000
      6 C6         -46.8874  30.4175 -21.5985 C.ar           1 RES1               0.0000
      7 C7         -46.5978  28.0741 -21.2592 C.ar           1 RES1               0.0000
      8 N8         -45.8460  27.7188 -17.9200 N.am           1 RES1               0.0000
      9 O9         -47.9574  27.4764 -18.6683 O.2            1 RES1               0.0000
     10 N10        -44.7294  29.7630 -17.9870 N.am           1 RES1               0.0000
     11 O11        -45.4637  31.5083 -19.1986 O.2            1 RES1               0.0000
     12 C12        -48.2998  30.4732 -17.2521 C.3            1 RES1               0.0000
     13 C13        -46.7946  30.2304 -22.9677 C.ar           1 RES1               0.0000
     14 C14        -46.5055  27.8892 -22.6288 C.ar           1 RES1               0.0000
     15 C15        -44.7548  28.4653 -17.5539 C.2            1 RES1               0.0000
     16 C16        -46.6032  28.9664 -23.4837 C.ar           1 RES1               0.0000
     17 O17        -43.8591  27.9792 -16.8695 O.2            1 RES1               0.0000
     18 H18        -48.0750  31.3739 -19.1828 H              1 RES1               0.0000
     19 H19        -49.0294  29.8801 -19.1769 H              1 RES1               0.0000
     20 H20        -47.0405  31.4192 -21.2109 H              1 RES1               0.0000
     21 H21        -46.5192  27.2119 -20.6057 H              1 RES1               0.0000
     22 H22        -45.8244  26.7310 -17.6877 H              1 RES1               0.0000
     23 H23        -43.9507  30.3348 -17.6755 H              1 RES1               0.0000
     24 H24        -49.1914  31.0439 -17.0007 H              1 RES1               0.0000
     25 H25        -48.3902  29.4872 -16.8011 H              1 RES1               0.0000
     26 H26        -47.4414  30.9721 -16.8069 H              1 RES1               0.0000
     27 H27        -46.8735  31.0812 -23.6363 H              1 RES1               0.0000
     28 H28        -46.3555  26.8926 -23.0305 H              1 RES1               0.0000
     29 H29        -46.5302  28.8202 -24.5563 H              1 RES1               0.0000
@<TRIPOS>BOND
    1    1    2 1     
    2    1    3 1     
    3    1    4 1     
    4    1    5 1     
    5    2    6 ar    
    6    2    7 ar    
    7    3    8 1     
    8    3    9 2     
    9    4   10 1     
   10    4   11 2     
   11    5   12 1     
   12    5   18 1     
   13    5   19 1     
   14    6   13 ar    
   15    6   20 1     
   16    7   14 ar    
   17    7   21 1     
   18    8   15 1     
   19    8   22 1     
   20   10   15 1     
   21   10   23 1     
   22   12   24 1     
   23   12   25 1     
   24   12   26 1     
   25   13   16 ar    
   26   13   27 1     
   27   14   16 ar    
   28   14   28 1     
   29   15   17 2     
   30   16   29 1     
@<TRIPOS>SUBSTRUCTURE
      1 RES1           1
@<TRIPOS>SET
DONOR_HYDROGENS      STATIC     ATOMS    <user>   **** ""
2 22 23
ATOM$RED        STATIC     ATOMS    COLORGROUP SYSTEM
2 22 23
@<TRIPOS>COMMENT
> <Gold.Version>
2022.3.0

> <Gold.Id.Protein>
unknown|7ta6_clean|pdb

> <Gold.Protein.RotatedTorsions>
[ 11622 11535 11534 11532 ] final  128.91 input   60.01 | X-H torsion
[ 12183 12075 12074 12072 ] final   33.89 input   60.00 | X-H torsion
[ 12413 12376 12377 12378 ] final -168.57 input   12.64 | X-H torsion
[ 12469 12432 12433 12434 ] final -153.06 input   -4.29 | X-H torsion
[ 12567 12491 12492 12493 ] final   80.87 input   85.07 | X-H torsion
[ 17235 17166 17170 17167 ] final -168.25 input   60.00 | X-H torsion
[ 12727 12623 12624 12625 ] final  -32.61 input   40.46 | X-H torsion
[ 17240 17169 17168 17167 ] final  144.46 input   59.99 | X-H torsion
[ 6021 5950 5951 5952 ] final   88.47 input   61.17 | X-H torsion
[ 6190 6106 6107 6108 ] final -157.39 input   34.45 | X-H torsion
[ 17658 17540 17541 17542 ] final  -91.52 input  113.35 | X-H torsion
[ 20694 5953 5952 5951 ] final   65.26 input   -0.00 | X-H torsion
[ 20701 12379 12378 12377 ] final   17.75 input    0.00 | X-H torsion
[ 20704 12435 12434 12433 ] final  131.02 input    0.00 | X-H torsion
[ 20707 12494 12493 12492 ] final   -6.61 input    0.00 | X-H torsion
[ 20710 2578 2577 2576 ] final  -82.75 input    0.00 | X-H torsion
[ 20715 12231 12230 12229 ] final -158.17 input   -0.00 | X-H torsion

> <Gold.Protein.ActiveResidues>
 TRP28   LEU57   ILE58   TYR59   LEU94   TYR115  PRO117  TYR119  LEU120  GLY121 
 GLY122  VAL123  PHE124  LEU157  XCP1    LEU2    TRP4    ILE6   

> <Gold.Protein.RotatedAtoms>
  -50.7002   24.3595  -24.7549 H   0  0  0  0  0  0  0  0  0  0  0  0  # atno 6021 bound_to 5950
  -52.3511   27.0473  -25.2297 H   0  0  0  0  0  0  0  0  0  0  0  0  # atno 6190 bound_to 6106
  -44.4397   19.8651  -20.2826 H   0  0  0  0  0  0  0  0  0  0  0  0  # atno 11622 bound_to 11535
  -49.0178   32.0871  -25.1923 H   0  0  0  0  0  0  0  0  0  0  0  0  # atno 12183 bound_to 12075
  -52.0848   30.4670  -21.3130 H   0  0  0  0  0  0  0  0  0  0  0  0  # atno 12413 bound_to 12376
  -49.4834   27.6862  -21.3537 H   0  0  0  0  0  0  0  0  0  0  0  0  # atno 12469 bound_to 12432
  -47.4893   23.6971  -20.9573 H   0  0  0  0  0  0  0  0  0  0  0  0  # atno 12567 bound_to 12491
  -48.7334   20.2432  -23.1528 H   0  0  0  0  0  0  0  0  0  0  0  0  # atno 12727 bound_to 12623
  -37.8577   26.0705  -20.3681 H   0  0  0  0  0  0  0  0  0  0  0  0  # atno 17235 bound_to 17166
  -37.1141   26.9914  -21.5282 H   0  0  0  0  0  0  0  0  0  0  0  0  # atno 17236 bound_to 17166
  -37.5742   26.5552  -26.0748 H   0  0  0  0  0  0  0  0  0  0  0  0  # atno 17240 bound_to 17169
  -37.5607   22.4683  -26.0683 H   0  0  0  0  0  0  0  0  0  0  0  0  # atno 17658 bound_to 17540
  -50.7618   26.8554  -23.8653 LP  0  0  0  0  0  0  0  0  0  0  0  0  # atno 20694 bound_to 5953
  -52.2636   27.2515  -23.0986 LP  0  0  0  0  0  0  0  0  0  0  0  0  # atno 20695 bound_to 5953
  -46.0279   20.1120  -20.0295 LP  0  0  0  0  0  0  0  0  0  0  0  0  # atno 20696 bound_to 11535
  -45.4622   19.9072  -21.5476 LP  0  0  0  0  0  0  0  0  0  0  0  0  # atno 20697 bound_to 11535
  -49.6948   30.9213  -24.2803 LP  0  0  0  0  0  0  0  0  0  0  0  0  # atno 20698 bound_to 12075
  -48.3057   31.6334  -23.8008 LP  0  0  0  0  0  0  0  0  0  0  0  0  # atno 20699 bound_to 12075
  -51.5031   29.6153  -19.9018 LP  0  0  0  0  0  0  0  0  0  0  0  0  # atno 20700 bound_to 12376
  -50.1495   28.6486  -19.2278 LP  0  0  0  0  0  0  0  0  0  0  0  0  # atno 20701 bound_to 12379
  -49.0782   27.2930  -19.3485 LP  0  0  0  0  0  0  0  0  0  0  0  0  # atno 20702 bound_to 12379
  -50.3576   26.6363  -22.4416 LP  0  0  0  0  0  0  0  0  0  0  0  0  # atno 20703 bound_to 12432
  -49.3777   24.2086  -23.9439 LP  0  0  0  0  0  0  0  0  0  0  0  0  # atno 20704 bound_to 12435
  -50.7412   24.5160  -22.9211 LP  0  0  0  0  0  0  0  0  0  0  0  0  # atno 20705 bound_to 12435
  -48.7444   24.2403  -22.0510 LP  0  0  0  0  0  0  0  0  0  0  0  0  # atno 20706 bound_to 12491
  -47.7890   21.5021  -20.1299 LP  0  0  0  0  0  0  0  0  0  0  0  0  # atno 20707 bound_to 12494
  -49.0820   20.3498  -20.1442 LP  0  0  0  0  0  0  0  0  0  0  0  0  # atno 20708 bound_to 12494
  -38.3513   27.6158  -20.6421 LP  0  0  0  0  0  0  0  0  0  0  0  0  # atno 20709 bound_to 17166
  -41.2990   32.8547  -24.5226 LP  0  0  0  0  0  0  0  0  0  0  0  0  # atno 20710 bound_to 2578
  -41.0905   31.1423  -24.3668 LP  0  0  0  0  0  0  0  0  0  0  0  0  # atno 20711 bound_to 2578
  -49.7265   21.4733  -22.4030 LP  0  0  0  0  0  0  0  0  0  0  0  0  # atno 20712 bound_to 12623
  -39.1464   26.6343  -25.6619 LP  0  0  0  0  0  0  0  0  0  0  0  0  # atno 20713 bound_to 17169
  -38.2756   25.2961  -25.3189 LP  0  0  0  0  0  0  0  0  0  0  0  0  # atno 20714 bound_to 17169
  -52.0632   30.2553  -23.2785 LP  0  0  0  0  0  0  0  0  0  0  0  0  # atno 20715 bound_to 12231
  -52.7382   31.8084  -22.9147 LP  0  0  0  0  0  0  0  0  0  0  0  0  # atno 20716 bound_to 12231
  -50.4333   24.9881  -26.3675 LP  0  0  0  0  0  0  0  0  0  0  0  0  # atno 20717 bound_to 5950
  -53.6167   27.4361  -26.3703 LP  0  0  0  0  0  0  0  0  0  0  0  0  # atno 20718 bound_to 6106

> <Gold.Score>
     Fitness  S(hb_ext) S(vdw_ext)  S(hb_int)    S(int)      intcor
     22.05       0.00      17.29       0.00      -1.72      -0.76

> <Gold.Goldscore.Fitness>
22.0541

> <Gold.Goldscore.Internal.Vdw>
-2.0628

> <Gold.Goldscore.Internal.Torsion>
-0.4132

> <Gold.Goldscore.External.Vdw>
17.2884

> <Gold.Goldscore.Internal.HBond>
0.0000

> <Gold.Goldscore.External.HBond>
0.0000

> <Gold.Goldscore.Internal.Correction>
-0.7585

> <Gold.Goldscore.Internal.Vdw.Weighted>
-2.0628

> <Gold.Goldscore.Internal.Torsion.Weighted>
-0.4132

> <Gold.Goldscore.External.Vdw.Weighted>
23.7715

> <Gold.Goldscore.Internal.HBond.Weighted>
0.0000

> <Gold.Goldscore.External.HBond.Weighted>
0.0000

> <Gold.Goldscore.Internal.Correction.Weighted>
-0.7585

> <Gold.Rescore>
     Score     S(PLP)   S(hbond)     S(cho)   S(metal)  DE(clash)   DE(tors)     intcor
     25.42     -26.90       0.00       0.00       0.00       1.37       0.05       ----

> <Gold.PLP.Fitness>
25.4217

> <Gold.PLP.PLP>
-26.9023

> <Gold.PLP.part.hbond>
0.0000

> <Gold.PLP.part.metal>
0.0000

> <Gold.PLP.part.buried>
-2.3063

> <Gold.PLP.part.nonpolar>
-26.0731

> <Gold.PLP.part.repulsive>
0.0755

> <Gold.PLP.ligand.clash>
1.3744

> <Gold.PLP.ligand.torsion>
0.0531

> <Gold.PLP.Chemscore.Hbond>
0.0000

> <Gold.PLP.Chemscore.CHOScore>
0.0000

> <Gold.PLP.Chemscore.Metal>
0.0000

> <Gold.PLP.Chemscore.Internal.Correction>
   9.000000E+99

