#       Name:                CT1002167954
#       Creating user name   hitesit
#       Creation time:       Sun Apr 16 20:26:38 2023


#       File generated by GOLD software.
#

@<TRIPOS>MOLECULE
CT1002167954|ligand_prepared|mol2|1|dock2
    29    30     1
SMALL
NO_CHARGES


@<TRIPOS>ATOM
      1 C1         132.2610 144.7080 126.5814 C.3            1 RES1               0.0000
      2 C2         132.8150 143.9568 127.8092 C.ar           1 RES1               0.0000
      3 C3         132.7430 146.1502 126.7080 C.2            1 RES1               0.0000
      4 C4         132.7989 143.9776 125.3559 C.2            1 RES1               0.0000
      5 C5         130.7169 144.7120 126.4957 C.3            1 RES1               0.0000
      6 C6         132.0578 143.8428 128.9712 C.ar           1 RES1               0.0000
      7 C7         134.0782 143.3714 127.7940 C.ar           1 RES1               0.0000
      8 N8         133.7435 146.5574 125.8755 N.am           1 RES1               0.0000
      9 O9         132.2797 146.9070 127.5523 O.2            1 RES1               0.0000
     10 N10        133.6759 144.6469 124.5431 N.am           1 RES1               0.0000
     11 O11        132.4841 142.8228 125.0959 O.2            1 RES1               0.0000
     12 C12        130.1787 145.1738 125.1506 C.3            1 RES1               0.0000
     13 C13        132.5445 143.1656 130.0770 C.ar           1 RES1               0.0000
     14 C14        134.5631 142.6948 128.9010 C.ar           1 RES1               0.0000
     15 C15        134.1964 145.8929 124.7641 C.2            1 RES1               0.0000
     16 C16        133.7971 142.5908 130.0426 C.ar           1 RES1               0.0000
     17 O17        135.0227 146.4064 124.0154 O.2            1 RES1               0.0000
     18 H18        130.3497 143.6974 126.6934 H              1 RES1               0.0000
     19 H19        130.3214 145.3703 127.2790 H              1 RES1               0.0000
     20 H20        131.0708 144.2908 129.0178 H              1 RES1               0.0000
     21 H21        134.6989 143.4415 126.9071 H              1 RES1               0.0000
     22 H22        134.1970 147.4373 126.1000 H              1 RES1               0.0000
     23 H23        133.9678 144.1724 123.6946 H              1 RES1               0.0000
     24 H24        129.0908 145.1577 125.1443 H              1 RES1               0.0000
     25 H25        130.5038 146.1891 124.9331 H              1 RES1               0.0000
     26 H26        130.5319 144.5261 124.3509 H              1 RES1               0.0000
     27 H27        131.9382 143.0877 130.9735 H              1 RES1               0.0000
     28 H28        135.5497 142.2445 128.8696 H              1 RES1               0.0000
     29 H29        134.1779 142.0599 130.9088 H              1 RES1               0.0000
@<TRIPOS>BOND
    1    1    2 1     
    2    1    3 1     
    3    1    4 1     
    4    1    5 1     
    5    2    6 ar    
    6    2    7 ar    
    7    3    8 1     
    8    3    9 2     
    9    4   10 1     
   10    4   11 2     
   11    5   12 1     
   12    5   18 1     
   13    5   19 1     
   14    6   13 ar    
   15    6   20 1     
   16    7   14 ar    
   17    7   21 1     
   18    8   15 1     
   19    8   22 1     
   20   10   15 1     
   21   10   23 1     
   22   12   24 1     
   23   12   25 1     
   24   12   26 1     
   25   13   16 ar    
   26   13   27 1     
   27   14   16 ar    
   28   14   28 1     
   29   15   17 2     
   30   16   29 1     
@<TRIPOS>SUBSTRUCTURE
      1 RES1           1
@<TRIPOS>SET
DONOR_HYDROGENS      STATIC     ATOMS    <user>   **** ""
2 22 23
ATOM$RED        STATIC     ATOMS    COLORGROUP SYSTEM
2 22 23
@<TRIPOS>COMMENT
> <Gold.Version>
2022.3.0

> <Gold.Id.Protein>
unknown|7rmi_cavity_clean|pdb

> <Gold.Protein.RotatedTorsions>
[ 7275 7267 7268 7269 ] final -125.92 input   86.30 | X-H torsion
[ 7259 7254 7253 7250 ] final   20.32 input   59.97 | X-H torsion
[ 3787 3780 3778 3775 ] final    3.79 input   60.01 | X-H torsion
[ 7241 7225 7224 7223 ] final -137.37 input   60.01 | X-H torsion
[ 7244 7226 7227 7228 ] final   92.71 input   59.90 | X-H torsion
[ 7633 7625 7626 7627 ] final  -65.61 input   88.29 | X-H torsion
[ 8107 8100 8094 8093 ] final -120.01 input   59.99 | X-H torsion
[ 14346 7229 7228 7227 ] final  137.15 input    0.00 | X-H torsion
[ 14355 7628 7627 7626 ] final   49.22 input    0.00 | X-H torsion

> <Gold.Protein.ActiveResidues>
 THR47   ARG48   ARG49   LYS280  SER281  LEU284  LEU286  CYS294  ASN295  VAL296 
 GLY306  VAL307  LEU308  VAL320  GLY324  MET325  ALA326  VAL327  TRP339  ASN340 
 ASP48   PRO49   LEU50  

> <Gold.Protein.RotatedAtoms>
  128.9373  152.6548  150.1979 H   0  0  0  0  0  0  0  0  0  0  0  0  # atno 3787 bound_to 3780
  133.5569  165.0363  171.9762 H   0  0  0  0  0  0  0  0  0  0  0  0  # atno 7241 bound_to 7225
  134.3162  164.0561  170.8764 H   0  0  0  0  0  0  0  0  0  0  0  0  # atno 7242 bound_to 7225
  134.5325  165.6983  170.8117 H   0  0  0  0  0  0  0  0  0  0  0  0  # atno 7243 bound_to 7225
  123.8505  133.3347   86.7723 H   0  0  0  0  0  0  0  0  0  0  0  0  # atno 7244 bound_to 7226
  126.1894  161.2880  168.3151 H   0  0  0  0  0  0  0  0  0  0  0  0  # atno 7259 bound_to 7254
  123.2641  158.1070  167.8074 H   0  0  0  0  0  0  0  0  0  0  0  0  # atno 7275 bound_to 7267
  122.3642  123.8610  130.2409 H   0  0  0  0  0  0  0  0  0  0  0  0  # atno 7633 bound_to 7625
  126.2295  159.9660  155.6453 H   0  0  0  0  0  0  0  0  0  0  0  0  # atno 8107 bound_to 8100
  126.1715  162.4475  167.1729 LP  0  0  0  0  0  0  0  0  0  0  0  0  # atno 14309 bound_to 7254
  124.8679  162.2199  168.1297 LP  0  0  0  0  0  0  0  0  0  0  0  0  # atno 14310 bound_to 7254
  130.0758  151.5165  149.9614 LP  0  0  0  0  0  0  0  0  0  0  0  0  # atno 14331 bound_to 3780
  128.9365  151.7851  148.8227 LP  0  0  0  0  0  0  0  0  0  0  0  0  # atno 14332 bound_to 3780
  123.9837  135.0774   86.6588 LP  0  0  0  0  0  0  0  0  0  0  0  0  # atno 14345 bound_to 7226
  122.7537  135.4373   90.1528 LP  0  0  0  0  0  0  0  0  0  0  0  0  # atno 14346 bound_to 7229
  123.6754  134.2488   89.2937 LP  0  0  0  0  0  0  0  0  0  0  0  0  # atno 14347 bound_to 7229
  123.6293  124.7154  129.3931 LP  0  0  0  0  0  0  0  0  0  0  0  0  # atno 14354 bound_to 7625
  124.5324  122.5464  133.5608 LP  0  0  0  0  0  0  0  0  0  0  0  0  # atno 14355 bound_to 7628
  123.1653  123.4840  134.0628 LP  0  0  0  0  0  0  0  0  0  0  0  0  # atno 14356 bound_to 7628
  127.4186  160.6879  156.3760 LP  0  0  0  0  0  0  0  0  0  0  0  0  # atno 14361 bound_to 8100

> <Gold.Score>
     Fitness  S(hb_ext) S(vdw_ext)  S(hb_int)    S(int)      intcor
     33.66       0.00      24.89       0.00      -0.56      -0.76

> <Gold.Goldscore.Fitness>
33.6649

> <Gold.Goldscore.Internal.Vdw>
-0.7106

> <Gold.Goldscore.Internal.Torsion>
-0.6149

> <Gold.Goldscore.External.Vdw>
24.8913

> <Gold.Goldscore.Internal.HBond>
0.0000

> <Gold.Goldscore.External.HBond>
0.0000

> <Gold.Goldscore.Internal.Correction>
-0.7650

> <Gold.Goldscore.Internal.Vdw.Weighted>
-0.7106

> <Gold.Goldscore.Internal.Torsion.Weighted>
-0.6149

> <Gold.Goldscore.External.Vdw.Weighted>
34.2255

> <Gold.Goldscore.Internal.HBond.Weighted>
0.0000

> <Gold.Goldscore.External.HBond.Weighted>
0.0000

> <Gold.Goldscore.Internal.Correction.Weighted>
-0.7650

> <Gold.Rescore>
     Score     S(PLP)   S(hbond)     S(cho)   S(metal)  DE(clash)   DE(tors)     intcor
     30.02     -30.28       0.00       0.00       0.00       0.00       0.13       ----

> <Gold.PLP.Fitness>
30.0170

> <Gold.PLP.PLP>
-30.2828

> <Gold.PLP.part.hbond>
-1.0000

> <Gold.PLP.part.metal>
0.0000

> <Gold.PLP.part.buried>
-2.6846

> <Gold.PLP.part.nonpolar>
-27.7500

> <Gold.PLP.part.repulsive>
0.8974

> <Gold.PLP.ligand.clash>
0.0000

> <Gold.PLP.ligand.torsion>
0.1329

> <Gold.PLP.Chemscore.Hbond>
0.0000

> <Gold.PLP.Chemscore.CHOScore>
0.0000

> <Gold.PLP.Chemscore.Metal>
0.0000

> <Gold.PLP.Chemscore.Internal.Correction>
   9.000000E+99

