#       Name:                CT1002167954
#       Creating user name   hitesit
#       Creation time:       Sun Apr 16 20:29:56 2023


#       File generated by GOLD software.
#

@<TRIPOS>MOLECULE
CT1002167954|ligand_prepared|mol2|1|dock7
    29    30     1
SMALL
NO_CHARGES


@<TRIPOS>ATOM
      1 C1         136.9817 145.4431 128.4840 C.3            1 RES1               0.0000
      2 C2         135.9514 144.3523 128.1271 C.ar           1 RES1               0.0000
      3 C3         138.3576 144.8100 128.2982 C.2            1 RES1               0.0000
      4 C4         136.7043 146.6144 127.5482 C.2            1 RES1               0.0000
      5 C5         136.8696 145.9566 129.9384 C.3            1 RES1               0.0000
      6 C6         135.4920 144.2115 126.8210 C.ar           1 RES1               0.0000
      7 C7         135.4539 143.4792 129.0909 C.ar           1 RES1               0.0000
      8 N8         139.0853 145.1884 127.2087 N.am           1 RES1               0.0000
      9 O9         138.7810 143.9624 129.0744 O.2            1 RES1               0.0000
     10 N10        137.6638 146.9403 126.6256 N.am           1 RES1               0.0000
     11 O11        135.6566 147.2475 127.5903 O.2            1 RES1               0.0000
     12 C12        137.7282 147.1784 130.2251 C.3            1 RES1               0.0000
     13 C13        134.5710 143.2316 126.4897 C.ar           1 RES1               0.0000
     14 C14        134.5327 142.5000 128.7575 C.ar           1 RES1               0.0000
     15 C15        138.8286 146.2610 126.3931 C.2            1 RES1               0.0000
     16 C16        134.0911 142.3750 127.4575 C.ar           1 RES1               0.0000
     17 O17        139.6162 146.5832 125.5082 O.2            1 RES1               0.0000
     18 H18        135.8213 146.2053 130.1452 H              1 RES1               0.0000
     19 H19        137.1639 145.1502 130.6213 H              1 RES1               0.0000
     20 H20        135.8565 144.8780 126.0465 H              1 RES1               0.0000
     21 H21        135.7864 143.5597 130.1203 H              1 RES1               0.0000
     22 H22        139.8952 144.6214 126.9791 H              1 RES1               0.0000
     23 H23        137.4939 147.7658 126.0599 H              1 RES1               0.0000
     24 H24        137.6123 147.4973 131.2588 H              1 RES1               0.0000
     25 H25        138.7801 146.9594 130.0539 H              1 RES1               0.0000
     26 H26        137.4455 148.0083 129.5807 H              1 RES1               0.0000
     27 H27        134.2256 143.1382 125.4654 H              1 RES1               0.0000
     28 H28        134.1573 141.8285 129.5226 H              1 RES1               0.0000
     29 H29        133.3699 141.6072 127.1977 H              1 RES1               0.0000
@<TRIPOS>BOND
    1    1    2 1     
    2    1    3 1     
    3    1    4 1     
    4    1    5 1     
    5    2    6 ar    
    6    2    7 ar    
    7    3    8 1     
    8    3    9 2     
    9    4   10 1     
   10    4   11 2     
   11    5   12 1     
   12    5   18 1     
   13    5   19 1     
   14    6   13 ar    
   15    6   20 1     
   16    7   14 ar    
   17    7   21 1     
   18    8   15 1     
   19    8   22 1     
   20   10   15 1     
   21   10   23 1     
   22   12   24 1     
   23   12   25 1     
   24   12   26 1     
   25   13   16 ar    
   26   13   27 1     
   27   14   16 ar    
   28   14   28 1     
   29   15   17 2     
   30   16   29 1     
@<TRIPOS>SUBSTRUCTURE
      1 RES1           1
@<TRIPOS>SET
DONOR_HYDROGENS      STATIC     ATOMS    <user>   **** ""
2 22 23
ATOM$RED        STATIC     ATOMS    COLORGROUP SYSTEM
2 22 23
@<TRIPOS>COMMENT
> <Gold.Version>
2022.3.0

> <Gold.Id.Protein>
unknown|7rmi_cavity_clean|pdb

> <Gold.Protein.RotatedTorsions>
[ 7275 7267 7268 7269 ] final   63.01 input   86.30 | X-H torsion
[ 7259 7254 7253 7250 ] final  -47.79 input   59.97 | X-H torsion
[ 3787 3780 3778 3775 ] final  104.68 input   60.01 | X-H torsion
[ 7241 7225 7224 7223 ] final  -52.55 input   60.01 | X-H torsion
[ 7244 7226 7227 7228 ] final   12.28 input   59.90 | X-H torsion
[ 7633 7625 7626 7627 ] final   24.27 input   88.29 | X-H torsion
[ 8107 8100 8094 8093 ] final -120.01 input   59.99 | X-H torsion
[ 14346 7229 7228 7227 ] final   88.32 input    0.00 | X-H torsion
[ 14355 7628 7627 7626 ] final -166.79 input    0.00 | X-H torsion

> <Gold.Protein.ActiveResidues>
 THR47   ARG48   ARG49   LYS280  SER281  LEU284  LEU286  CYS294  ASN295  VAL296 
 GLY306  VAL307  LEU308  VAL320  GLY324  MET325  ALA326  VAL327  TRP339  ASN340 
 ASP48   PRO49   LEU50  

> <Gold.Protein.RotatedAtoms>
  128.7473  152.0138  148.9184 H   0  0  0  0  0  0  0  0  0  0  0  0  # atno 3787 bound_to 3780
  133.9584  163.9959  171.3270 H   0  0  0  0  0  0  0  0  0  0  0  0  # atno 7241 bound_to 7225
  134.7125  165.2321  170.5206 H   0  0  0  0  0  0  0  0  0  0  0  0  # atno 7242 bound_to 7225
  133.7343  165.5629  171.8174 H   0  0  0  0  0  0  0  0  0  0  0  0  # atno 7243 bound_to 7225
  124.1085  134.1148   87.5792 H   0  0  0  0  0  0  0  0  0  0  0  0  # atno 7244 bound_to 7226
  126.6042  161.8462  167.5296 H   0  0  0  0  0  0  0  0  0  0  0  0  # atno 7259 bound_to 7254
  124.9848  158.3865  167.4774 H   0  0  0  0  0  0  0  0  0  0  0  0  # atno 7275 bound_to 7267
  122.8767  124.9921  130.3337 H   0  0  0  0  0  0  0  0  0  0  0  0  # atno 7633 bound_to 7625
  126.2295  159.9660  155.6453 H   0  0  0  0  0  0  0  0  0  0  0  0  # atno 8107 bound_to 8100
  125.1940  162.6588  167.5120 LP  0  0  0  0  0  0  0  0  0  0  0  0  # atno 14309 bound_to 7254
  125.4278  161.4468  168.5811 LP  0  0  0  0  0  0  0  0  0  0  0  0  # atno 14310 bound_to 7254
  129.1690  152.5696  150.3884 LP  0  0  0  0  0  0  0  0  0  0  0  0  # atno 14331 bound_to 3780
  130.0345  151.3775  149.6839 LP  0  0  0  0  0  0  0  0  0  0  0  0  # atno 14332 bound_to 3780
  123.7350  134.3255   85.8811 LP  0  0  0  0  0  0  0  0  0  0  0  0  # atno 14345 bound_to 7226
  123.1210  135.6944   89.5946 LP  0  0  0  0  0  0  0  0  0  0  0  0  # atno 14346 bound_to 7229
  123.3080  133.9917   89.8518 LP  0  0  0  0  0  0  0  0  0  0  0  0  # atno 14347 bound_to 7229
  123.1265  123.6056  129.3020 LP  0  0  0  0  0  0  0  0  0  0  0  0  # atno 14354 bound_to 7625
  123.5981  123.6758  134.3126 LP  0  0  0  0  0  0  0  0  0  0  0  0  # atno 14355 bound_to 7628
  124.0995  122.3546  133.3111 LP  0  0  0  0  0  0  0  0  0  0  0  0  # atno 14356 bound_to 7628
  127.4186  160.6879  156.3760 LP  0  0  0  0  0  0  0  0  0  0  0  0  # atno 14361 bound_to 8100

> <Gold.Score>
     Fitness  S(hb_ext) S(vdw_ext)  S(hb_int)    S(int)      intcor
     25.38       0.00      18.82       0.00      -0.50      -0.76

> <Gold.Goldscore.Fitness>
25.3804

> <Gold.Goldscore.Internal.Vdw>
-0.7566

> <Gold.Goldscore.Internal.Torsion>
-0.5002

> <Gold.Goldscore.External.Vdw>
18.8208

> <Gold.Goldscore.Internal.HBond>
0.0000

> <Gold.Goldscore.External.HBond>
0.0000

> <Gold.Goldscore.Internal.Correction>
-0.7585

> <Gold.Goldscore.Internal.Vdw.Weighted>
-0.7566

> <Gold.Goldscore.Internal.Torsion.Weighted>
-0.5002

> <Gold.Goldscore.External.Vdw.Weighted>
25.8786

> <Gold.Goldscore.Internal.HBond.Weighted>
0.0000

> <Gold.Goldscore.External.HBond.Weighted>
0.0000

> <Gold.Goldscore.Internal.Correction.Weighted>
-0.7585

> <Gold.Rescore>
     Score     S(PLP)   S(hbond)     S(cho)   S(metal)  DE(clash)   DE(tors)     intcor
     26.16     -28.41       0.00       0.00       0.00       0.00       1.13       ----

> <Gold.PLP.Fitness>
26.1581

> <Gold.PLP.PLP>
-28.4088

> <Gold.PLP.part.hbond>
0.0000

> <Gold.PLP.part.metal>
0.0000

> <Gold.PLP.part.buried>
-3.1217

> <Gold.PLP.part.nonpolar>
-26.0852

> <Gold.PLP.part.repulsive>
0.1896

> <Gold.PLP.ligand.clash>
0.0000

> <Gold.PLP.ligand.torsion>
1.1254

> <Gold.PLP.Chemscore.Hbond>
0.0000

> <Gold.PLP.Chemscore.CHOScore>
0.0000

> <Gold.PLP.Chemscore.Metal>
0.0000

> <Gold.PLP.Chemscore.Internal.Correction>
   9.000000E+99

