#       Name:                CT1002167954
#       Creating user name   hitesit
#       Creation time:       Sun Apr 16 20:29:16 2023


#       File generated by GOLD software.
#

@<TRIPOS>MOLECULE
CT1002167954|ligand_prepared|mol2|1|dock6
    29    30     1
SMALL
NO_CHARGES


@<TRIPOS>ATOM
      1 C1         119.2694 153.0349 154.2462 C.3            1 RES1               0.0000
      2 C2         120.7883 152.9908 154.5107 C.ar           1 RES1               0.0000
      3 C3         119.0965 153.5804 152.8317 C.2            1 RES1               0.0000
      4 C4         118.7629 151.6085 154.4292 C.2            1 RES1               0.0000
      5 C5         118.4913 153.9471 155.2229 C.3            1 RES1               0.0000
      6 C6         121.2922 153.2211 155.7873 C.ar           1 RES1               0.0000
      7 C7         121.6960 152.7191 153.4906 C.ar           1 RES1               0.0000
      8 N8         118.7315 152.7007 151.8555 N.am           1 RES1               0.0000
      9 O9         119.3155 154.7566 152.5692 O.2            1 RES1               0.0000
     10 N10        118.2673 150.9572 153.3301 N.am           1 RES1               0.0000
     11 O11        118.8040 151.0368 155.5116 O.2            1 RES1               0.0000
     12 C12        117.0747 154.2633 154.7699 C.3            1 RES1               0.0000
     13 C13        122.6541 153.1782 156.0359 C.ar           1 RES1               0.0000
     14 C14        123.0576 152.6769 153.7412 C.ar           1 RES1               0.0000
     15 C15        118.2570 151.4278 152.0453 C.2            1 RES1               0.0000
     16 C16        123.5376 152.9058 155.0132 C.ar           1 RES1               0.0000
     17 O17        117.8444 150.7612 151.1005 O.2            1 RES1               0.0000
     18 H18        118.4475 153.4580 156.2039 H              1 RES1               0.0000
     19 H19        119.0423 154.8883 155.3419 H              1 RES1               0.0000
     20 H20        120.6123 153.4395 156.6041 H              1 RES1               0.0000
     21 H21        121.3412 152.5369 152.4818 H              1 RES1               0.0000
     22 H22        118.8197 153.0188 150.8956 H              1 RES1               0.0000
     23 H23        117.8690 150.0364 153.4840 H              1 RES1               0.0000
     24 H24        116.5736 154.9061 155.4906 H              1 RES1               0.0000
     25 H25        117.0818 154.7731 153.8087 H              1 RES1               0.0000
     26 H26        116.4905 153.3513 154.6655 H              1 RES1               0.0000
     27 H27        123.0268 153.3604 157.0384 H              1 RES1               0.0000
     28 H28        123.7494 152.4627 152.9332 H              1 RES1               0.0000
     29 H29        124.6044 152.8719 155.2083 H              1 RES1               0.0000
@<TRIPOS>BOND
    1    1    2 1     
    2    1    3 1     
    3    1    4 1     
    4    1    5 1     
    5    2    6 ar    
    6    2    7 ar    
    7    3    8 1     
    8    3    9 2     
    9    4   10 1     
   10    4   11 2     
   11    5   12 1     
   12    5   18 1     
   13    5   19 1     
   14    6   13 ar    
   15    6   20 1     
   16    7   14 ar    
   17    7   21 1     
   18    8   15 1     
   19    8   22 1     
   20   10   15 1     
   21   10   23 1     
   22   12   24 1     
   23   12   25 1     
   24   12   26 1     
   25   13   16 ar    
   26   13   27 1     
   27   14   16 ar    
   28   14   28 1     
   29   15   17 2     
   30   16   29 1     
@<TRIPOS>SUBSTRUCTURE
      1 RES1           1
@<TRIPOS>SET
DONOR_HYDROGENS      STATIC     ATOMS    <user>   **** ""
2 22 23
ATOM$RED        STATIC     ATOMS    COLORGROUP SYSTEM
2 22 23
@<TRIPOS>COMMENT
> <Gold.Version>
2022.3.0

> <Gold.Id.Protein>
unknown|7rmi_cavity_clean|pdb

> <Gold.Protein.RotatedTorsions>
[ 7275 7267 7268 7269 ] final -144.92 input   86.30 | X-H torsion
[ 7259 7254 7253 7250 ] final  132.81 input   59.97 | X-H torsion
[ 3787 3780 3778 3775 ] final  -46.95 input   60.01 | X-H torsion
[ 7241 7225 7224 7223 ] final  -37.59 input   60.01 | X-H torsion
[ 7244 7226 7227 7228 ] final  -64.37 input   59.90 | X-H torsion
[ 7633 7625 7626 7627 ] final    8.28 input   88.29 | X-H torsion
[ 8107 8100 8094 8093 ] final   59.99 input   59.99 | X-H torsion
[ 14346 7229 7228 7227 ] final  127.23 input    0.00 | X-H torsion
[ 14355 7628 7627 7626 ] final  173.52 input    0.00 | X-H torsion

> <Gold.Protein.ActiveResidues>
 THR47   ARG48   ARG49   LYS280  SER281  LEU284  LEU286  CYS294  ASN295  VAL296 
 GLY306  VAL307  LEU308  VAL320  GLY324  MET325  ALA326  VAL327  TRP339  ASN340 
 ASP48   PRO49   LEU50  

> <Gold.Protein.RotatedAtoms>
  129.5825  152.2909  150.5062 H   0  0  0  0  0  0  0  0  0  0  0  0  # atno 3787 bound_to 3780
  134.1100  163.9782  171.1303 H   0  0  0  0  0  0  0  0  0  0  0  0  # atno 7241 bound_to 7225
  134.6595  165.4554  170.6175 H   0  0  0  0  0  0  0  0  0  0  0  0  # atno 7242 bound_to 7225
  133.6355  165.3572  171.9173 H   0  0  0  0  0  0  0  0  0  0  0  0  # atno 7243 bound_to 7225
  124.0392  135.0570   87.0041 H   0  0  0  0  0  0  0  0  0  0  0  0  # atno 7244 bound_to 7226
  124.8835  162.1307  168.2133 H   0  0  0  0  0  0  0  0  0  0  0  0  # atno 7259 bound_to 7254
  123.2634  158.2992  167.5854 H   0  0  0  0  0  0  0  0  0  0  0  0  # atno 7275 bound_to 7267
  122.7058  124.8458  130.4312 H   0  0  0  0  0  0  0  0  0  0  0  0  # atno 7633 bound_to 7625
  127.5370  161.3050  155.7080 H   0  0  0  0  0  0  0  0  0  0  0  0  # atno 8107 bound_to 8100
  126.2858  161.3050  168.2402 LP  0  0  0  0  0  0  0  0  0  0  0  0  # atno 14309 bound_to 7254
  126.0678  162.5143  167.1648 LP  0  0  0  0  0  0  0  0  0  0  0  0  # atno 14310 bound_to 7254
  129.7981  151.2990  149.2345 LP  0  0  0  0  0  0  0  0  0  0  0  0  # atno 14331 bound_to 3780
  128.5645  152.3690  149.2392 LP  0  0  0  0  0  0  0  0  0  0  0  0  # atno 14332 bound_to 3780
  123.8018  133.4176   86.4353 LP  0  0  0  0  0  0  0  0  0  0  0  0  # atno 14345 bound_to 7226
  122.8087  135.5337   90.0522 LP  0  0  0  0  0  0  0  0  0  0  0  0  # atno 14346 bound_to 7229
  123.6204  134.1524   89.3942 LP  0  0  0  0  0  0  0  0  0  0  0  0  # atno 14347 bound_to 7229
  123.2942  123.7491  129.2064 LP  0  0  0  0  0  0  0  0  0  0  0  0  # atno 14354 bound_to 7625
  123.8883  123.6748  134.3716 LP  0  0  0  0  0  0  0  0  0  0  0  0  # atno 14355 bound_to 7628
  123.8093  122.3556  133.2520 LP  0  0  0  0  0  0  0  0  0  0  0  0  # atno 14356 bound_to 7628
  126.1565  160.7598  155.1919 LP  0  0  0  0  0  0  0  0  0  0  0  0  # atno 14361 bound_to 8100

> <Gold.Score>
     Fitness  S(hb_ext) S(vdw_ext)  S(hb_int)    S(int)      intcor
     30.51       0.97      22.02       0.00      -0.73      -0.76

> <Gold.Goldscore.Fitness>
30.5125

> <Gold.Goldscore.Internal.Vdw>
-0.8078

> <Gold.Goldscore.Internal.Torsion>
-0.6841

> <Gold.Goldscore.External.Vdw>
22.0224

> <Gold.Goldscore.Internal.HBond>
0.0000

> <Gold.Goldscore.External.HBond>
0.9650

> <Gold.Goldscore.Internal.Correction>
-0.7585

> <Gold.Goldscore.Hbonds>
donor molecule, donor type, donor heavy atom, donor atom, acceptor molecule, acceptor atom, score
      P1  H  7601  7608       L1    11  0.48

> <Gold.Goldscore.Internal.Vdw.Weighted>
-0.8078

> <Gold.Goldscore.Internal.Torsion.Weighted>
-0.6841

> <Gold.Goldscore.External.Vdw.Weighted>
30.2808

> <Gold.Goldscore.Internal.HBond.Weighted>
0.0000

> <Gold.Goldscore.External.HBond.Weighted>
0.9650

> <Gold.Goldscore.Internal.Correction.Weighted>
-0.7585

> <Gold.Rescore>
     Score     S(PLP)   S(hbond)     S(cho)   S(metal)  DE(clash)   DE(tors)     intcor
     21.56     -20.61       1.00       0.00       0.00       0.00       1.03       ----

> <Gold.PLP.Fitness>
21.5551

> <Gold.PLP.PLP>
-20.6085

> <Gold.PLP.part.hbond>
-1.0000

> <Gold.PLP.part.metal>
0.0000

> <Gold.PLP.part.buried>
2.9360

> <Gold.PLP.part.nonpolar>
-23.6405

> <Gold.PLP.part.repulsive>
0.1157

> <Gold.PLP.ligand.clash>
0.0000

> <Gold.PLP.ligand.torsion>
1.0267

> <Gold.PLP.Chemscore.Hbond>
1.0000

> <Gold.PLP.Chemscore.CHOScore>
0.0000

> <Gold.PLP.Chemscore.Metal>
0.0000

> <Gold.Chemscore.Hbonds>
donor molecule, donor type, donor heavy atom, donor atom, acceptor molecule, acceptor atom, score
      P1  H  7601  7608       L1    11  0.24

> <Gold.PLP.Chemscore.Internal.Correction>
   9.000000E+99

