#       Name:                CT1002167954
#       Creating user name   hitesit
#       Creation time:       Sun Apr 16 20:27:57 2023


#       File generated by GOLD software.
#

@<TRIPOS>MOLECULE
CT1002167954|ligand_prepared|mol2|1|dock4
    29    30     1
SMALL
NO_CHARGES


@<TRIPOS>ATOM
      1 C1         133.0168 144.5968 126.7114 C.3            1 RES1               0.0000
      2 C2         132.9850 144.1117 128.1751 C.ar           1 RES1               0.0000
      3 C3         131.6226 145.1382 126.4091 C.2            1 RES1               0.0000
      4 C4         134.1216 145.6446 126.6331 C.2            1 RES1               0.0000
      5 C5         133.3427 143.4817 125.6906 C.3            1 RES1               0.0000
      6 C6         132.3423 144.8609 129.1561 C.ar           1 RES1               0.0000
      7 C7         133.5906 142.9181 128.5585 C.ar           1 RES1               0.0000
      8 N8         131.4746 146.4913 126.3257 N.am           1 RES1               0.0000
      9 O9         130.6600 144.3910 126.2850 O.2            1 RES1               0.0000
     10 N10        133.7613 146.9384 126.3606 N.am           1 RES1               0.0000
     11 O11        135.2990 145.3646 126.8212 O.2            1 RES1               0.0000
     12 C12        133.1426 143.8989 124.2421 C.3            1 RES1               0.0000
     13 C13        132.3037 144.4310 130.4721 C.ar           1 RES1               0.0000
     14 C14        133.5511 142.4901 129.8752 C.ar           1 RES1               0.0000
     15 C15        132.4849 147.4147 126.2338 C.2            1 RES1               0.0000
     16 C16        132.9076 143.2452 130.8325 C.ar           1 RES1               0.0000
     17 O17        132.2384 148.6022 126.0431 O.2            1 RES1               0.0000
     18 H18        134.3858 143.1713 125.8278 H              1 RES1               0.0000
     19 H19        132.7045 142.6142 125.8995 H              1 RES1               0.0000
     20 H20        131.8636 145.7979 128.8918 H              1 RES1               0.0000
     21 H21        134.1035 142.3082 127.8226 H              1 RES1               0.0000
     22 H22        130.5251 146.8498 126.3323 H              1 RES1               0.0000
     23 H23        134.5144 147.6083 126.2412 H              1 RES1               0.0000
     24 H24        133.3851 143.0801 123.5679 H              1 RES1               0.0000
     25 H25        132.1095 144.1901 124.0638 H              1 RES1               0.0000
     26 H26        133.7809 144.7439 123.9925 H              1 RES1               0.0000
     27 H27        131.7972 145.0297 131.2220 H              1 RES1               0.0000
     28 H28        134.0283 141.5565 130.1545 H              1 RES1               0.0000
     29 H29        132.8769 142.9085 131.8635 H              1 RES1               0.0000
@<TRIPOS>BOND
    1    1    2 1     
    2    1    3 1     
    3    1    4 1     
    4    1    5 1     
    5    2    6 ar    
    6    2    7 ar    
    7    3    8 1     
    8    3    9 2     
    9    4   10 1     
   10    4   11 2     
   11    5   12 1     
   12    5   18 1     
   13    5   19 1     
   14    6   13 ar    
   15    6   20 1     
   16    7   14 ar    
   17    7   21 1     
   18    8   15 1     
   19    8   22 1     
   20   10   15 1     
   21   10   23 1     
   22   12   24 1     
   23   12   25 1     
   24   12   26 1     
   25   13   16 ar    
   26   13   27 1     
   27   14   16 ar    
   28   14   28 1     
   29   15   17 2     
   30   16   29 1     
@<TRIPOS>SUBSTRUCTURE
      1 RES1           1
@<TRIPOS>SET
DONOR_HYDROGENS      STATIC     ATOMS    <user>   **** ""
2 22 23
ATOM$RED        STATIC     ATOMS    COLORGROUP SYSTEM
2 22 23
@<TRIPOS>COMMENT
> <Gold.Version>
2022.3.0

> <Gold.Id.Protein>
unknown|7rmi_cavity_clean|pdb

> <Gold.Protein.RotatedTorsions>
[ 7275 7267 7268 7269 ] final  166.89 input   86.30 | X-H torsion
[ 7259 7254 7253 7250 ] final  178.36 input   59.97 | X-H torsion
[ 3787 3780 3778 3775 ] final  -59.83 input   60.01 | X-H torsion
[ 7241 7225 7224 7223 ] final   43.88 input   60.01 | X-H torsion
[ 7244 7226 7227 7228 ] final -109.99 input   59.90 | X-H torsion
[ 7633 7625 7626 7627 ] final   74.44 input   88.29 | X-H torsion
[ 8107 8100 8094 8093 ] final   59.99 input   59.99 | X-H torsion
[ 14346 7229 7228 7227 ] final -138.95 input    0.00 | X-H torsion
[ 14355 7628 7627 7626 ] final  -87.88 input    0.00 | X-H torsion

> <Gold.Protein.ActiveResidues>
 THR47   ARG48   ARG49   LYS280  SER281  LEU284  LEU286  CYS294  ASN295  VAL296 
 GLY306  VAL307  LEU308  VAL320  GLY324  MET325  ALA326  VAL327  TRP339  ASN340 
 ASP48   PRO49   LEU50  

> <Gold.Protein.RotatedAtoms>
  129.7334  152.1466  150.4844 H   0  0  0  0  0  0  0  0  0  0  0  0  # atno 3787 bound_to 3780
  134.7157  164.8448  170.4661 H   0  0  0  0  0  0  0  0  0  0  0  0  # atno 7241 bound_to 7225
  133.9417  165.7956  171.5815 H   0  0  0  0  0  0  0  0  0  0  0  0  # atno 7242 bound_to 7225
  133.7475  164.1497  171.6175 H   0  0  0  0  0  0  0  0  0  0  0  0  # atno 7243 bound_to 7225
  123.8722  135.0273   86.3337 H   0  0  0  0  0  0  0  0  0  0  0  0  # atno 7244 bound_to 7226
  125.0522  162.5821  167.6715 H   0  0  0  0  0  0  0  0  0  0  0  0  # atno 7259 bound_to 7254
  123.6639  158.6952  167.1263 H   0  0  0  0  0  0  0  0  0  0  0  0  # atno 7275 bound_to 7267
  123.4119  125.0730  129.8185 H   0  0  0  0  0  0  0  0  0  0  0  0  # atno 7633 bound_to 7625
  127.5370  161.3050  155.7080 H   0  0  0  0  0  0  0  0  0  0  0  0  # atno 8107 bound_to 8100
  125.6325  161.3497  168.5624 LP  0  0  0  0  0  0  0  0  0  0  0  0  # atno 14309 bound_to 7254
  126.5513  162.0152  167.3879 LP  0  0  0  0  0  0  0  0  0  0  0  0  # atno 14310 bound_to 7254
  129.6551  151.3263  149.0813 LP  0  0  0  0  0  0  0  0  0  0  0  0  # atno 14331 bound_to 3780
  128.5557  152.4869  149.4144 LP  0  0  0  0  0  0  0  0  0  0  0  0  # atno 14332 bound_to 3780
  123.9628  133.4461   87.0814 LP  0  0  0  0  0  0  0  0  0  0  0  0  # atno 14345 bound_to 7226
  122.8884  134.2984   90.3123 LP  0  0  0  0  0  0  0  0  0  0  0  0  # atno 14346 bound_to 7229
  123.5407  135.3877   89.1342 LP  0  0  0  0  0  0  0  0  0  0  0  0  # atno 14347 bound_to 7229
  122.6015  123.5263  129.8075 LP  0  0  0  0  0  0  0  0  0  0  0  0  # atno 14354 bound_to 7625
  122.9980  123.0328  133.6509 LP  0  0  0  0  0  0  0  0  0  0  0  0  # atno 14355 bound_to 7628
  124.6996  122.9976  133.9727 LP  0  0  0  0  0  0  0  0  0  0  0  0  # atno 14356 bound_to 7628
  126.1565  160.7598  155.1919 LP  0  0  0  0  0  0  0  0  0  0  0  0  # atno 14361 bound_to 8100

> <Gold.Score>
     Fitness  S(hb_ext) S(vdw_ext)  S(hb_int)    S(int)      intcor
     27.14       0.00      19.85       0.00      -0.16      -0.76

> <Gold.Goldscore.Fitness>
27.1381

> <Gold.Goldscore.Internal.Vdw>
-0.3936

> <Gold.Goldscore.Internal.Torsion>
-0.5242

> <Gold.Goldscore.External.Vdw>
19.8526

> <Gold.Goldscore.Internal.HBond>
0.0000

> <Gold.Goldscore.External.HBond>
0.0000

> <Gold.Goldscore.Internal.Correction>
-0.7585

> <Gold.Goldscore.Internal.Vdw.Weighted>
-0.3936

> <Gold.Goldscore.Internal.Torsion.Weighted>
-0.5242

> <Gold.Goldscore.External.Vdw.Weighted>
27.2974

> <Gold.Goldscore.Internal.HBond.Weighted>
0.0000

> <Gold.Goldscore.External.HBond.Weighted>
0.0000

> <Gold.Goldscore.Internal.Correction.Weighted>
-0.7585

> <Gold.Rescore>
     Score     S(PLP)   S(hbond)     S(cho)   S(metal)  DE(clash)   DE(tors)     intcor
     32.49     -33.00       0.00       0.00       0.00       0.00       0.25       ----

> <Gold.PLP.Fitness>
32.4872

> <Gold.PLP.PLP>
-32.9954

> <Gold.PLP.part.hbond>
0.0000

> <Gold.PLP.part.metal>
0.0000

> <Gold.PLP.part.buried>
-2.7197

> <Gold.PLP.part.nonpolar>
-31.2433

> <Gold.PLP.part.repulsive>
0.0788

> <Gold.PLP.ligand.clash>
0.0000

> <Gold.PLP.ligand.torsion>
0.2541

> <Gold.PLP.Chemscore.Hbond>
0.0000

> <Gold.PLP.Chemscore.CHOScore>
0.0000

> <Gold.PLP.Chemscore.Metal>
0.0000

> <Gold.PLP.Chemscore.Internal.Correction>
   9.000000E+99

