#       Name:                CT1002167954
#       Creating user name   hitesit
#       Creation time:       Sun Apr 16 20:31:52 2023


#       File generated by GOLD software.
#

@<TRIPOS>MOLECULE
CT1002167954|ligand_prepared|mol2|1|dock10
    29    30     1
SMALL
NO_CHARGES


@<TRIPOS>ATOM
      1 C1         121.6551 152.3843 152.4080 C.3            1 RES1               0.0000
      2 C2         122.1926 152.7273 153.8124 C.ar           1 RES1               0.0000
      3 C3         122.2825 153.3936 151.4509 C.2            1 RES1               0.0000
      4 C4         122.0572 150.9385 152.1387 C.2            1 RES1               0.0000
      5 C5         120.1166 152.4829 152.2865 C.3            1 RES1               0.0000
      6 C6         123.5520 152.6306 154.0939 C.ar           1 RES1               0.0000
      7 C7         121.3431 153.1436 154.8340 C.ar           1 RES1               0.0000
      8 N8         123.2758 152.9509 150.6279 N.am           1 RES1               0.0000
      9 O9         121.9382 154.5691 151.4461 O.2            1 RES1               0.0000
     10 N10        122.9546 150.6986 151.1313 N.am           1 RES1               0.0000
     11 O11        121.6177 150.0064 152.8008 O.2            1 RES1               0.0000
     12 C12        119.5772 152.0251 150.9406 C.3            1 RES1               0.0000
     13 C13        124.0449 152.9416 155.3504 C.ar           1 RES1               0.0000
     14 C14        121.8380 153.4540 156.0898 C.ar           1 RES1               0.0000
     15 C15        123.6055 151.6420 150.3839 C.2            1 RES1               0.0000
     16 C16        123.1884 153.3539 156.3490 C.ar           1 RES1               0.0000
     17 O17        124.4403 151.3501 149.5324 O.2            1 RES1               0.0000
     18 H18        119.6603 151.8728 153.0758 H              1 RES1               0.0000
     19 H19        119.8154 153.5247 152.4517 H              1 RES1               0.0000
     20 H20        124.2409 152.3055 153.3214 H              1 RES1               0.0000
     21 H21        120.2769 153.2286 154.6532 H              1 RES1               0.0000
     22 H22        123.8242 153.6586 150.1497 H              1 RES1               0.0000
     23 H23        123.1559 149.7266 150.9187 H              1 RES1               0.0000
     24 H24        118.4934 152.1148 150.9086 H              1 RES1               0.0000
     25 H25        119.9910 152.6272 150.1342 H              1 RES1               0.0000
     26 H26        119.8368 150.9850 150.7546 H              1 RES1               0.0000
     27 H27        125.1083 152.8599 155.5496 H              1 RES1               0.0000
     28 H28        121.1603 153.7774 156.8729 H              1 RES1               0.0000
     29 H29        123.5748 153.5979 157.3330 H              1 RES1               0.0000
@<TRIPOS>BOND
    1    1    2 1     
    2    1    3 1     
    3    1    4 1     
    4    1    5 1     
    5    2    6 ar    
    6    2    7 ar    
    7    3    8 1     
    8    3    9 2     
    9    4   10 1     
   10    4   11 2     
   11    5   12 1     
   12    5   18 1     
   13    5   19 1     
   14    6   13 ar    
   15    6   20 1     
   16    7   14 ar    
   17    7   21 1     
   18    8   15 1     
   19    8   22 1     
   20   10   15 1     
   21   10   23 1     
   22   12   24 1     
   23   12   25 1     
   24   12   26 1     
   25   13   16 ar    
   26   13   27 1     
   27   14   16 ar    
   28   14   28 1     
   29   15   17 2     
   30   16   29 1     
@<TRIPOS>SUBSTRUCTURE
      1 RES1           1
@<TRIPOS>SET
DONOR_HYDROGENS      STATIC     ATOMS    <user>   **** ""
2 22 23
ATOM$RED        STATIC     ATOMS    COLORGROUP SYSTEM
2 22 23
@<TRIPOS>COMMENT
> <Gold.Version>
2022.3.0

> <Gold.Id.Protein>
unknown|7rmi_cavity_clean|pdb

> <Gold.Protein.RotatedTorsions>
[ 7275 7267 7268 7269 ] final   92.12 input   86.30 | X-H torsion
[ 7259 7254 7253 7250 ] final  102.95 input   59.97 | X-H torsion
[ 3787 3780 3778 3775 ] final  175.41 input   60.01 | X-H torsion
[ 7241 7225 7224 7223 ] final  133.98 input   60.01 | X-H torsion
[ 7244 7226 7227 7228 ] final  -75.45 input   59.90 | X-H torsion
[ 7633 7625 7626 7627 ] final -111.53 input   88.29 | X-H torsion
[ 8107 8100 8094 8093 ] final   59.99 input   59.99 | X-H torsion
[ 14346 7229 7228 7227 ] final  141.74 input    0.00 | X-H torsion
[ 14355 7628 7627 7626 ] final  -94.70 input    0.00 | X-H torsion

> <Gold.Protein.ActiveResidues>
 THR47   ARG48   ARG49   LYS280  SER281  LEU284  LEU286  CYS294  ASN295  VAL296 
 GLY306  VAL307  LEU308  VAL320  GLY324  MET325  ALA326  VAL327  TRP339  ASN340 
 ASP48   PRO49   LEU50  

> <Gold.Protein.RotatedAtoms>
  129.5973  151.3517  149.0346 H   0  0  0  0  0  0  0  0  0  0  0  0  # atno 3787 bound_to 3780
  134.2463  165.8801  171.2017 H   0  0  0  0  0  0  0  0  0  0  0  0  # atno 7241 bound_to 7225
  133.5762  164.5273  171.8859 H   0  0  0  0  0  0  0  0  0  0  0  0  # atno 7242 bound_to 7225
  134.5829  164.3826  170.5769 H   0  0  0  0  0  0  0  0  0  0  0  0  # atno 7243 bound_to 7225
  124.0027  135.1009   86.8417 H   0  0  0  0  0  0  0  0  0  0  0  0  # atno 7244 bound_to 7226
  125.0600  161.7660  168.4755 H   0  0  0  0  0  0  0  0  0  0  0  0  # atno 7259 bound_to 7254
  124.7405  158.6321  167.1947 H   0  0  0  0  0  0  0  0  0  0  0  0  # atno 7275 bound_to 7267
  122.6480  123.4890  129.7369 H   0  0  0  0  0  0  0  0  0  0  0  0  # atno 7633 bound_to 7625
  127.5370  161.3050  155.7080 H   0  0  0  0  0  0  0  0  0  0  0  0  # atno 8107 bound_to 8100
  126.5562  161.5054  167.8900 LP  0  0  0  0  0  0  0  0  0  0  0  0  # atno 14309 bound_to 7254
  125.6198  162.6809  167.2512 LP  0  0  0  0  0  0  0  0  0  0  0  0  # atno 14310 bound_to 7254
  128.5621  152.5244  149.4827 LP  0  0  0  0  0  0  0  0  0  0  0  0  # atno 14331 bound_to 3780
  129.7857  152.0893  150.4727 LP  0  0  0  0  0  0  0  0  0  0  0  0  # atno 14332 bound_to 3780
  123.8370  133.3752   86.5919 LP  0  0  0  0  0  0  0  0  0  0  0  0  # atno 14345 bound_to 7226
  122.7329  135.3865   90.1951 LP  0  0  0  0  0  0  0  0  0  0  0  0  # atno 14346 bound_to 7229
  123.6962  134.2996   89.2513 LP  0  0  0  0  0  0  0  0  0  0  0  0  # atno 14347 bound_to 7229
  123.3509  125.0803  129.8875 LP  0  0  0  0  0  0  0  0  0  0  0  0  # atno 14354 bound_to 7625
  122.9935  123.1121  133.7163 LP  0  0  0  0  0  0  0  0  0  0  0  0  # atno 14355 bound_to 7628
  124.7041  122.9182  133.9073 LP  0  0  0  0  0  0  0  0  0  0  0  0  # atno 14356 bound_to 7628
  126.1565  160.7598  155.1919 LP  0  0  0  0  0  0  0  0  0  0  0  0  # atno 14361 bound_to 8100

> <Gold.Score>
     Fitness  S(hb_ext) S(vdw_ext)  S(hb_int)    S(int)      intcor
     33.67       0.00      24.68       0.00      -0.27      -0.76

> <Gold.Goldscore.Fitness>
33.6659

> <Gold.Goldscore.Internal.Vdw>
-0.6152

> <Gold.Goldscore.Internal.Torsion>
-0.4084

> <Gold.Goldscore.External.Vdw>
24.6790

> <Gold.Goldscore.Internal.HBond>
0.0000

> <Gold.Goldscore.External.HBond>
0.0000

> <Gold.Goldscore.Internal.Correction>
-0.7558

> <Gold.Goldscore.Internal.Vdw.Weighted>
-0.6152

> <Gold.Goldscore.Internal.Torsion.Weighted>
-0.4084

> <Gold.Goldscore.External.Vdw.Weighted>
33.9336

> <Gold.Goldscore.Internal.HBond.Weighted>
0.0000

> <Gold.Goldscore.External.HBond.Weighted>
0.0000

> <Gold.Goldscore.Internal.Correction.Weighted>
-0.7558

> <Gold.Rescore>
     Score     S(PLP)   S(hbond)     S(cho)   S(metal)  DE(clash)   DE(tors)     intcor
     27.34     -29.28       0.00       0.00       0.00       0.00       0.97       ----

> <Gold.PLP.Fitness>
27.3444

> <Gold.PLP.PLP>
-29.2796

> <Gold.PLP.part.hbond>
-2.0000

> <Gold.PLP.part.metal>
0.0000

> <Gold.PLP.part.buried>
5.7021

> <Gold.PLP.part.nonpolar>
-34.0399

> <Gold.PLP.part.repulsive>
0.5499

> <Gold.PLP.ligand.clash>
0.0000

> <Gold.PLP.ligand.torsion>
0.9676

> <Gold.PLP.Chemscore.Hbond>
0.0000

> <Gold.PLP.Chemscore.CHOScore>
0.0000

> <Gold.PLP.Chemscore.Metal>
0.0000

> <Gold.PLP.Chemscore.Internal.Correction>
   9.000000E+99

