#       Name:                CT1002167954
#       Creating user name   hitesit
#       Creation time:       Sun Apr 16 20:28:38 2023


#       File generated by GOLD software.
#

@<TRIPOS>MOLECULE
CT1002167954|ligand_prepared|mol2|1|dock5
    29    30     1
SMALL
NO_CHARGES


@<TRIPOS>ATOM
      1 C1         132.9287 144.5563 126.4082 C.3            1 RES1               0.0000
      2 C2         133.2406 143.9585 127.7953 C.ar           1 RES1               0.0000
      3 C3         131.5604 144.0138 126.0057 C.2            1 RES1               0.0000
      4 C4         132.9723 146.0710 126.5768 C.2            1 RES1               0.0000
      5 C5         133.9519 144.1675 125.3158 C.3            1 RES1               0.0000
      6 C6         133.8554 142.7152 127.9091 C.ar           1 RES1               0.0000
      7 C7         132.9226 144.6385 128.9679 C.ar           1 RES1               0.0000
      8 N8         130.5011 144.8713 126.0557 N.am           1 RES1               0.0000
      9 O9         131.4064 142.8411 125.6874 O.2            1 RES1               0.0000
     10 N10        131.8055 146.7696 126.4087 N.am           1 RES1               0.0000
     11 O11        134.0031 146.6640 126.8700 O.2            1 RES1               0.0000
     12 C12        133.7547 144.9048 124.0006 C.3            1 RES1               0.0000
     13 C13        134.1445 142.1725 129.1502 C.ar           1 RES1               0.0000
     14 C14        133.2124 144.0939 130.2081 C.ar           1 RES1               0.0000
     15 C15        130.5657 146.2353 126.1860 C.2            1 RES1               0.0000
     16 C16        133.8237 142.8615 130.3003 C.ar           1 RES1               0.0000
     17 O17        129.5541 146.9256 126.1002 O.2            1 RES1               0.0000
     18 H18        134.9625 144.3748 125.6887 H              1 RES1               0.0000
     19 H19        133.8777 143.0888 125.1303 H              1 RES1               0.0000
     20 H20        134.1130 142.1571 127.0151 H              1 RES1               0.0000
     21 H21        132.4404 145.6089 128.9195 H              1 RES1               0.0000
     22 H22        129.5753 144.4603 125.9902 H              1 RES1               0.0000
     23 H23        131.8669 147.7818 126.4535 H              1 RES1               0.0000
     24 H24        134.4984 144.5950 123.2694 H              1 RES1               0.0000
     25 H25        132.7687 144.7011 123.5883 H              1 RES1               0.0000
     26 H26        133.8470 145.9795 124.1434 H              1 RES1               0.0000
     27 H27        134.6244 141.2017 129.2174 H              1 RES1               0.0000
     28 H28        132.9576 144.6394 131.1106 H              1 RES1               0.0000
     29 H29        134.0506 142.4364 131.2724 H              1 RES1               0.0000
@<TRIPOS>BOND
    1    1    2 1     
    2    1    3 1     
    3    1    4 1     
    4    1    5 1     
    5    2    6 ar    
    6    2    7 ar    
    7    3    8 1     
    8    3    9 2     
    9    4   10 1     
   10    4   11 2     
   11    5   12 1     
   12    5   18 1     
   13    5   19 1     
   14    6   13 ar    
   15    6   20 1     
   16    7   14 ar    
   17    7   21 1     
   18    8   15 1     
   19    8   22 1     
   20   10   15 1     
   21   10   23 1     
   22   12   24 1     
   23   12   25 1     
   24   12   26 1     
   25   13   16 ar    
   26   13   27 1     
   27   14   16 ar    
   28   14   28 1     
   29   15   17 2     
   30   16   29 1     
@<TRIPOS>SUBSTRUCTURE
      1 RES1           1
@<TRIPOS>SET
DONOR_HYDROGENS      STATIC     ATOMS    <user>   **** ""
2 22 23
ATOM$RED        STATIC     ATOMS    COLORGROUP SYSTEM
2 22 23
@<TRIPOS>COMMENT
> <Gold.Version>
2022.3.0

> <Gold.Id.Protein>
unknown|7rmi_cavity_clean|pdb

> <Gold.Protein.RotatedTorsions>
[ 7275 7267 7268 7269 ] final  154.49 input   86.30 | X-H torsion
[ 7259 7254 7253 7250 ] final -146.07 input   59.97 | X-H torsion
[ 3787 3780 3778 3775 ] final -142.99 input   60.01 | X-H torsion
[ 7241 7225 7224 7223 ] final  -37.79 input   60.01 | X-H torsion
[ 7244 7226 7227 7228 ] final  100.10 input   59.90 | X-H torsion
[ 7633 7625 7626 7627 ] final -129.57 input   88.29 | X-H torsion
[ 8107 8100 8094 8093 ] final   59.99 input   59.99 | X-H torsion
[ 14346 7229 7228 7227 ] final   23.49 input    0.00 | X-H torsion
[ 14355 7628 7627 7626 ] final -111.76 input    0.00 | X-H torsion

> <Gold.Protein.ActiveResidues>
 THR47   ARG48   ARG49   LYS280  SER281  LEU284  LEU286  CYS294  ASN295  VAL296 
 GLY306  VAL307  LEU308  VAL320  GLY324  MET325  ALA326  VAL327  TRP339  ASN340 
 ASP48   PRO49   LEU50  

> <Gold.Protein.RotatedAtoms>
  129.9924  151.3467  149.5694 H   0  0  0  0  0  0  0  0  0  0  0  0  # atno 3787 bound_to 3780
  134.1080  163.9780  171.1329 H   0  0  0  0  0  0  0  0  0  0  0  0  # atno 7241 bound_to 7225
  134.6604  165.4526  170.6159 H   0  0  0  0  0  0  0  0  0  0  0  0  # atno 7242 bound_to 7225
  133.6366  165.3602  171.9163 H   0  0  0  0  0  0  0  0  0  0  0  0  # atno 7243 bound_to 7225
  123.8233  133.3369   86.6608 H   0  0  0  0  0  0  0  0  0  0  0  0  # atno 7244 bound_to 7226
  125.4880  162.6927  167.3175 H   0  0  0  0  0  0  0  0  0  0  0  0  # atno 7259 bound_to 7254
  123.8363  158.7504  167.0617 H   0  0  0  0  0  0  0  0  0  0  0  0  # atno 7275 bound_to 7267
  122.8343  123.4735  129.5334 H   0  0  0  0  0  0  0  0  0  0  0  0  # atno 7633 bound_to 7625
  127.5370  161.3050  155.7080 H   0  0  0  0  0  0  0  0  0  0  0  0  # atno 8107 bound_to 8100
  125.1479  161.6591  168.5280 LP  0  0  0  0  0  0  0  0  0  0  0  0  # atno 14309 bound_to 7254
  126.5974  161.5946  167.7786 LP  0  0  0  0  0  0  0  0  0  0  0  0  # atno 14310 bound_to 7254
  128.6799  152.1033  148.9756 LP  0  0  0  0  0  0  0  0  0  0  0  0  # atno 14331 bound_to 3780
  129.2701  152.5154  150.4413 LP  0  0  0  0  0  0  0  0  0  0  0  0  # atno 14332 bound_to 3780
  124.0099  135.0752   86.7662 LP  0  0  0  0  0  0  0  0  0  0  0  0  # atno 14345 bound_to 7226
  123.6548  135.1644   89.0503 LP  0  0  0  0  0  0  0  0  0  0  0  0  # atno 14346 bound_to 7229
  122.7743  134.5216   90.3962 LP  0  0  0  0  0  0  0  0  0  0  0  0  # atno 14347 bound_to 7229
  123.1682  125.0955  130.0872 LP  0  0  0  0  0  0  0  0  0  0  0  0  # atno 14354 bound_to 7625
  123.0350  123.3023  133.8840 LP  0  0  0  0  0  0  0  0  0  0  0  0  # atno 14355 bound_to 7628
  124.6627  122.7280  133.7397 LP  0  0  0  0  0  0  0  0  0  0  0  0  # atno 14356 bound_to 7628
  126.1565  160.7598  155.1919 LP  0  0  0  0  0  0  0  0  0  0  0  0  # atno 14361 bound_to 8100

> <Gold.Score>
     Fitness  S(hb_ext) S(vdw_ext)  S(hb_int)    S(int)      intcor
     29.96       0.00      22.48       0.00      -0.95      -0.76

> <Gold.Goldscore.Fitness>
29.9567

> <Gold.Goldscore.Internal.Vdw>
-1.2480

> <Gold.Goldscore.Internal.Torsion>
-0.4623

> <Gold.Goldscore.External.Vdw>
22.4789

> <Gold.Goldscore.Internal.HBond>
0.0000

> <Gold.Goldscore.External.HBond>
0.0000

> <Gold.Goldscore.Internal.Correction>
-0.7585

> <Gold.Goldscore.Internal.Vdw.Weighted>
-1.2480

> <Gold.Goldscore.Internal.Torsion.Weighted>
-0.4623

> <Gold.Goldscore.External.Vdw.Weighted>
30.9084

> <Gold.Goldscore.Internal.HBond.Weighted>
0.0000

> <Gold.Goldscore.External.HBond.Weighted>
0.0000

> <Gold.Goldscore.Internal.Correction.Weighted>
-0.7585

> <Gold.Rescore>
     Score     S(PLP)   S(hbond)     S(cho)   S(metal)  DE(clash)   DE(tors)     intcor
     29.38     -31.41       0.00       0.00       0.00       0.00       1.02       ----

> <Gold.PLP.Fitness>
29.3777

> <Gold.PLP.PLP>
-31.4094

> <Gold.PLP.part.hbond>
-0.3581

> <Gold.PLP.part.metal>
0.0000

> <Gold.PLP.part.buried>
1.6450

> <Gold.PLP.part.nonpolar>
-33.3426

> <Gold.PLP.part.repulsive>
0.3190

> <Gold.PLP.ligand.clash>
0.0000

> <Gold.PLP.ligand.torsion>
1.0158

> <Gold.PLP.Chemscore.Hbond>
0.0000

> <Gold.PLP.Chemscore.CHOScore>
0.0000

> <Gold.PLP.Chemscore.Metal>
0.0000

> <Gold.PLP.Chemscore.Internal.Correction>
   9.000000E+99

