#       Name:                CT1002167954
#       Creating user name   hitesit
#       Creation time:       Sun Apr 16 20:31:15 2023


#       File generated by GOLD software.
#

@<TRIPOS>MOLECULE
CT1002167954|ligand_prepared|mol2|1|dock9
    29    30     1
SMALL
NO_CHARGES


@<TRIPOS>ATOM
      1 C1         136.8768 144.5391 130.7002 C.3            1 RES1               0.0000
      2 C2         135.7898 143.8548 129.8464 C.ar           1 RES1               0.0000
      3 C3         138.2170 144.0427 130.1657 C.2            1 RES1               0.0000
      4 C4         136.6614 146.0402 130.5420 C.2            1 RES1               0.0000
      5 C5         136.7930 144.2006 132.2068 C.3            1 RES1               0.0000
      6 C6         134.5708 143.4904 130.4103 C.ar           1 RES1               0.0000
      7 C7         135.9901 143.5843 128.4953 C.ar           1 RES1               0.0000
      8 N8         138.9631 144.9118 129.4255 N.am           1 RES1               0.0000
      9 O9         138.5954 142.8936 130.3574 O.2            1 RES1               0.0000
     10 N10        137.6361 146.7655 129.9083 N.am           1 RES1               0.0000
     11 O11        135.6487 146.5987 130.9456 O.2            1 RES1               0.0000
     12 C12        138.0105 144.6430 133.0032 C.3            1 RES1               0.0000
     13 C13        133.5865 142.8804 129.6505 C.ar           1 RES1               0.0000
     14 C14        135.0044 142.9739 127.7374 C.ar           1 RES1               0.0000
     15 C15        138.7631 146.2645 129.3157 C.2            1 RES1               0.0000
     16 C16        133.8024 142.6222 128.3136 C.ar           1 RES1               0.0000
     17 O17        139.5661 146.9741 128.7168 O.2            1 RES1               0.0000
     18 H18        135.9017 144.6819 132.6278 H              1 RES1               0.0000
     19 H19        136.6729 143.1160 132.3189 H              1 RES1               0.0000
     20 H20        134.3837 143.6834 131.4614 H              1 RES1               0.0000
     21 H21        136.9284 143.8512 128.0211 H              1 RES1               0.0000
     22 H22        139.7417 144.5198 128.9055 H              1 RES1               0.0000
     23 H23        137.5100 147.7721 129.8754 H              1 RES1               0.0000
     24 H24        137.9002 144.3814 134.0535 H              1 RES1               0.0000
     25 H25        138.9121 144.1638 132.6275 H              1 RES1               0.0000
     26 H26        138.1455 145.7204 132.9346 H              1 RES1               0.0000
     27 H27        132.6427 142.6043 130.1091 H              1 RES1               0.0000
     28 H28        135.1789 142.7721 126.6857 H              1 RES1               0.0000
     29 H29        133.0310 142.1447 127.7185 H              1 RES1               0.0000
@<TRIPOS>BOND
    1    1    2 1     
    2    1    3 1     
    3    1    4 1     
    4    1    5 1     
    5    2    6 ar    
    6    2    7 ar    
    7    3    8 1     
    8    3    9 2     
    9    4   10 1     
   10    4   11 2     
   11    5   12 1     
   12    5   18 1     
   13    5   19 1     
   14    6   13 ar    
   15    6   20 1     
   16    7   14 ar    
   17    7   21 1     
   18    8   15 1     
   19    8   22 1     
   20   10   15 1     
   21   10   23 1     
   22   12   24 1     
   23   12   25 1     
   24   12   26 1     
   25   13   16 ar    
   26   13   27 1     
   27   14   16 ar    
   28   14   28 1     
   29   15   17 2     
   30   16   29 1     
@<TRIPOS>SUBSTRUCTURE
      1 RES1           1
@<TRIPOS>SET
DONOR_HYDROGENS      STATIC     ATOMS    <user>   **** ""
2 22 23
ATOM$RED        STATIC     ATOMS    COLORGROUP SYSTEM
2 22 23
@<TRIPOS>COMMENT
> <Gold.Version>
2022.3.0

> <Gold.Id.Protein>
unknown|7rmi_cavity_clean|pdb

> <Gold.Protein.RotatedTorsions>
[ 7275 7267 7268 7269 ] final -159.12 input   86.30 | X-H torsion
[ 7259 7254 7253 7250 ] final    5.53 input   59.97 | X-H torsion
[ 3787 3780 3778 3775 ] final  -46.17 input   60.01 | X-H torsion
[ 7241 7225 7224 7223 ] final  102.77 input   60.01 | X-H torsion
[ 7244 7226 7227 7228 ] final   -1.85 input   59.90 | X-H torsion
[ 7633 7625 7626 7627 ] final   98.47 input   88.29 | X-H torsion
[ 8107 8100 8094 8093 ] final   59.99 input   59.99 | X-H torsion
[ 14346 7229 7228 7227 ] final  -96.61 input    0.00 | X-H torsion
[ 14355 7628 7627 7626 ] final   33.03 input    0.00 | X-H torsion

> <Gold.Protein.ActiveResidues>
 THR47   ARG48   ARG49   LYS280  SER281  LEU284  LEU286  CYS294  ASN295  VAL296 
 GLY306  VAL307  LEU308  VAL320  GLY324  MET325  ALA326  VAL327  TRP339  ASN340 
 ASP48   PRO49   LEU50  

> <Gold.Protein.RotatedAtoms>
  129.5727  152.2993  150.5062 H   0  0  0  0  0  0  0  0  0  0  0  0  # atno 3787 bound_to 3780
  134.5312  165.6992  170.8132 H   0  0  0  0  0  0  0  0  0  0  0  0  # atno 7241 bound_to 7225
  133.5564  165.0337  171.9768 H   0  0  0  0  0  0  0  0  0  0  0  0  # atno 7242 bound_to 7225
  134.3176  164.0570  170.8748 H   0  0  0  0  0  0  0  0  0  0  0  0  # atno 7243 bound_to 7225
  124.1242  134.3336   87.5751 H   0  0  0  0  0  0  0  0  0  0  0  0  # atno 7244 bound_to 7226
  126.3656  161.3445  168.1604 H   0  0  0  0  0  0  0  0  0  0  0  0  # atno 7259 bound_to 7254
  123.3257  158.4372  167.4258 H   0  0  0  0  0  0  0  0  0  0  0  0  # atno 7275 bound_to 7267
  123.5823  124.8993  129.5436 H   0  0  0  0  0  0  0  0  0  0  0  0  # atno 7633 bound_to 7625
  127.5370  161.3050  155.7080 H   0  0  0  0  0  0  0  0  0  0  0  0  # atno 8107 bound_to 8100
  125.9622  162.5703  167.1686 LP  0  0  0  0  0  0  0  0  0  0  0  0  # atno 14309 bound_to 7254
  124.8998  162.0402  168.2897 LP  0  0  0  0  0  0  0  0  0  0  0  0  # atno 14310 bound_to 7254
  129.8062  151.2985  149.2446 LP  0  0  0  0  0  0  0  0  0  0  0  0  # atno 14331 bound_to 3780
  128.5663  152.3611  149.2291 LP  0  0  0  0  0  0  0  0  0  0  0  0  # atno 14332 bound_to 3780
  123.7199  134.1147   85.8851 LP  0  0  0  0  0  0  0  0  0  0  0  0  # atno 14345 bound_to 7226
  123.2621  133.9988   89.9101 LP  0  0  0  0  0  0  0  0  0  0  0  0  # atno 14346 bound_to 7229
  123.1670  135.6873   89.5364 LP  0  0  0  0  0  0  0  0  0  0  0  0  # atno 14347 bound_to 7229
  122.4343  123.6967  130.0772 LP  0  0  0  0  0  0  0  0  0  0  0  0  # atno 14354 bound_to 7625
  124.3619  122.4316  133.4296 LP  0  0  0  0  0  0  0  0  0  0  0  0  # atno 14355 bound_to 7628
  123.3357  123.5988  134.1940 LP  0  0  0  0  0  0  0  0  0  0  0  0  # atno 14356 bound_to 7628
  126.1565  160.7598  155.1919 LP  0  0  0  0  0  0  0  0  0  0  0  0  # atno 14361 bound_to 8100

> <Gold.Score>
     Fitness  S(hb_ext) S(vdw_ext)  S(hb_int)    S(int)      intcor
     26.74       0.00      19.95       0.00      -0.68      -0.76

> <Gold.Goldscore.Fitness>
26.7429

> <Gold.Goldscore.Internal.Vdw>
-0.8630

> <Gold.Goldscore.Internal.Torsion>
-0.5792

> <Gold.Goldscore.External.Vdw>
19.9466

> <Gold.Goldscore.Internal.HBond>
0.0000

> <Gold.Goldscore.External.HBond>
0.0000

> <Gold.Goldscore.Internal.Correction>
-0.7585

> <Gold.Goldscore.Internal.Vdw.Weighted>
-0.8630

> <Gold.Goldscore.Internal.Torsion.Weighted>
-0.5792

> <Gold.Goldscore.External.Vdw.Weighted>
27.4266

> <Gold.Goldscore.Internal.HBond.Weighted>
0.0000

> <Gold.Goldscore.External.HBond.Weighted>
0.0000

> <Gold.Goldscore.Internal.Correction.Weighted>
-0.7585

> <Gold.Rescore>
     Score     S(PLP)   S(hbond)     S(cho)   S(metal)  DE(clash)   DE(tors)     intcor
     37.98     -39.73       0.00       0.00       0.00       0.05       0.85       ----

> <Gold.PLP.Fitness>
37.9837

> <Gold.PLP.PLP>
-39.7309

> <Gold.PLP.part.hbond>
0.0000

> <Gold.PLP.part.metal>
0.0000

> <Gold.PLP.part.buried>
-2.7400

> <Gold.PLP.part.nonpolar>
-38.0790

> <Gold.PLP.part.repulsive>
0.1666

> <Gold.PLP.ligand.clash>
0.0478

> <Gold.PLP.ligand.torsion>
0.8497

> <Gold.PLP.Chemscore.Hbond>
0.0000

> <Gold.PLP.Chemscore.CHOScore>
0.0000

> <Gold.PLP.Chemscore.Metal>
0.0000

> <Gold.PLP.Chemscore.Internal.Correction>
   9.000000E+99

