#       Name:                CT1002167954
#       Creating user name   hitesit
#       Creation time:       Sun Apr 16 20:26:00 2023


#       File generated by GOLD software.
#

@<TRIPOS>MOLECULE
CT1002167954|ligand_prepared|mol2|1|dock1
    29    30     1
SMALL
NO_CHARGES


@<TRIPOS>ATOM
      1 C1         133.6311 144.7670 126.0317 C.3            1 RES1               0.0000
      2 C2         134.4500 144.1138 127.1638 C.ar           1 RES1               0.0000
      3 C3         133.5722 146.2579 126.3509 C.2            1 RES1               0.0000
      4 C4         134.3593 144.4370 124.7334 C.2            1 RES1               0.0000
      5 C5         132.1848 144.2315 125.9177 C.3            1 RES1               0.0000
      6 C6         134.1068 142.8566 127.6521 C.ar           1 RES1               0.0000
      7 C7         135.5508 144.7538 127.7270 C.ar           1 RES1               0.0000
      8 N8         134.3390 147.0963 125.5965 N.am           1 RES1               0.0000
      9 O9         132.8937 146.6870 127.2760 O.2            1 RES1               0.0000
     10 N10        134.9180 145.4716 124.0298 N.am           1 RES1               0.0000
     11 O11        134.4685 143.2885 124.3220 O.2            1 RES1               0.0000
     12 C12        131.2897 145.0699 125.0188 C.3            1 RES1               0.0000
     13 C13        134.8393 142.2595 128.6647 C.ar           1 RES1               0.0000
     14 C14        136.2818 144.1550 128.7397 C.ar           1 RES1               0.0000
     15 C15        134.9674 146.7826 124.4182 C.2            1 RES1               0.0000
     16 C16        135.9274 142.9080 129.2088 C.ar           1 RES1               0.0000
     17 O17        135.5360 147.6469 123.7572 O.2            1 RES1               0.0000
     18 H18        132.2174 143.2070 125.5271 H              1 RES1               0.0000
     19 H19        131.7421 144.1940 126.9208 H              1 RES1               0.0000
     20 H20        133.2522 142.3321 127.2379 H              1 RES1               0.0000
     21 H21        135.8474 145.7358 127.3744 H              1 RES1               0.0000
     22 H22        134.4560 148.0442 125.9403 H              1 RES1               0.0000
     23 H23        135.3358 145.2432 123.1333 H              1 RES1               0.0000
     24 H24        130.2868 144.6505 124.9739 H              1 RES1               0.0000
     25 H25        131.2143 146.0892 125.3920 H              1 RES1               0.0000
     26 H26        131.6868 145.1080 124.0066 H              1 RES1               0.0000
     27 H27        134.5554 141.2786 129.0313 H              1 RES1               0.0000
     28 H28        137.1371 144.6693 129.1654 H              1 RES1               0.0000
     29 H29        136.5012 142.4399 130.0018 H              1 RES1               0.0000
@<TRIPOS>BOND
    1    1    2 1     
    2    1    3 1     
    3    1    4 1     
    4    1    5 1     
    5    2    6 ar    
    6    2    7 ar    
    7    3    8 1     
    8    3    9 2     
    9    4   10 1     
   10    4   11 2     
   11    5   12 1     
   12    5   18 1     
   13    5   19 1     
   14    6   13 ar    
   15    6   20 1     
   16    7   14 ar    
   17    7   21 1     
   18    8   15 1     
   19    8   22 1     
   20   10   15 1     
   21   10   23 1     
   22   12   24 1     
   23   12   25 1     
   24   12   26 1     
   25   13   16 ar    
   26   13   27 1     
   27   14   16 ar    
   28   14   28 1     
   29   15   17 2     
   30   16   29 1     
@<TRIPOS>SUBSTRUCTURE
      1 RES1           1
@<TRIPOS>SET
DONOR_HYDROGENS      STATIC     ATOMS    <user>   **** ""
2 22 23
ATOM$RED        STATIC     ATOMS    COLORGROUP SYSTEM
2 22 23
@<TRIPOS>COMMENT
> <Gold.Version>
2022.3.0

> <Gold.Id.Protein>
unknown|7rmi_cavity_clean|pdb

> <Gold.Protein.RotatedTorsions>
[ 7275 7267 7268 7269 ] final -124.09 input   86.30 | X-H torsion
[ 7259 7254 7253 7250 ] final -164.88 input   59.97 | X-H torsion
[ 3787 3780 3778 3775 ] final   26.31 input   60.01 | X-H torsion
[ 7241 7225 7224 7223 ] final   89.97 input   60.01 | X-H torsion
[ 7244 7226 7227 7228 ] final  -82.72 input   59.90 | X-H torsion
[ 7633 7625 7626 7627 ] final   45.59 input   88.29 | X-H torsion
[ 8107 8100 8094 8093 ] final   59.99 input   59.99 | X-H torsion
[ 14346 7229 7228 7227 ] final   23.52 input    0.00 | X-H torsion
[ 14355 7628 7627 7626 ] final   33.71 input    0.00 | X-H torsion

> <Gold.Protein.ActiveResidues>
 THR47   ARG48   ARG49   LYS280  SER281  LEU284  LEU286  CYS294  ASN295  VAL296 
 GLY306  VAL307  LEU308  VAL320  GLY324  MET325  ALA326  VAL327  TRP339  ASN340 
 ASP48   PRO49   LEU50  

> <Gold.Protein.RotatedAtoms>
  128.7162  152.6630  149.9070 H   0  0  0  0  0  0  0  0  0  0  0  0  # atno 3787 bound_to 3780
  134.6186  165.5551  170.6824 H   0  0  0  0  0  0  0  0  0  0  0  0  # atno 7241 bound_to 7225
  133.5981  165.2412  171.9502 H   0  0  0  0  0  0  0  0  0  0  0  0  # atno 7242 bound_to 7225
  134.1884  163.9935  171.0322 H   0  0  0  0  0  0  0  0  0  0  0  0  # atno 7243 bound_to 7225
  123.9766  135.1119   86.7322 H   0  0  0  0  0  0  0  0  0  0  0  0  # atno 7244 bound_to 7226
  125.2336  162.6668  167.4859 H   0  0  0  0  0  0  0  0  0  0  0  0  # atno 7259 bound_to 7254
  123.2693  158.0888  167.8285 H   0  0  0  0  0  0  0  0  0  0  0  0  # atno 7275 bound_to 7267
  123.1172  125.1016  130.1428 H   0  0  0  0  0  0  0  0  0  0  0  0  # atno 7633 bound_to 7625
  127.5370  161.3050  155.7080 H   0  0  0  0  0  0  0  0  0  0  0  0  # atno 8107 bound_to 8100
  125.3867  161.4714  168.5798 LP  0  0  0  0  0  0  0  0  0  0  0  0  # atno 14309 bound_to 7254
  126.6146  161.8083  167.5574 LP  0  0  0  0  0  0  0  0  0  0  0  0  # atno 14310 bound_to 7254
  130.0169  151.7452  150.2438 LP  0  0  0  0  0  0  0  0  0  0  0  0  # atno 14331 bound_to 3780
  129.2180  151.5482  148.8332 LP  0  0  0  0  0  0  0  0  0  0  0  0  # atno 14332 bound_to 3780
  123.8622  133.3646   86.6974 LP  0  0  0  0  0  0  0  0  0  0  0  0  # atno 14345 bound_to 7226
  123.6547  135.1649   89.0504 LP  0  0  0  0  0  0  0  0  0  0  0  0  # atno 14346 bound_to 7229
  122.7744  134.5212   90.3961 LP  0  0  0  0  0  0  0  0  0  0  0  0  # atno 14347 bound_to 7229
  122.8905  123.4982  129.4893 LP  0  0  0  0  0  0  0  0  0  0  0  0  # atno 14354 bound_to 7625
  124.3700  122.4355  133.4345 LP  0  0  0  0  0  0  0  0  0  0  0  0  # atno 14355 bound_to 7628
  123.3277  123.5949  134.1891 LP  0  0  0  0  0  0  0  0  0  0  0  0  # atno 14356 bound_to 7628
  126.1565  160.7598  155.1919 LP  0  0  0  0  0  0  0  0  0  0  0  0  # atno 14361 bound_to 8100

> <Gold.Score>
     Fitness  S(hb_ext) S(vdw_ext)  S(hb_int)    S(int)      intcor
     26.92       0.00      20.06       0.00      -0.65      -0.76

> <Gold.Goldscore.Fitness>
26.9237

> <Gold.Goldscore.Internal.Vdw>
-0.7985

> <Gold.Goldscore.Internal.Torsion>
-0.6194

> <Gold.Goldscore.External.Vdw>
20.0558

> <Gold.Goldscore.Internal.HBond>
0.0000

> <Gold.Goldscore.External.HBond>
0.0000

> <Gold.Goldscore.Internal.Correction>
-0.7650

> <Gold.Goldscore.Internal.Vdw.Weighted>
-0.7985

> <Gold.Goldscore.Internal.Torsion.Weighted>
-0.6194

> <Gold.Goldscore.External.Vdw.Weighted>
27.5767

> <Gold.Goldscore.Internal.HBond.Weighted>
0.0000

> <Gold.Goldscore.External.HBond.Weighted>
0.0000

> <Gold.Goldscore.Internal.Correction.Weighted>
-0.7650

> <Gold.Rescore>
     Score     S(PLP)   S(hbond)     S(cho)   S(metal)  DE(clash)   DE(tors)     intcor
     28.13     -28.47       0.00       0.00       0.00       0.00       0.17       ----

> <Gold.PLP.Fitness>
28.1318

> <Gold.PLP.PLP>
-28.4742

> <Gold.PLP.part.hbond>
0.0000

> <Gold.PLP.part.metal>
0.0000

> <Gold.PLP.part.buried>
-3.1311

> <Gold.PLP.part.nonpolar>
-27.1422

> <Gold.PLP.part.repulsive>
1.0858

> <Gold.PLP.ligand.clash>
0.0000

> <Gold.PLP.ligand.torsion>
0.1712

> <Gold.PLP.Chemscore.Hbond>
0.0000

> <Gold.PLP.Chemscore.CHOScore>
0.0000

> <Gold.PLP.Chemscore.Metal>
0.0000

> <Gold.PLP.Chemscore.Internal.Correction>
   9.000000E+99

