#       Name:                CT1002167954
#       Creating user name   hitesit
#       Creation time:       Sun Apr 16 20:27:18 2023


#       File generated by GOLD software.
#

@<TRIPOS>MOLECULE
CT1002167954|ligand_prepared|mol2|1|dock3
    29    30     1
SMALL
NO_CHARGES


@<TRIPOS>ATOM
      1 C1         131.1842 145.9143 126.4431 C.3            1 RES1               0.0000
      2 C2         132.1315 144.7717 126.8624 C.ar           1 RES1               0.0000
      3 C3         129.7880 145.5032 126.9012 C.2            1 RES1               0.0000
      4 C4         131.7134 147.1759 127.1160 C.2            1 RES1               0.0000
      5 C5         131.1462 146.1664 124.9178 C.3            1 RES1               0.0000
      6 C6         132.1666 144.3283 128.1810 C.ar           1 RES1               0.0000
      7 C7         132.9727 144.1506 125.9430 C.ar           1 RES1               0.0000
      8 N8         129.2644 146.1441 127.9852 N.am           1 RES1               0.0000
      9 O9         129.1719 144.6029 126.3441 O.2            1 RES1               0.0000
     10 N10        130.9328 147.7684 128.0738 N.am           1 RES1               0.0000
     11 O11        132.8066 147.6528 126.8373 O.2            1 RES1               0.0000
     12 C12        130.1261 147.2115 124.4943 C.3            1 RES1               0.0000
     13 C13        133.0100 143.2992 128.5661 C.ar           1 RES1               0.0000
     14 C14        133.8154 143.1219 126.3302 C.ar           1 RES1               0.0000
     15 C15        129.7460 147.2923 128.5607 C.2            1 RES1               0.0000
     16 C16        133.8345 142.6951 127.6410 C.ar           1 RES1               0.0000
     17 O17        129.1288 147.8529 129.4619 O.2            1 RES1               0.0000
     18 H18        132.1412 146.4905 124.5886 H              1 RES1               0.0000
     19 H19        130.9160 145.2220 124.4093 H              1 RES1               0.0000
     20 H20        131.5267 144.7933 128.9235 H              1 RES1               0.0000
     21 H21        132.9753 144.4706 124.9065 H              1 RES1               0.0000
     22 H22        128.4385 145.7314 128.4069 H              1 RES1               0.0000
     23 H23        131.2674 148.6457 128.4595 H              1 RES1               0.0000
     24 H24        130.1407 147.3497 123.4152 H              1 RES1               0.0000
     25 H25        129.1216 146.9095 124.7836 H              1 RES1               0.0000
     26 H26        130.3395 148.1705 124.9618 H              1 RES1               0.0000
     27 H27        133.0222 142.9680 129.5992 H              1 RES1               0.0000
     28 H28        134.4631 142.6497 125.5989 H              1 RES1               0.0000
     29 H29        134.4948 141.8888 127.9428 H              1 RES1               0.0000
@<TRIPOS>BOND
    1    1    2 1     
    2    1    3 1     
    3    1    4 1     
    4    1    5 1     
    5    2    6 ar    
    6    2    7 ar    
    7    3    8 1     
    8    3    9 2     
    9    4   10 1     
   10    4   11 2     
   11    5   12 1     
   12    5   18 1     
   13    5   19 1     
   14    6   13 ar    
   15    6   20 1     
   16    7   14 ar    
   17    7   21 1     
   18    8   15 1     
   19    8   22 1     
   20   10   15 1     
   21   10   23 1     
   22   12   24 1     
   23   12   25 1     
   24   12   26 1     
   25   13   16 ar    
   26   13   27 1     
   27   14   16 ar    
   28   14   28 1     
   29   15   17 2     
   30   16   29 1     
@<TRIPOS>SUBSTRUCTURE
      1 RES1           1
@<TRIPOS>SET
DONOR_HYDROGENS      STATIC     ATOMS    <user>   **** ""
2 22 23
ATOM$RED        STATIC     ATOMS    COLORGROUP SYSTEM
2 22 23
@<TRIPOS>COMMENT
> <Gold.Version>
2022.3.0

> <Gold.Id.Protein>
unknown|7rmi_cavity_clean|pdb

> <Gold.Protein.RotatedTorsions>
[ 7275 7267 7268 7269 ] final -138.04 input   86.30 | X-H torsion
[ 7259 7254 7253 7250 ] final -162.91 input   59.97 | X-H torsion
[ 3787 3780 3778 3775 ] final  -58.91 input   60.01 | X-H torsion
[ 7241 7225 7224 7223 ] final  119.95 input   60.01 | X-H torsion
[ 7244 7226 7227 7228 ] final  -30.55 input   59.90 | X-H torsion
[ 7633 7625 7626 7627 ] final   85.92 input   88.29 | X-H torsion
[ 8107 8100 8094 8093 ] final   59.99 input   59.99 | X-H torsion
[ 14346 7229 7228 7227 ] final  -94.49 input    0.00 | X-H torsion
[ 14355 7628 7627 7626 ] final  121.19 input    0.00 | X-H torsion

> <Gold.Protein.ActiveResidues>
 THR47   ARG48   ARG49   LYS280  SER281  LEU284  LEU286  CYS294  ASN295  VAL296 
 GLY306  VAL307  LEU308  VAL320  GLY324  MET325  ALA326  VAL327  TRP339  ASN340 
 ASP48   PRO49   LEU50  

> <Gold.Protein.RotatedAtoms>
  129.7232  152.1573  150.4873 H   0  0  0  0  0  0  0  0  0  0  0  0  # atno 3787 bound_to 3780
  134.3837  165.8314  171.0192 H   0  0  0  0  0  0  0  0  0  0  0  0  # atno 7241 bound_to 7225
  133.5458  164.7489  171.9536 H   0  0  0  0  0  0  0  0  0  0  0  0  # atno 7242 bound_to 7225
  134.4758  164.2096  170.6918 H   0  0  0  0  0  0  0  0  0  0  0  0  # atno 7243 bound_to 7225
  124.1152  134.7437   87.4106 H   0  0  0  0  0  0  0  0  0  0  0  0  # atno 7244 bound_to 7226
  125.2582  162.6731  167.4659 H   0  0  0  0  0  0  0  0  0  0  0  0  # atno 7259 bound_to 7254
  123.2524  158.2298  167.6657 H   0  0  0  0  0  0  0  0  0  0  0  0  # atno 7275 bound_to 7267
  123.5043  125.0056  129.6843 H   0  0  0  0  0  0  0  0  0  0  0  0  # atno 7633 bound_to 7625
  127.5370  161.3050  155.7080 H   0  0  0  0  0  0  0  0  0  0  0  0  # atno 8107 bound_to 8100
  125.3593  161.4889  168.5779 LP  0  0  0  0  0  0  0  0  0  0  0  0  # atno 14309 bound_to 7254
  126.6172  161.7845  167.5794 LP  0  0  0  0  0  0  0  0  0  0  0  0  # atno 14310 bound_to 7254
  129.6660  151.3233  149.0913 LP  0  0  0  0  0  0  0  0  0  0  0  0  # atno 14331 bound_to 3780
  128.5550  152.4793  149.4014 LP  0  0  0  0  0  0  0  0  0  0  0  0  # atno 14332 bound_to 3780
  123.7286  133.7194   86.0436 LP  0  0  0  0  0  0  0  0  0  0  0  0  # atno 14345 bound_to 7226
  123.2820  133.9950   89.8851 LP  0  0  0  0  0  0  0  0  0  0  0  0  # atno 14346 bound_to 7229
  123.1471  135.6911   89.5614 LP  0  0  0  0  0  0  0  0  0  0  0  0  # atno 14347 bound_to 7229
  122.5108  123.5924  129.9392 LP  0  0  0  0  0  0  0  0  0  0  0  0  # atno 14354 bound_to 7625
  124.5493  123.3252  134.2157 LP  0  0  0  0  0  0  0  0  0  0  0  0  # atno 14355 bound_to 7628
  123.1483  122.7051  133.4079 LP  0  0  0  0  0  0  0  0  0  0  0  0  # atno 14356 bound_to 7628
  126.1565  160.7598  155.1919 LP  0  0  0  0  0  0  0  0  0  0  0  0  # atno 14361 bound_to 8100

> <Gold.Score>
     Fitness  S(hb_ext) S(vdw_ext)  S(hb_int)    S(int)      intcor
     24.74       0.00      18.04       0.00      -0.07      -0.76

> <Gold.Goldscore.Fitness>
24.7380

> <Gold.Goldscore.Internal.Vdw>
-0.4185

> <Gold.Goldscore.Internal.Torsion>
-0.4075

> <Gold.Goldscore.External.Vdw>
18.0403

> <Gold.Goldscore.Internal.HBond>
0.0000

> <Gold.Goldscore.External.HBond>
0.0000

> <Gold.Goldscore.Internal.Correction>
-0.7585

> <Gold.Goldscore.Internal.Vdw.Weighted>
-0.4185

> <Gold.Goldscore.Internal.Torsion.Weighted>
-0.4075

> <Gold.Goldscore.External.Vdw.Weighted>
24.8054

> <Gold.Goldscore.Internal.HBond.Weighted>
0.0000

> <Gold.Goldscore.External.HBond.Weighted>
0.0000

> <Gold.Goldscore.Internal.Correction.Weighted>
-0.7585

> <Gold.Rescore>
     Score     S(PLP)   S(hbond)     S(cho)   S(metal)  DE(clash)   DE(tors)     intcor
     26.71     -26.84       0.00       0.00       0.00       0.00       0.07       ----

> <Gold.PLP.Fitness>
26.7055

> <Gold.PLP.PLP>
-26.8380

> <Gold.PLP.part.hbond>
0.0000

> <Gold.PLP.part.metal>
0.0000

> <Gold.PLP.part.buried>
-2.1260

> <Gold.PLP.part.nonpolar>
-25.3983

> <Gold.PLP.part.repulsive>
0.0143

> <Gold.PLP.ligand.clash>
0.0000

> <Gold.PLP.ligand.torsion>
0.0662

> <Gold.PLP.Chemscore.Hbond>
0.0000

> <Gold.PLP.Chemscore.CHOScore>
0.0000

> <Gold.PLP.Chemscore.Metal>
0.0000

> <Gold.PLP.Chemscore.Internal.Correction>
   9.000000E+99

