#       Name:                GA Fitting Points
#       Creating user name   hitesit
#       Creation time:       Sun Apr 16 02:29:25 2023


#       Fitting Points Used by GA Software.
#

@<TRIPOS>MOLECULE
GA Fitting Points
  4192    0    0
SMALL
NO_CHARGES


@<TRIPOS>ATOM
      1 ****       273.2500 317.5000 -79.7500 Du        
      2 ****       273.5000 317.2500 -79.7500 Du        
      3 ****       273.5000 317.2500 -79.5000 Du        
      4 ****       273.5000 317.2500 -79.2500 Du        
      5 ****       273.5000 317.2500 -79.0000 Du        
      6 ****       273.5000 317.5000 -80.0000 Du        
      7 ****       273.5000 317.5000 -79.7500 Du        
      8 ****       273.5000 317.5000 -79.5000 Du        
      9 ****       273.5000 317.5000 -79.2500 Du        
     10 ****       273.5000 317.5000 -79.0000 Du        
     11 ****       273.5000 317.5000 -78.7500 Du        
     12 ****       273.5000 317.5000 -78.5000 Du        
     13 ****       273.5000 317.5000 -78.2500 Du        
     14 ****       273.5000 317.7500 -80.2500 Du        
     15 ****       273.5000 317.7500 -80.0000 Du        
     16 ****       273.5000 317.7500 -79.7500 Du        
     17 ****       273.5000 317.7500 -79.5000 Du        
     18 ****       273.7500 316.7500 -78.7500 Du        
     19 ****       273.7500 316.7500 -78.5000 Du        
     20 ****       273.7500 316.7500 -78.2500 Du        
     21 ****       273.7500 316.7500 -78.0000 Du        
     22 ****       273.7500 317.0000 -79.0000 Du        
     23 ****       273.7500 317.0000 -78.7500 Du        
     24 ****       273.7500 317.0000 -78.5000 Du        
     25 ****       273.7500 317.0000 -78.2500 Du        
     26 ****       273.7500 317.0000 -78.0000 Du        
     27 ****       273.7500 317.0000 -77.7500 Du        
     28 ****       273.7500 317.0000 -77.5000 Du        
     29 ****       273.7500 317.2500 -79.5000 Du        
     30 ****       273.7500 317.2500 -79.2500 Du        
     31 ****       273.7500 317.2500 -79.0000 Du        
     32 ****       273.7500 317.2500 -78.7500 Du        
     33 ****       273.7500 317.2500 -78.5000 Du        
     34 ****       273.7500 317.2500 -78.2500 Du        
     35 ****       273.7500 317.2500 -78.0000 Du        
     36 ****       273.7500 317.2500 -77.7500 Du        
     37 ****       273.7500 317.2500 -77.5000 Du        
     38 ****       273.7500 317.5000 -79.7500 Du        
     39 ****       273.7500 317.5000 -79.5000 Du        
     40 ****       273.7500 317.5000 -79.2500 Du        
     41 ****       273.7500 317.5000 -79.0000 Du        
     42 ****       273.7500 317.5000 -78.7500 Du        
     43 ****       273.7500 317.5000 -78.5000 Du        
     44 ****       273.7500 317.5000 -78.2500 Du        
     45 ****       273.7500 317.5000 -78.0000 Du        
     46 ****       273.7500 317.5000 -77.7500 Du        
     47 ****       273.7500 317.5000 -77.5000 Du        
     48 ****       273.7500 317.7500 -80.0000 Du        
     49 ****       273.7500 317.7500 -78.2500 Du        
     50 ****       273.7500 317.7500 -78.0000 Du        
     51 ****       273.7500 317.7500 -77.7500 Du        
     52 ****       273.7500 317.7500 -77.5000 Du        
     53 ****       274.0000 316.5000 -78.5000 Du        
     54 ****       274.0000 316.5000 -78.2500 Du        
     55 ****       274.0000 316.5000 -78.0000 Du        
     56 ****       274.0000 316.5000 -77.7500 Du        
     57 ****       274.0000 316.7500 -78.7500 Du        
     58 ****       274.0000 316.7500 -78.5000 Du        
     59 ****       274.0000 316.7500 -78.2500 Du        
     60 ****       274.0000 316.7500 -78.0000 Du        
     61 ****       274.0000 316.7500 -77.7500 Du        
     62 ****       274.0000 316.7500 -77.5000 Du        
     63 ****       274.0000 316.7500 -77.2500 Du        
     64 ****       274.0000 316.7500 -77.0000 Du        
     65 ****       274.0000 317.0000 -79.0000 Du        
     66 ****       274.0000 317.0000 -78.7500 Du        
     67 ****       274.0000 317.0000 -78.5000 Du        
     68 ****       274.0000 317.0000 -78.2500 Du        
     69 ****       274.0000 317.0000 -78.0000 Du        
     70 ****       274.0000 317.0000 -77.7500 Du        
     71 ****       274.0000 317.0000 -77.5000 Du        
     72 ****       274.0000 317.0000 -77.2500 Du        
     73 ****       274.0000 317.0000 -77.0000 Du        
     74 ****       274.0000 317.0000 -76.7500 Du        
     75 ****       274.0000 317.2500 -79.2500 Du        
     76 ****       274.0000 317.2500 -79.0000 Du        
     77 ****       274.0000 317.2500 -78.7500 Du        
     78 ****       274.0000 317.2500 -78.5000 Du        
     79 ****       274.0000 317.2500 -78.2500 Du        
     80 ****       274.0000 317.2500 -78.0000 Du        
     81 ****       274.0000 317.2500 -77.7500 Du        
     82 ****       274.0000 317.2500 -77.5000 Du        
     83 ****       274.0000 317.2500 -77.2500 Du        
     84 ****       274.0000 317.2500 -77.0000 Du        
     85 ****       274.0000 317.2500 -76.7500 Du        
     86 ****       274.0000 317.5000 -79.5000 Du        
     87 ****       274.0000 317.5000 -79.2500 Du        
     88 ****       274.0000 317.5000 -79.0000 Du        
     89 ****       274.0000 317.5000 -78.7500 Du        
     90 ****       274.0000 317.5000 -78.5000 Du        
     91 ****       274.0000 317.5000 -78.2500 Du        
     92 ****       274.0000 317.5000 -78.0000 Du        
     93 ****       274.0000 317.5000 -77.7500 Du        
     94 ****       274.0000 317.5000 -77.5000 Du        
     95 ****       274.0000 317.5000 -77.2500 Du        
     96 ****       274.0000 317.5000 -77.0000 Du        
     97 ****       274.0000 317.7500 -78.2500 Du        
     98 ****       274.0000 317.7500 -78.0000 Du        
     99 ****       274.0000 317.7500 -77.7500 Du        
    100 ****       274.0000 317.7500 -77.5000 Du        
    101 ****       274.0000 317.7500 -77.2500 Du        
    102 ****       274.2500 316.2500 -78.2500 Du        
    103 ****       274.2500 316.2500 -78.0000 Du        
    104 ****       274.2500 316.5000 -78.5000 Du        
    105 ****       274.2500 316.5000 -78.2500 Du        
    106 ****       274.2500 316.5000 -78.0000 Du        
    107 ****       274.2500 316.5000 -77.7500 Du        
    108 ****       274.2500 316.5000 -77.5000 Du        
    109 ****       274.2500 316.5000 -77.2500 Du        
    110 ****       274.2500 316.7500 -78.7500 Du        
    111 ****       274.2500 316.7500 -78.5000 Du        
    112 ****       274.2500 316.7500 -78.2500 Du        
    113 ****       274.2500 316.7500 -78.0000 Du        
    114 ****       274.2500 316.7500 -77.7500 Du        
    115 ****       274.2500 316.7500 -77.5000 Du        
    116 ****       274.2500 316.7500 -77.2500 Du        
    117 ****       274.2500 316.7500 -77.0000 Du        
    118 ****       274.2500 316.7500 -76.7500 Du        
    119 ****       274.2500 316.7500 -76.5000 Du        
    120 ****       274.2500 317.0000 -79.0000 Du        
    121 ****       274.2500 317.0000 -78.7500 Du        
    122 ****       274.2500 317.0000 -78.5000 Du        
    123 ****       274.2500 317.0000 -78.2500 Du        
    124 ****       274.2500 317.0000 -78.0000 Du        
    125 ****       274.2500 317.0000 -77.7500 Du        
    126 ****       274.2500 317.0000 -77.5000 Du        
    127 ****       274.2500 317.0000 -77.2500 Du        
    128 ****       274.2500 317.0000 -77.0000 Du        
    129 ****       274.2500 317.0000 -76.7500 Du        
    130 ****       274.2500 317.0000 -76.5000 Du        
    131 ****       274.2500 317.0000 -76.2500 Du        
    132 ****       274.2500 317.0000 -76.0000 Du        
    133 ****       274.2500 317.2500 -79.0000 Du        
    134 ****       274.2500 317.2500 -78.7500 Du        
    135 ****       274.2500 317.2500 -78.5000 Du        
    136 ****       274.2500 317.2500 -78.2500 Du        
    137 ****       274.2500 317.2500 -78.0000 Du        
    138 ****       274.2500 317.2500 -77.7500 Du        
    139 ****       274.2500 317.2500 -77.5000 Du        
    140 ****       274.2500 317.2500 -77.2500 Du        
    141 ****       274.2500 317.2500 -77.0000 Du        
    142 ****       274.2500 317.2500 -76.7500 Du        
    143 ****       274.2500 317.2500 -76.5000 Du        
    144 ****       274.2500 317.2500 -76.2500 Du        
    145 ****       274.2500 317.5000 -79.2500 Du        
    146 ****       274.2500 317.5000 -79.0000 Du        
    147 ****       274.2500 317.5000 -78.7500 Du        
    148 ****       274.2500 317.5000 -78.5000 Du        
    149 ****       274.2500 317.5000 -78.2500 Du        
    150 ****       274.2500 317.5000 -78.0000 Du        
    151 ****       274.2500 317.5000 -77.7500 Du        
    152 ****       274.2500 317.5000 -77.5000 Du        
    153 ****       274.2500 317.5000 -77.2500 Du        
    154 ****       274.2500 317.5000 -77.0000 Du        
    155 ****       274.2500 317.5000 -76.7500 Du        
    156 ****       274.2500 317.7500 -78.2500 Du        
    157 ****       274.2500 317.7500 -78.0000 Du        
    158 ****       274.2500 317.7500 -77.7500 Du        
    159 ****       274.2500 317.7500 -77.5000 Du        
    160 ****       274.2500 317.7500 -77.2500 Du        
    161 ****       274.2500 318.2500 -81.5000 Du        
    162 ****       274.2500 318.2500 -81.2500 Du        
    163 ****       274.2500 318.5000 -82.2500 Du        
    164 ****       274.2500 318.5000 -82.0000 Du        
    165 ****       274.2500 318.5000 -81.7500 Du        
    166 ****       274.2500 318.5000 -81.5000 Du        
    167 ****       274.2500 318.5000 -81.2500 Du        
    168 ****       274.2500 318.7500 -82.2500 Du        
    169 ****       274.2500 318.7500 -82.0000 Du        
    170 ****       274.2500 318.7500 -81.7500 Du        
    171 ****       274.2500 318.7500 -81.5000 Du        
    172 ****       274.2500 319.0000 -82.0000 Du        
    173 ****       274.2500 319.0000 -81.7500 Du        
    174 ****       274.5000 316.5000 -78.2500 Du        
    175 ****       274.5000 316.5000 -78.0000 Du        
    176 ****       274.5000 316.5000 -77.7500 Du        
    177 ****       274.5000 316.5000 -77.5000 Du        
    178 ****       274.5000 316.5000 -77.2500 Du        
    179 ****       274.5000 316.5000 -75.0000 Du        
    180 ****       274.5000 316.7500 -78.5000 Du        
    181 ****       274.5000 316.7500 -78.2500 Du        
    182 ****       274.5000 316.7500 -78.0000 Du        
    183 ****       274.5000 316.7500 -77.7500 Du        
    184 ****       274.5000 316.7500 -77.5000 Du        
    185 ****       274.5000 316.7500 -77.2500 Du        
    186 ****       274.5000 316.7500 -77.0000 Du        
    187 ****       274.5000 316.7500 -76.7500 Du        
    188 ****       274.5000 316.7500 -76.5000 Du        
    189 ****       274.5000 316.7500 -76.2500 Du        
    190 ****       274.5000 316.7500 -76.0000 Du        
    191 ****       274.5000 316.7500 -75.7500 Du        
    192 ****       274.5000 316.7500 -75.5000 Du        
    193 ****       274.5000 316.7500 -75.2500 Du        
    194 ****       274.5000 316.7500 -75.0000 Du        
    195 ****       274.5000 316.7500 -74.7500 Du        
    196 ****       274.5000 317.0000 -78.7500 Du        
    197 ****       274.5000 317.0000 -78.5000 Du        
    198 ****       274.5000 317.0000 -78.2500 Du        
    199 ****       274.5000 317.0000 -78.0000 Du        
    200 ****       274.5000 317.0000 -77.7500 Du        
    201 ****       274.5000 317.0000 -77.5000 Du        
    202 ****       274.5000 317.0000 -77.2500 Du        
    203 ****       274.5000 317.0000 -77.0000 Du        
    204 ****       274.5000 317.0000 -76.7500 Du        
    205 ****       274.5000 317.0000 -76.5000 Du        
    206 ****       274.5000 317.0000 -76.2500 Du        
    207 ****       274.5000 317.0000 -76.0000 Du        
    208 ****       274.5000 317.0000 -75.7500 Du        
    209 ****       274.5000 317.0000 -75.5000 Du        
    210 ****       274.5000 317.0000 -75.2500 Du        
    211 ****       274.5000 317.0000 -75.0000 Du        
    212 ****       274.5000 317.2500 -79.0000 Du        
    213 ****       274.5000 317.2500 -78.7500 Du        
    214 ****       274.5000 317.2500 -78.5000 Du        
    215 ****       274.5000 317.2500 -78.2500 Du        
    216 ****       274.5000 317.2500 -78.0000 Du        
    217 ****       274.5000 317.2500 -77.7500 Du        
    218 ****       274.5000 317.2500 -77.5000 Du        
    219 ****       274.5000 317.2500 -77.2500 Du        
    220 ****       274.5000 317.2500 -77.0000 Du        
    221 ****       274.5000 317.2500 -76.7500 Du        
    222 ****       274.5000 317.2500 -76.5000 Du        
    223 ****       274.5000 317.2500 -76.2500 Du        
    224 ****       274.5000 317.2500 -76.0000 Du        
    225 ****       274.5000 317.2500 -75.7500 Du        
    226 ****       274.5000 317.5000 -79.0000 Du        
    227 ****       274.5000 317.5000 -78.7500 Du        
    228 ****       274.5000 317.5000 -78.5000 Du        
    229 ****       274.5000 317.5000 -78.2500 Du        
    230 ****       274.5000 317.5000 -78.0000 Du        
    231 ****       274.5000 317.5000 -77.7500 Du        
    232 ****       274.5000 317.5000 -77.5000 Du        
    233 ****       274.5000 317.5000 -77.2500 Du        
    234 ****       274.5000 317.5000 -77.0000 Du        
    235 ****       274.5000 317.5000 -76.7500 Du        
    236 ****       274.5000 317.5000 -76.5000 Du        
    237 ****       274.5000 317.7500 -78.0000 Du        
    238 ****       274.5000 317.7500 -77.7500 Du        
    239 ****       274.5000 317.7500 -77.5000 Du        
    240 ****       274.5000 317.7500 -77.2500 Du        
    241 ****       274.5000 317.7500 -77.0000 Du        
    242 ****       274.5000 318.5000 -82.2500 Du        
    243 ****       274.5000 318.5000 -82.0000 Du        
    244 ****       274.5000 318.5000 -81.7500 Du        
    245 ****       274.5000 318.5000 -81.5000 Du        
    246 ****       274.5000 318.5000 -81.2500 Du        
    247 ****       274.5000 318.7500 -82.2500 Du        
    248 ****       274.5000 318.7500 -82.0000 Du        
    249 ****       274.5000 318.7500 -81.7500 Du        
    250 ****       274.5000 318.7500 -81.5000 Du        
    251 ****       274.5000 318.7500 -81.2500 Du        
    252 ****       274.5000 319.0000 -82.2500 Du        
    253 ****       274.5000 319.0000 -82.0000 Du        
    254 ****       274.5000 319.0000 -81.7500 Du        
    255 ****       274.5000 319.0000 -81.5000 Du        
    256 ****       274.5000 319.2500 -82.2500 Du        
    257 ****       274.5000 319.2500 -82.0000 Du        
    258 ****       274.5000 319.2500 -81.7500 Du        
    259 ****       274.5000 319.5000 -82.2500 Du        
    260 ****       274.5000 319.5000 -82.0000 Du        
    261 ****       274.7500 316.5000 -78.2500 Du        
    262 ****       274.7500 316.5000 -78.0000 Du        
    263 ****       274.7500 316.5000 -77.7500 Du        
    264 ****       274.7500 316.5000 -77.5000 Du        
    265 ****       274.7500 316.5000 -75.7500 Du        
    266 ****       274.7500 316.5000 -75.5000 Du        
    267 ****       274.7500 316.5000 -75.2500 Du        
    268 ****       274.7500 316.5000 -75.0000 Du        
    269 ****       274.7500 316.5000 -74.7500 Du        
    270 ****       274.7500 316.7500 -78.5000 Du        
    271 ****       274.7500 316.7500 -78.2500 Du        
    272 ****       274.7500 316.7500 -78.0000 Du        
    273 ****       274.7500 316.7500 -77.7500 Du        
    274 ****       274.7500 316.7500 -77.5000 Du        
    275 ****       274.7500 316.7500 -77.2500 Du        
    276 ****       274.7500 316.7500 -77.0000 Du        
    277 ****       274.7500 316.7500 -76.7500 Du        
    278 ****       274.7500 316.7500 -76.5000 Du        
    279 ****       274.7500 316.7500 -76.2500 Du        
    280 ****       274.7500 316.7500 -76.0000 Du        
    281 ****       274.7500 316.7500 -75.7500 Du        
    282 ****       274.7500 316.7500 -75.5000 Du        
    283 ****       274.7500 316.7500 -75.2500 Du        
    284 ****       274.7500 316.7500 -75.0000 Du        
    285 ****       274.7500 316.7500 -74.7500 Du        
    286 ****       274.7500 316.7500 -74.5000 Du        
    287 ****       274.7500 317.0000 -78.7500 Du        
    288 ****       274.7500 317.0000 -78.5000 Du        
    289 ****       274.7500 317.0000 -78.2500 Du        
    290 ****       274.7500 317.0000 -78.0000 Du        
    291 ****       274.7500 317.0000 -77.7500 Du        
    292 ****       274.7500 317.0000 -77.5000 Du        
    293 ****       274.7500 317.0000 -77.2500 Du        
    294 ****       274.7500 317.0000 -77.0000 Du        
    295 ****       274.7500 317.0000 -76.7500 Du        
    296 ****       274.7500 317.0000 -76.5000 Du        
    297 ****       274.7500 317.0000 -76.2500 Du        
    298 ****       274.7500 317.0000 -76.0000 Du        
    299 ****       274.7500 317.0000 -75.7500 Du        
    300 ****       274.7500 317.0000 -75.5000 Du        
    301 ****       274.7500 317.0000 -75.2500 Du        
    302 ****       274.7500 317.0000 -75.0000 Du        
    303 ****       274.7500 317.0000 -74.7500 Du        
    304 ****       274.7500 317.2500 -78.7500 Du        
    305 ****       274.7500 317.2500 -78.5000 Du        
    306 ****       274.7500 317.2500 -78.2500 Du        
    307 ****       274.7500 317.2500 -78.0000 Du        
    308 ****       274.7500 317.2500 -77.7500 Du        
    309 ****       274.7500 317.2500 -77.5000 Du        
    310 ****       274.7500 317.2500 -77.2500 Du        
    311 ****       274.7500 317.2500 -77.0000 Du        
    312 ****       274.7500 317.2500 -76.7500 Du        
    313 ****       274.7500 317.2500 -76.5000 Du        
    314 ****       274.7500 317.2500 -76.2500 Du        
    315 ****       274.7500 317.2500 -76.0000 Du        
    316 ****       274.7500 317.2500 -75.7500 Du        
    317 ****       274.7500 317.2500 -75.5000 Du        
    318 ****       274.7500 317.2500 -75.2500 Du        
    319 ****       274.7500 317.2500 -75.0000 Du        
    320 ****       274.7500 317.5000 -79.0000 Du        
    321 ****       274.7500 317.5000 -78.7500 Du        
    322 ****       274.7500 317.5000 -78.5000 Du        
    323 ****       274.7500 317.5000 -78.2500 Du        
    324 ****       274.7500 317.5000 -78.0000 Du        
    325 ****       274.7500 317.5000 -77.7500 Du        
    326 ****       274.7500 317.5000 -77.5000 Du        
    327 ****       274.7500 317.5000 -77.2500 Du        
    328 ****       274.7500 317.5000 -77.0000 Du        
    329 ****       274.7500 317.5000 -76.7500 Du        
    330 ****       274.7500 317.5000 -76.5000 Du        
    331 ****       274.7500 317.5000 -76.2500 Du        
    332 ****       274.7500 317.7500 -78.0000 Du        
    333 ****       274.7500 317.7500 -77.7500 Du        
    334 ****       274.7500 317.7500 -77.5000 Du        
    335 ****       274.7500 317.7500 -77.2500 Du        
    336 ****       274.7500 317.7500 -77.0000 Du        
    337 ****       274.7500 318.5000 -82.2500 Du        
    338 ****       274.7500 318.5000 -82.0000 Du        
    339 ****       274.7500 318.5000 -81.7500 Du        
    340 ****       274.7500 318.5000 -81.5000 Du        
    341 ****       274.7500 318.5000 -81.2500 Du        
    342 ****       274.7500 318.7500 -82.2500 Du        
    343 ****       274.7500 318.7500 -82.0000 Du        
    344 ****       274.7500 318.7500 -81.7500 Du        
    345 ****       274.7500 318.7500 -81.5000 Du        
    346 ****       274.7500 318.7500 -81.2500 Du        
    347 ****       274.7500 319.0000 -82.2500 Du        
    348 ****       274.7500 319.0000 -82.0000 Du        
    349 ****       274.7500 319.0000 -81.7500 Du        
    350 ****       274.7500 319.0000 -81.5000 Du        
    351 ****       274.7500 319.2500 -82.2500 Du        
    352 ****       274.7500 319.2500 -82.0000 Du        
    353 ****       274.7500 319.2500 -81.7500 Du        
    354 ****       274.7500 319.5000 -82.2500 Du        
    355 ****       274.7500 319.5000 -82.0000 Du        
    356 ****       274.7500 319.5000 -81.7500 Du        
    357 ****       274.7500 319.7500 -82.2500 Du        
    358 ****       274.7500 319.7500 -82.0000 Du        
    359 ****       274.7500 320.0000 -82.2500 Du        
    360 ****       275.0000 316.5000 -78.0000 Du        
    361 ****       275.0000 316.5000 -77.7500 Du        
    362 ****       275.0000 316.5000 -76.0000 Du        
    363 ****       275.0000 316.5000 -75.7500 Du        
    364 ****       275.0000 316.5000 -75.5000 Du        
    365 ****       275.0000 316.5000 -75.2500 Du        
    366 ****       275.0000 316.5000 -75.0000 Du        
    367 ****       275.0000 316.5000 -74.7500 Du        
    368 ****       275.0000 316.7500 -78.5000 Du        
    369 ****       275.0000 316.7500 -78.2500 Du        
    370 ****       275.0000 316.7500 -78.0000 Du        
    371 ****       275.0000 316.7500 -77.7500 Du        
    372 ****       275.0000 316.7500 -77.5000 Du        
    373 ****       275.0000 316.7500 -77.2500 Du        
    374 ****       275.0000 316.7500 -77.0000 Du        
    375 ****       275.0000 316.7500 -76.7500 Du        
    376 ****       275.0000 316.7500 -76.5000 Du        
    377 ****       275.0000 316.7500 -76.2500 Du        
    378 ****       275.0000 316.7500 -76.0000 Du        
    379 ****       275.0000 316.7500 -75.7500 Du        
    380 ****       275.0000 316.7500 -75.5000 Du        
    381 ****       275.0000 316.7500 -75.2500 Du        
    382 ****       275.0000 316.7500 -75.0000 Du        
    383 ****       275.0000 316.7500 -74.7500 Du        
    384 ****       275.0000 316.7500 -74.5000 Du        
    385 ****       275.0000 317.0000 -78.5000 Du        
    386 ****       275.0000 317.0000 -78.2500 Du        
    387 ****       275.0000 317.0000 -78.0000 Du        
    388 ****       275.0000 317.0000 -77.7500 Du        
    389 ****       275.0000 317.0000 -77.5000 Du        
    390 ****       275.0000 317.0000 -77.2500 Du        
    391 ****       275.0000 317.0000 -77.0000 Du        
    392 ****       275.0000 317.0000 -76.7500 Du        
    393 ****       275.0000 317.0000 -76.5000 Du        
    394 ****       275.0000 317.0000 -76.2500 Du        
    395 ****       275.0000 317.0000 -76.0000 Du        
    396 ****       275.0000 317.0000 -75.7500 Du        
    397 ****       275.0000 317.0000 -75.5000 Du        
    398 ****       275.0000 317.0000 -75.2500 Du        
    399 ****       275.0000 317.0000 -75.0000 Du        
    400 ****       275.0000 317.0000 -74.7500 Du        
    401 ****       275.0000 317.0000 -74.5000 Du        
    402 ****       275.0000 317.2500 -78.7500 Du        
    403 ****       275.0000 317.2500 -78.5000 Du        
    404 ****       275.0000 317.2500 -78.2500 Du        
    405 ****       275.0000 317.2500 -78.0000 Du        
    406 ****       275.0000 317.2500 -77.7500 Du        
    407 ****       275.0000 317.2500 -77.5000 Du        
    408 ****       275.0000 317.2500 -77.2500 Du        
    409 ****       275.0000 317.2500 -77.0000 Du        
    410 ****       275.0000 317.2500 -76.7500 Du        
    411 ****       275.0000 317.2500 -76.5000 Du        
    412 ****       275.0000 317.2500 -76.2500 Du        
    413 ****       275.0000 317.2500 -76.0000 Du        
    414 ****       275.0000 317.2500 -75.7500 Du        
    415 ****       275.0000 317.2500 -75.5000 Du        
    416 ****       275.0000 317.2500 -75.2500 Du        
    417 ****       275.0000 317.2500 -75.0000 Du        
    418 ****       275.0000 317.2500 -74.7500 Du        
    419 ****       275.0000 317.5000 -78.7500 Du        
    420 ****       275.0000 317.5000 -78.5000 Du        
    421 ****       275.0000 317.5000 -78.2500 Du        
    422 ****       275.0000 317.5000 -78.0000 Du        
    423 ****       275.0000 317.5000 -77.7500 Du        
    424 ****       275.0000 317.5000 -77.5000 Du        
    425 ****       275.0000 317.5000 -77.2500 Du        
    426 ****       275.0000 317.5000 -77.0000 Du        
    427 ****       275.0000 317.5000 -76.7500 Du        
    428 ****       275.0000 317.5000 -76.5000 Du        
    429 ****       275.0000 317.5000 -76.2500 Du        
    430 ****       275.0000 317.5000 -76.0000 Du        
    431 ****       275.0000 317.5000 -75.7500 Du        
    432 ****       275.0000 317.7500 -78.0000 Du        
    433 ****       275.0000 317.7500 -77.7500 Du        
    434 ****       275.0000 317.7500 -77.5000 Du        
    435 ****       275.0000 317.7500 -77.2500 Du        
    436 ****       275.0000 317.7500 -77.0000 Du        
    437 ****       275.0000 317.7500 -76.7500 Du        
    438 ****       275.0000 318.5000 -82.0000 Du        
    439 ****       275.0000 318.5000 -81.7500 Du        
    440 ****       275.0000 318.5000 -81.5000 Du        
    441 ****       275.0000 318.5000 -81.2500 Du        
    442 ****       275.0000 318.7500 -82.7500 Du        
    443 ****       275.0000 318.7500 -82.5000 Du        
    444 ****       275.0000 318.7500 -82.2500 Du        
    445 ****       275.0000 318.7500 -82.0000 Du        
    446 ****       275.0000 318.7500 -81.7500 Du        
    447 ****       275.0000 318.7500 -81.5000 Du        
    448 ****       275.0000 318.7500 -81.2500 Du        
    449 ****       275.0000 319.0000 -82.7500 Du        
    450 ****       275.0000 319.0000 -82.5000 Du        
    451 ****       275.0000 319.0000 -82.2500 Du        
    452 ****       275.0000 319.0000 -82.0000 Du        
    453 ****       275.0000 319.0000 -81.7500 Du        
    454 ****       275.0000 319.0000 -81.5000 Du        
    455 ****       275.0000 319.2500 -82.7500 Du        
    456 ****       275.0000 319.2500 -82.5000 Du        
    457 ****       275.0000 319.2500 -82.2500 Du        
    458 ****       275.0000 319.2500 -82.0000 Du        
    459 ****       275.0000 319.2500 -81.7500 Du        
    460 ****       275.0000 319.5000 -82.2500 Du        
    461 ****       275.0000 319.5000 -82.0000 Du        
    462 ****       275.0000 319.5000 -81.7500 Du        
    463 ****       275.0000 319.7500 -82.2500 Du        
    464 ****       275.0000 319.7500 -82.0000 Du        
    465 ****       275.0000 320.0000 -82.2500 Du        
    466 ****       275.0000 320.2500 -82.2500 Du        
    467 ****       275.2500 316.5000 -75.7500 Du        
    468 ****       275.2500 316.5000 -75.5000 Du        
    469 ****       275.2500 316.5000 -75.2500 Du        
    470 ****       275.2500 316.5000 -75.0000 Du        
    471 ****       275.2500 316.5000 -74.7500 Du        
    472 ****       275.2500 316.7500 -78.2500 Du        
    473 ****       275.2500 316.7500 -78.0000 Du        
    474 ****       275.2500 316.7500 -77.7500 Du        
    475 ****       275.2500 316.7500 -77.5000 Du        
    476 ****       275.2500 316.7500 -77.2500 Du        
    477 ****       275.2500 316.7500 -77.0000 Du        
    478 ****       275.2500 316.7500 -76.7500 Du        
    479 ****       275.2500 316.7500 -76.5000 Du        
    480 ****       275.2500 316.7500 -76.2500 Du        
    481 ****       275.2500 316.7500 -76.0000 Du        
    482 ****       275.2500 316.7500 -75.7500 Du        
    483 ****       275.2500 316.7500 -75.5000 Du        
    484 ****       275.2500 316.7500 -75.2500 Du        
    485 ****       275.2500 316.7500 -75.0000 Du        
    486 ****       275.2500 316.7500 -74.7500 Du        
    487 ****       275.2500 316.7500 -74.5000 Du        
    488 ****       275.2500 317.0000 -78.5000 Du        
    489 ****       275.2500 317.0000 -78.2500 Du        
    490 ****       275.2500 317.0000 -78.0000 Du        
    491 ****       275.2500 317.0000 -77.7500 Du        
    492 ****       275.2500 317.0000 -77.5000 Du        
    493 ****       275.2500 317.0000 -77.2500 Du        
    494 ****       275.2500 317.0000 -77.0000 Du        
    495 ****       275.2500 317.0000 -76.7500 Du        
    496 ****       275.2500 317.0000 -76.5000 Du        
    497 ****       275.2500 317.0000 -76.2500 Du        
    498 ****       275.2500 317.0000 -76.0000 Du        
    499 ****       275.2500 317.0000 -75.7500 Du        
    500 ****       275.2500 317.0000 -75.5000 Du        
    501 ****       275.2500 317.0000 -75.2500 Du        
    502 ****       275.2500 317.0000 -75.0000 Du        
    503 ****       275.2500 317.0000 -74.7500 Du        
    504 ****       275.2500 317.0000 -74.5000 Du        
    505 ****       275.2500 317.2500 -78.7500 Du        
    506 ****       275.2500 317.2500 -78.5000 Du        
    507 ****       275.2500 317.2500 -78.2500 Du        
    508 ****       275.2500 317.2500 -78.0000 Du        
    509 ****       275.2500 317.2500 -77.7500 Du        
    510 ****       275.2500 317.2500 -77.5000 Du        
    511 ****       275.2500 317.2500 -77.2500 Du        
    512 ****       275.2500 317.2500 -77.0000 Du        
    513 ****       275.2500 317.2500 -76.7500 Du        
    514 ****       275.2500 317.2500 -76.5000 Du        
    515 ****       275.2500 317.2500 -76.2500 Du        
    516 ****       275.2500 317.2500 -76.0000 Du        
    517 ****       275.2500 317.2500 -75.7500 Du        
    518 ****       275.2500 317.2500 -75.5000 Du        
    519 ****       275.2500 317.2500 -75.2500 Du        
    520 ****       275.2500 317.2500 -75.0000 Du        
    521 ****       275.2500 317.2500 -74.7500 Du        
    522 ****       275.2500 317.5000 -78.5000 Du        
    523 ****       275.2500 317.5000 -78.2500 Du        
    524 ****       275.2500 317.5000 -78.0000 Du        
    525 ****       275.2500 317.5000 -77.7500 Du        
    526 ****       275.2500 317.5000 -77.5000 Du        
    527 ****       275.2500 317.5000 -77.2500 Du        
    528 ****       275.2500 317.5000 -77.0000 Du        
    529 ****       275.2500 317.5000 -76.7500 Du        
    530 ****       275.2500 317.5000 -76.5000 Du        
    531 ****       275.2500 317.5000 -76.2500 Du        
    532 ****       275.2500 317.5000 -76.0000 Du        
    533 ****       275.2500 317.5000 -75.7500 Du        
    534 ****       275.2500 317.5000 -75.5000 Du        
    535 ****       275.2500 317.5000 -75.2500 Du        
    536 ****       275.2500 317.5000 -75.0000 Du        
    537 ****       275.2500 317.5000 -74.7500 Du        
    538 ****       275.2500 317.7500 -77.7500 Du        
    539 ****       275.2500 317.7500 -77.5000 Du        
    540 ****       275.2500 317.7500 -77.2500 Du        
    541 ****       275.2500 317.7500 -77.0000 Du        
    542 ****       275.2500 317.7500 -76.7500 Du        
    543 ****       275.2500 317.7500 -76.5000 Du        
    544 ****       275.2500 318.7500 -82.7500 Du        
    545 ****       275.2500 318.7500 -82.5000 Du        
    546 ****       275.2500 318.7500 -82.2500 Du        
    547 ****       275.2500 318.7500 -82.0000 Du        
    548 ****       275.2500 318.7500 -81.7500 Du        
    549 ****       275.2500 318.7500 -81.5000 Du        
    550 ****       275.2500 318.7500 -81.2500 Du        
    551 ****       275.2500 319.0000 -82.7500 Du        
    552 ****       275.2500 319.0000 -82.5000 Du        
    553 ****       275.2500 319.0000 -82.2500 Du        
    554 ****       275.2500 319.0000 -82.0000 Du        
    555 ****       275.2500 319.0000 -81.7500 Du        
    556 ****       275.2500 319.0000 -81.5000 Du        
    557 ****       275.2500 319.2500 -82.7500 Du        
    558 ****       275.2500 319.2500 -82.5000 Du        
    559 ****       275.2500 319.2500 -82.2500 Du        
    560 ****       275.2500 319.2500 -82.0000 Du        
    561 ****       275.2500 319.2500 -81.7500 Du        
    562 ****       275.2500 319.5000 -82.2500 Du        
    563 ****       275.2500 319.5000 -82.0000 Du        
    564 ****       275.2500 319.7500 -82.2500 Du        
    565 ****       275.2500 319.7500 -82.0000 Du        
    566 ****       275.2500 320.0000 -82.2500 Du        
    567 ****       275.5000 316.5000 -75.5000 Du        
    568 ****       275.5000 316.5000 -75.2500 Du        
    569 ****       275.5000 316.5000 -75.0000 Du        
    570 ****       275.5000 316.5000 -74.7500 Du        
    571 ****       275.5000 316.7500 -78.2500 Du        
    572 ****       275.5000 316.7500 -78.0000 Du        
    573 ****       275.5000 316.7500 -77.7500 Du        
    574 ****       275.5000 316.7500 -77.5000 Du        
    575 ****       275.5000 316.7500 -77.2500 Du        
    576 ****       275.5000 316.7500 -77.0000 Du        
    577 ****       275.5000 316.7500 -76.7500 Du        
    578 ****       275.5000 316.7500 -76.5000 Du        
    579 ****       275.5000 316.7500 -76.2500 Du        
    580 ****       275.5000 316.7500 -76.0000 Du        
    581 ****       275.5000 316.7500 -75.7500 Du        
    582 ****       275.5000 316.7500 -75.5000 Du        
    583 ****       275.5000 316.7500 -75.2500 Du        
    584 ****       275.5000 316.7500 -75.0000 Du        
    585 ****       275.5000 316.7500 -74.7500 Du        
    586 ****       275.5000 317.0000 -78.5000 Du        
    587 ****       275.5000 317.0000 -78.2500 Du        
    588 ****       275.5000 317.0000 -78.0000 Du        
    589 ****       275.5000 317.0000 -77.7500 Du        
    590 ****       275.5000 317.0000 -77.5000 Du        
    591 ****       275.5000 317.0000 -77.2500 Du        
    592 ****       275.5000 317.0000 -77.0000 Du        
    593 ****       275.5000 317.0000 -76.7500 Du        
    594 ****       275.5000 317.0000 -76.5000 Du        
    595 ****       275.5000 317.0000 -76.2500 Du        
    596 ****       275.5000 317.0000 -76.0000 Du        
    597 ****       275.5000 317.0000 -75.7500 Du        
    598 ****       275.5000 317.0000 -75.5000 Du        
    599 ****       275.5000 317.0000 -75.2500 Du        
    600 ****       275.5000 317.0000 -75.0000 Du        
    601 ****       275.5000 317.0000 -74.7500 Du        
    602 ****       275.5000 317.2500 -78.5000 Du        
    603 ****       275.5000 317.2500 -78.2500 Du        
    604 ****       275.5000 317.2500 -78.0000 Du        
    605 ****       275.5000 317.2500 -77.7500 Du        
    606 ****       275.5000 317.2500 -77.5000 Du        
    607 ****       275.5000 317.2500 -77.2500 Du        
    608 ****       275.5000 317.2500 -77.0000 Du        
    609 ****       275.5000 317.2500 -76.7500 Du        
    610 ****       275.5000 317.2500 -76.5000 Du        
    611 ****       275.5000 317.2500 -76.2500 Du        
    612 ****       275.5000 317.2500 -76.0000 Du        
    613 ****       275.5000 317.2500 -75.7500 Du        
    614 ****       275.5000 317.2500 -75.5000 Du        
    615 ****       275.5000 317.2500 -75.2500 Du        
    616 ****       275.5000 317.2500 -75.0000 Du        
    617 ****       275.5000 317.2500 -74.7500 Du        
    618 ****       275.5000 317.5000 -78.0000 Du        
    619 ****       275.5000 317.5000 -77.7500 Du        
    620 ****       275.5000 317.5000 -77.5000 Du        
    621 ****       275.5000 317.5000 -77.2500 Du        
    622 ****       275.5000 317.5000 -77.0000 Du        
    623 ****       275.5000 317.5000 -76.7500 Du        
    624 ****       275.5000 317.5000 -76.5000 Du        
    625 ****       275.5000 317.5000 -76.2500 Du        
    626 ****       275.5000 317.5000 -76.0000 Du        
    627 ****       275.5000 317.5000 -75.7500 Du        
    628 ****       275.5000 317.5000 -75.5000 Du        
    629 ****       275.5000 317.5000 -75.2500 Du        
    630 ****       275.5000 317.5000 -75.0000 Du        
    631 ****       275.5000 317.5000 -74.7500 Du        
    632 ****       275.5000 317.7500 -77.5000 Du        
    633 ****       275.5000 317.7500 -77.2500 Du        
    634 ****       275.5000 317.7500 -77.0000 Du        
    635 ****       275.5000 317.7500 -76.7500 Du        
    636 ****       275.5000 317.7500 -76.5000 Du        
    637 ****       275.5000 317.7500 -76.2500 Du        
    638 ****       275.5000 317.7500 -76.0000 Du        
    639 ****       275.5000 317.7500 -75.7500 Du        
    640 ****       275.5000 317.7500 -75.5000 Du        
    641 ****       275.5000 317.7500 -75.2500 Du        
    642 ****       275.5000 318.7500 -82.0000 Du        
    643 ****       275.5000 318.7500 -81.7500 Du        
    644 ****       275.5000 318.7500 -81.5000 Du        
    645 ****       275.5000 319.0000 -82.5000 Du        
    646 ****       275.5000 319.0000 -82.2500 Du        
    647 ****       275.5000 319.0000 -82.0000 Du        
    648 ****       275.5000 319.0000 -81.7500 Du        
    649 ****       275.5000 319.0000 -81.5000 Du        
    650 ****       275.5000 319.2500 -82.7500 Du        
    651 ****       275.5000 319.2500 -82.5000 Du        
    652 ****       275.5000 319.2500 -82.2500 Du        
    653 ****       275.5000 319.2500 -82.0000 Du        
    654 ****       275.5000 319.2500 -81.7500 Du        
    655 ****       275.5000 319.5000 -82.7500 Du        
    656 ****       275.5000 319.5000 -82.5000 Du        
    657 ****       275.5000 319.5000 -82.2500 Du        
    658 ****       275.5000 319.5000 -82.0000 Du        
    659 ****       275.5000 319.7500 -82.7500 Du        
    660 ****       275.5000 319.7500 -82.5000 Du        
    661 ****       275.5000 319.7500 -82.2500 Du        
    662 ****       275.5000 319.7500 -82.0000 Du        
    663 ****       275.5000 320.0000 -82.2500 Du        
    664 ****       275.7500 316.5000 -75.7500 Du        
    665 ****       275.7500 316.5000 -75.5000 Du        
    666 ****       275.7500 316.5000 -75.2500 Du        
    667 ****       275.7500 316.5000 -75.0000 Du        
    668 ****       275.7500 316.5000 -74.7500 Du        
    669 ****       275.7500 316.7500 -78.2500 Du        
    670 ****       275.7500 316.7500 -78.0000 Du        
    671 ****       275.7500 316.7500 -77.7500 Du        
    672 ****       275.7500 316.7500 -77.5000 Du        
    673 ****       275.7500 316.7500 -77.2500 Du        
    674 ****       275.7500 316.7500 -77.0000 Du        
    675 ****       275.7500 316.7500 -76.7500 Du        
    676 ****       275.7500 316.7500 -76.5000 Du        
    677 ****       275.7500 316.7500 -76.2500 Du        
    678 ****       275.7500 316.7500 -76.0000 Du        
    679 ****       275.7500 316.7500 -75.7500 Du        
    680 ****       275.7500 316.7500 -75.5000 Du        
    681 ****       275.7500 316.7500 -75.2500 Du        
    682 ****       275.7500 316.7500 -75.0000 Du        
    683 ****       275.7500 316.7500 -74.7500 Du        
    684 ****       275.7500 317.0000 -78.5000 Du        
    685 ****       275.7500 317.0000 -78.2500 Du        
    686 ****       275.7500 317.0000 -78.0000 Du        
    687 ****       275.7500 317.0000 -77.7500 Du        
    688 ****       275.7500 317.0000 -77.5000 Du        
    689 ****       275.7500 317.0000 -77.2500 Du        
    690 ****       275.7500 317.0000 -77.0000 Du        
    691 ****       275.7500 317.0000 -76.7500 Du        
    692 ****       275.7500 317.0000 -76.5000 Du        
    693 ****       275.7500 317.0000 -76.2500 Du        
    694 ****       275.7500 317.0000 -76.0000 Du        
    695 ****       275.7500 317.0000 -75.7500 Du        
    696 ****       275.7500 317.0000 -75.5000 Du        
    697 ****       275.7500 317.0000 -75.2500 Du        
    698 ****       275.7500 317.0000 -75.0000 Du        
    699 ****       275.7500 317.0000 -74.7500 Du        
    700 ****       275.7500 317.2500 -78.5000 Du        
    701 ****       275.7500 317.2500 -78.2500 Du        
    702 ****       275.7500 317.2500 -78.0000 Du        
    703 ****       275.7500 317.2500 -77.7500 Du        
    704 ****       275.7500 317.2500 -77.5000 Du        
    705 ****       275.7500 317.2500 -77.2500 Du        
    706 ****       275.7500 317.2500 -77.0000 Du        
    707 ****       275.7500 317.2500 -76.7500 Du        
    708 ****       275.7500 317.2500 -76.5000 Du        
    709 ****       275.7500 317.2500 -76.2500 Du        
    710 ****       275.7500 317.2500 -76.0000 Du        
    711 ****       275.7500 317.2500 -75.7500 Du        
    712 ****       275.7500 317.2500 -75.5000 Du        
    713 ****       275.7500 317.2500 -75.2500 Du        
    714 ****       275.7500 317.2500 -75.0000 Du        
    715 ****       275.7500 317.2500 -74.7500 Du        
    716 ****       275.7500 317.5000 -77.7500 Du        
    717 ****       275.7500 317.5000 -77.5000 Du        
    718 ****       275.7500 317.5000 -77.2500 Du        
    719 ****       275.7500 317.5000 -77.0000 Du        
    720 ****       275.7500 317.5000 -76.7500 Du        
    721 ****       275.7500 317.5000 -76.5000 Du        
    722 ****       275.7500 317.5000 -76.2500 Du        
    723 ****       275.7500 317.5000 -76.0000 Du        
    724 ****       275.7500 317.5000 -75.7500 Du        
    725 ****       275.7500 317.5000 -75.5000 Du        
    726 ****       275.7500 317.5000 -75.2500 Du        
    727 ****       275.7500 317.5000 -75.0000 Du        
    728 ****       275.7500 317.5000 -74.7500 Du        
    729 ****       275.7500 317.7500 -77.2500 Du        
    730 ****       275.7500 317.7500 -77.0000 Du        
    731 ****       275.7500 317.7500 -76.7500 Du        
    732 ****       275.7500 317.7500 -76.5000 Du        
    733 ****       275.7500 317.7500 -76.2500 Du        
    734 ****       275.7500 317.7500 -76.0000 Du        
    735 ****       275.7500 317.7500 -75.7500 Du        
    736 ****       275.7500 317.7500 -75.5000 Du        
    737 ****       275.7500 317.7500 -75.2500 Du        
    738 ****       275.7500 317.7500 -75.0000 Du        
    739 ****       275.7500 317.7500 -74.7500 Du        
    740 ****       275.7500 318.0000 -76.7500 Du        
    741 ****       275.7500 318.0000 -76.5000 Du        
    742 ****       275.7500 318.0000 -76.2500 Du        
    743 ****       275.7500 318.0000 -76.0000 Du        
    744 ****       275.7500 318.0000 -75.7500 Du        
    745 ****       275.7500 318.7500 -81.5000 Du        
    746 ****       275.7500 319.0000 -82.5000 Du        
    747 ****       275.7500 319.0000 -82.2500 Du        
    748 ****       275.7500 319.0000 -82.0000 Du        
    749 ****       275.7500 319.0000 -81.7500 Du        
    750 ****       275.7500 319.0000 -81.5000 Du        
    751 ****       275.7500 319.2500 -82.7500 Du        
    752 ****       275.7500 319.2500 -82.5000 Du        
    753 ****       275.7500 319.2500 -82.2500 Du        
    754 ****       275.7500 319.2500 -82.0000 Du        
    755 ****       275.7500 319.2500 -81.7500 Du        
    756 ****       275.7500 319.5000 -82.7500 Du        
    757 ****       275.7500 319.5000 -82.5000 Du        
    758 ****       275.7500 319.5000 -82.2500 Du        
    759 ****       275.7500 319.5000 -82.0000 Du        
    760 ****       275.7500 319.7500 -82.7500 Du        
    761 ****       275.7500 319.7500 -82.5000 Du        
    762 ****       275.7500 319.7500 -82.2500 Du        
    763 ****       276.0000 316.5000 -75.7500 Du        
    764 ****       276.0000 316.5000 -75.5000 Du        
    765 ****       276.0000 316.5000 -75.2500 Du        
    766 ****       276.0000 316.5000 -75.0000 Du        
    767 ****       276.0000 316.5000 -74.7500 Du        
    768 ****       276.0000 316.7500 -78.2500 Du        
    769 ****       276.0000 316.7500 -78.0000 Du        
    770 ****       276.0000 316.7500 -77.7500 Du        
    771 ****       276.0000 316.7500 -77.5000 Du        
    772 ****       276.0000 316.7500 -77.2500 Du        
    773 ****       276.0000 316.7500 -77.0000 Du        
    774 ****       276.0000 316.7500 -76.7500 Du        
    775 ****       276.0000 316.7500 -76.5000 Du        
    776 ****       276.0000 316.7500 -76.2500 Du        
    777 ****       276.0000 316.7500 -76.0000 Du        
    778 ****       276.0000 316.7500 -75.7500 Du        
    779 ****       276.0000 316.7500 -75.5000 Du        
    780 ****       276.0000 316.7500 -75.2500 Du        
    781 ****       276.0000 316.7500 -75.0000 Du        
    782 ****       276.0000 316.7500 -74.7500 Du        
    783 ****       276.0000 317.0000 -78.5000 Du        
    784 ****       276.0000 317.0000 -78.2500 Du        
    785 ****       276.0000 317.0000 -78.0000 Du        
    786 ****       276.0000 317.0000 -77.7500 Du        
    787 ****       276.0000 317.0000 -77.5000 Du        
    788 ****       276.0000 317.0000 -77.2500 Du        
    789 ****       276.0000 317.0000 -77.0000 Du        
    790 ****       276.0000 317.0000 -76.7500 Du        
    791 ****       276.0000 317.0000 -76.5000 Du        
    792 ****       276.0000 317.0000 -76.2500 Du        
    793 ****       276.0000 317.0000 -76.0000 Du        
    794 ****       276.0000 317.0000 -75.7500 Du        
    795 ****       276.0000 317.0000 -75.5000 Du        
    796 ****       276.0000 317.0000 -75.2500 Du        
    797 ****       276.0000 317.0000 -75.0000 Du        
    798 ****       276.0000 317.0000 -74.7500 Du        
    799 ****       276.0000 317.2500 -78.2500 Du        
    800 ****       276.0000 317.2500 -78.0000 Du        
    801 ****       276.0000 317.2500 -77.7500 Du        
    802 ****       276.0000 317.2500 -77.5000 Du        
    803 ****       276.0000 317.2500 -77.2500 Du        
    804 ****       276.0000 317.2500 -77.0000 Du        
    805 ****       276.0000 317.2500 -76.7500 Du        
    806 ****       276.0000 317.2500 -76.5000 Du        
    807 ****       276.0000 317.2500 -76.2500 Du        
    808 ****       276.0000 317.2500 -76.0000 Du        
    809 ****       276.0000 317.2500 -75.7500 Du        
    810 ****       276.0000 317.2500 -75.5000 Du        
    811 ****       276.0000 317.2500 -75.2500 Du        
    812 ****       276.0000 317.2500 -75.0000 Du        
    813 ****       276.0000 317.2500 -74.7500 Du        
    814 ****       276.0000 317.5000 -77.5000 Du        
    815 ****       276.0000 317.5000 -77.2500 Du        
    816 ****       276.0000 317.5000 -77.0000 Du        
    817 ****       276.0000 317.5000 -76.7500 Du        
    818 ****       276.0000 317.5000 -76.5000 Du        
    819 ****       276.0000 317.5000 -76.2500 Du        
    820 ****       276.0000 317.5000 -76.0000 Du        
    821 ****       276.0000 317.5000 -75.7500 Du        
    822 ****       276.0000 317.5000 -75.5000 Du        
    823 ****       276.0000 317.5000 -75.2500 Du        
    824 ****       276.0000 317.5000 -75.0000 Du        
    825 ****       276.0000 317.5000 -74.7500 Du        
    826 ****       276.0000 317.7500 -77.0000 Du        
    827 ****       276.0000 317.7500 -76.7500 Du        
    828 ****       276.0000 317.7500 -76.5000 Du        
    829 ****       276.0000 317.7500 -76.2500 Du        
    830 ****       276.0000 317.7500 -76.0000 Du        
    831 ****       276.0000 317.7500 -75.7500 Du        
    832 ****       276.0000 317.7500 -75.5000 Du        
    833 ****       276.0000 317.7500 -75.2500 Du        
    834 ****       276.0000 317.7500 -75.0000 Du        
    835 ****       276.0000 317.7500 -74.7500 Du        
    836 ****       276.0000 318.0000 -76.7500 Du        
    837 ****       276.0000 318.0000 -76.5000 Du        
    838 ****       276.0000 318.0000 -76.2500 Du        
    839 ****       276.0000 318.0000 -76.0000 Du        
    840 ****       276.0000 318.0000 -75.7500 Du        
    841 ****       276.0000 318.0000 -75.5000 Du        
    842 ****       276.0000 318.0000 -75.2500 Du        
    843 ****       276.0000 318.0000 -75.0000 Du        
    844 ****       276.0000 319.0000 -82.5000 Du        
    845 ****       276.0000 319.0000 -82.2500 Du        
    846 ****       276.0000 319.0000 -82.0000 Du        
    847 ****       276.0000 319.0000 -81.7500 Du        
    848 ****       276.0000 319.2500 -82.5000 Du        
    849 ****       276.0000 319.2500 -82.2500 Du        
    850 ****       276.0000 319.2500 -82.0000 Du        
    851 ****       276.0000 319.5000 -82.7500 Du        
    852 ****       276.0000 319.5000 -82.5000 Du        
    853 ****       276.0000 319.5000 -82.2500 Du        
    854 ****       276.0000 319.5000 -82.0000 Du        
    855 ****       276.0000 319.7500 -82.7500 Du        
    856 ****       276.0000 319.7500 -82.5000 Du        
    857 ****       276.0000 319.7500 -82.2500 Du        
    858 ****       276.0000 320.0000 -82.7500 Du        
    859 ****       276.0000 320.0000 -82.5000 Du        
    860 ****       276.2500 316.5000 -75.7500 Du        
    861 ****       276.2500 316.5000 -75.5000 Du        
    862 ****       276.2500 316.5000 -75.2500 Du        
    863 ****       276.2500 316.5000 -75.0000 Du        
    864 ****       276.2500 316.5000 -74.7500 Du        
    865 ****       276.2500 316.7500 -78.2500 Du        
    866 ****       276.2500 316.7500 -78.0000 Du        
    867 ****       276.2500 316.7500 -77.7500 Du        
    868 ****       276.2500 316.7500 -77.5000 Du        
    869 ****       276.2500 316.7500 -77.2500 Du        
    870 ****       276.2500 316.7500 -77.0000 Du        
    871 ****       276.2500 316.7500 -76.7500 Du        
    872 ****       276.2500 316.7500 -76.5000 Du        
    873 ****       276.2500 316.7500 -76.2500 Du        
    874 ****       276.2500 316.7500 -76.0000 Du        
    875 ****       276.2500 316.7500 -75.7500 Du        
    876 ****       276.2500 316.7500 -75.5000 Du        
    877 ****       276.2500 316.7500 -75.2500 Du        
    878 ****       276.2500 316.7500 -75.0000 Du        
    879 ****       276.2500 316.7500 -74.7500 Du        
    880 ****       276.2500 317.0000 -78.2500 Du        
    881 ****       276.2500 317.0000 -78.0000 Du        
    882 ****       276.2500 317.0000 -77.7500 Du        
    883 ****       276.2500 317.0000 -77.5000 Du        
    884 ****       276.2500 317.0000 -77.2500 Du        
    885 ****       276.2500 317.0000 -77.0000 Du        
    886 ****       276.2500 317.0000 -76.7500 Du        
    887 ****       276.2500 317.0000 -76.5000 Du        
    888 ****       276.2500 317.0000 -76.2500 Du        
    889 ****       276.2500 317.0000 -76.0000 Du        
    890 ****       276.2500 317.0000 -75.7500 Du        
    891 ****       276.2500 317.0000 -75.5000 Du        
    892 ****       276.2500 317.0000 -75.2500 Du        
    893 ****       276.2500 317.0000 -75.0000 Du        
    894 ****       276.2500 317.0000 -74.7500 Du        
    895 ****       276.2500 317.2500 -77.7500 Du        
    896 ****       276.2500 317.2500 -77.5000 Du        
    897 ****       276.2500 317.2500 -77.2500 Du        
    898 ****       276.2500 317.2500 -77.0000 Du        
    899 ****       276.2500 317.2500 -76.7500 Du        
    900 ****       276.2500 317.2500 -76.5000 Du        
    901 ****       276.2500 317.2500 -76.2500 Du        
    902 ****       276.2500 317.2500 -76.0000 Du        
    903 ****       276.2500 317.2500 -75.7500 Du        
    904 ****       276.2500 317.2500 -75.5000 Du        
    905 ****       276.2500 317.2500 -75.2500 Du        
    906 ****       276.2500 317.2500 -75.0000 Du        
    907 ****       276.2500 317.2500 -74.7500 Du        
    908 ****       276.2500 317.5000 -77.2500 Du        
    909 ****       276.2500 317.5000 -77.0000 Du        
    910 ****       276.2500 317.5000 -76.7500 Du        
    911 ****       276.2500 317.5000 -76.5000 Du        
    912 ****       276.2500 317.5000 -76.2500 Du        
    913 ****       276.2500 317.5000 -76.0000 Du        
    914 ****       276.2500 317.5000 -75.7500 Du        
    915 ****       276.2500 317.5000 -75.5000 Du        
    916 ****       276.2500 317.5000 -75.2500 Du        
    917 ****       276.2500 317.5000 -75.0000 Du        
    918 ****       276.2500 317.5000 -74.7500 Du        
    919 ****       276.2500 317.5000 -74.5000 Du        
    920 ****       276.2500 317.7500 -77.0000 Du        
    921 ****       276.2500 317.7500 -76.7500 Du        
    922 ****       276.2500 317.7500 -76.5000 Du        
    923 ****       276.2500 317.7500 -76.2500 Du        
    924 ****       276.2500 317.7500 -76.0000 Du        
    925 ****       276.2500 317.7500 -75.7500 Du        
    926 ****       276.2500 317.7500 -75.5000 Du        
    927 ****       276.2500 317.7500 -75.2500 Du        
    928 ****       276.2500 317.7500 -75.0000 Du        
    929 ****       276.2500 317.7500 -74.7500 Du        
    930 ****       276.2500 318.0000 -76.5000 Du        
    931 ****       276.2500 318.0000 -76.2500 Du        
    932 ****       276.2500 318.0000 -76.0000 Du        
    933 ****       276.2500 318.0000 -75.7500 Du        
    934 ****       276.2500 318.0000 -75.5000 Du        
    935 ****       276.2500 318.0000 -75.2500 Du        
    936 ****       276.2500 318.0000 -75.0000 Du        
    937 ****       276.2500 318.2500 -76.2500 Du        
    938 ****       276.2500 318.2500 -76.0000 Du        
    939 ****       276.2500 318.2500 -75.7500 Du        
    940 ****       276.2500 318.2500 -75.5000 Du        
    941 ****       276.2500 319.0000 -82.2500 Du        
    942 ****       276.2500 319.0000 -82.0000 Du        
    943 ****       276.2500 319.0000 -81.7500 Du        
    944 ****       276.2500 319.2500 -82.5000 Du        
    945 ****       276.2500 319.2500 -82.2500 Du        
    946 ****       276.2500 319.2500 -82.0000 Du        
    947 ****       276.2500 319.5000 -82.5000 Du        
    948 ****       276.2500 319.5000 -82.2500 Du        
    949 ****       276.2500 319.7500 -82.5000 Du        
    950 ****       276.5000 316.5000 -75.7500 Du        
    951 ****       276.5000 316.5000 -75.5000 Du        
    952 ****       276.5000 316.5000 -75.2500 Du        
    953 ****       276.5000 316.5000 -75.0000 Du        
    954 ****       276.5000 316.5000 -74.7500 Du        
    955 ****       276.5000 316.7500 -78.2500 Du        
    956 ****       276.5000 316.7500 -78.0000 Du        
    957 ****       276.5000 316.7500 -77.7500 Du        
    958 ****       276.5000 316.7500 -77.5000 Du        
    959 ****       276.5000 316.7500 -77.2500 Du        
    960 ****       276.5000 316.7500 -77.0000 Du        
    961 ****       276.5000 316.7500 -76.7500 Du        
    962 ****       276.5000 316.7500 -76.5000 Du        
    963 ****       276.5000 316.7500 -76.2500 Du        
    964 ****       276.5000 316.7500 -76.0000 Du        
    965 ****       276.5000 316.7500 -75.7500 Du        
    966 ****       276.5000 316.7500 -75.5000 Du        
    967 ****       276.5000 316.7500 -75.2500 Du        
    968 ****       276.5000 316.7500 -75.0000 Du        
    969 ****       276.5000 316.7500 -74.7500 Du        
    970 ****       276.5000 317.0000 -78.0000 Du        
    971 ****       276.5000 317.0000 -77.7500 Du        
    972 ****       276.5000 317.0000 -77.5000 Du        
    973 ****       276.5000 317.0000 -77.2500 Du        
    974 ****       276.5000 317.0000 -77.0000 Du        
    975 ****       276.5000 317.0000 -76.7500 Du        
    976 ****       276.5000 317.0000 -76.5000 Du        
    977 ****       276.5000 317.0000 -76.2500 Du        
    978 ****       276.5000 317.0000 -76.0000 Du        
    979 ****       276.5000 317.0000 -75.7500 Du        
    980 ****       276.5000 317.0000 -75.5000 Du        
    981 ****       276.5000 317.0000 -75.2500 Du        
    982 ****       276.5000 317.0000 -75.0000 Du        
    983 ****       276.5000 317.0000 -74.7500 Du        
    984 ****       276.5000 317.0000 -74.5000 Du        
    985 ****       276.5000 317.2500 -77.5000 Du        
    986 ****       276.5000 317.2500 -77.2500 Du        
    987 ****       276.5000 317.2500 -77.0000 Du        
    988 ****       276.5000 317.2500 -76.7500 Du        
    989 ****       276.5000 317.2500 -76.5000 Du        
    990 ****       276.5000 317.2500 -76.2500 Du        
    991 ****       276.5000 317.2500 -76.0000 Du        
    992 ****       276.5000 317.2500 -75.7500 Du        
    993 ****       276.5000 317.2500 -75.5000 Du        
    994 ****       276.5000 317.2500 -75.2500 Du        
    995 ****       276.5000 317.2500 -75.0000 Du        
    996 ****       276.5000 317.2500 -74.7500 Du        
    997 ****       276.5000 317.2500 -74.5000 Du        
    998 ****       276.5000 317.5000 -77.0000 Du        
    999 ****       276.5000 317.5000 -76.7500 Du        
   1000 ****       276.5000 317.5000 -76.5000 Du        
   1001 ****       276.5000 317.5000 -76.2500 Du        
   1002 ****       276.5000 317.5000 -76.0000 Du        
   1003 ****       276.5000 317.5000 -75.7500 Du        
   1004 ****       276.5000 317.5000 -75.5000 Du        
   1005 ****       276.5000 317.5000 -75.2500 Du        
   1006 ****       276.5000 317.5000 -75.0000 Du        
   1007 ****       276.5000 317.5000 -74.7500 Du        
   1008 ****       276.5000 317.7500 -76.7500 Du        
   1009 ****       276.5000 317.7500 -76.5000 Du        
   1010 ****       276.5000 317.7500 -76.2500 Du        
   1011 ****       276.5000 317.7500 -76.0000 Du        
   1012 ****       276.5000 317.7500 -75.7500 Du        
   1013 ****       276.5000 317.7500 -75.5000 Du        
   1014 ****       276.5000 317.7500 -75.2500 Du        
   1015 ****       276.5000 317.7500 -75.0000 Du        
   1016 ****       276.5000 317.7500 -74.7500 Du        
   1017 ****       276.5000 318.0000 -76.5000 Du        
   1018 ****       276.5000 318.0000 -76.2500 Du        
   1019 ****       276.5000 318.0000 -76.0000 Du        
   1020 ****       276.5000 318.0000 -75.7500 Du        
   1021 ****       276.5000 318.0000 -75.5000 Du        
   1022 ****       276.5000 318.0000 -75.2500 Du        
   1023 ****       276.5000 318.0000 -75.0000 Du        
   1024 ****       276.5000 318.2500 -76.0000 Du        
   1025 ****       276.5000 318.2500 -75.7500 Du        
   1026 ****       276.5000 318.2500 -75.5000 Du        
   1027 ****       276.7500 316.2500 -75.0000 Du        
   1028 ****       276.7500 316.2500 -74.7500 Du        
   1029 ****       276.7500 316.2500 -74.5000 Du        
   1030 ****       276.7500 316.5000 -78.2500 Du        
   1031 ****       276.7500 316.5000 -78.0000 Du        
   1032 ****       276.7500 316.5000 -77.7500 Du        
   1033 ****       276.7500 316.5000 -76.2500 Du        
   1034 ****       276.7500 316.5000 -76.0000 Du        
   1035 ****       276.7500 316.5000 -75.7500 Du        
   1036 ****       276.7500 316.5000 -75.5000 Du        
   1037 ****       276.7500 316.5000 -75.2500 Du        
   1038 ****       276.7500 316.5000 -75.0000 Du        
   1039 ****       276.7500 316.5000 -74.7500 Du        
   1040 ****       276.7500 316.5000 -74.5000 Du        
   1041 ****       276.7500 316.7500 -78.2500 Du        
   1042 ****       276.7500 316.7500 -78.0000 Du        
   1043 ****       276.7500 316.7500 -77.7500 Du        
   1044 ****       276.7500 316.7500 -77.5000 Du        
   1045 ****       276.7500 316.7500 -77.2500 Du        
   1046 ****       276.7500 316.7500 -77.0000 Du        
   1047 ****       276.7500 316.7500 -76.7500 Du        
   1048 ****       276.7500 316.7500 -76.5000 Du        
   1049 ****       276.7500 316.7500 -76.2500 Du        
   1050 ****       276.7500 316.7500 -76.0000 Du        
   1051 ****       276.7500 316.7500 -75.7500 Du        
   1052 ****       276.7500 316.7500 -75.5000 Du        
   1053 ****       276.7500 316.7500 -75.2500 Du        
   1054 ****       276.7500 316.7500 -75.0000 Du        
   1055 ****       276.7500 316.7500 -74.7500 Du        
   1056 ****       276.7500 316.7500 -74.5000 Du        
   1057 ****       276.7500 317.0000 -78.0000 Du        
   1058 ****       276.7500 317.0000 -77.7500 Du        
   1059 ****       276.7500 317.0000 -77.5000 Du        
   1060 ****       276.7500 317.0000 -77.2500 Du        
   1061 ****       276.7500 317.0000 -77.0000 Du        
   1062 ****       276.7500 317.0000 -76.7500 Du        
   1063 ****       276.7500 317.0000 -76.5000 Du        
   1064 ****       276.7500 317.0000 -76.2500 Du        
   1065 ****       276.7500 317.0000 -76.0000 Du        
   1066 ****       276.7500 317.0000 -75.7500 Du        
   1067 ****       276.7500 317.0000 -75.5000 Du        
   1068 ****       276.7500 317.0000 -75.2500 Du        
   1069 ****       276.7500 317.0000 -75.0000 Du        
   1070 ****       276.7500 317.0000 -74.7500 Du        
   1071 ****       276.7500 317.0000 -74.5000 Du        
   1072 ****       276.7500 317.2500 -77.2500 Du        
   1073 ****       276.7500 317.2500 -77.0000 Du        
   1074 ****       276.7500 317.2500 -76.7500 Du        
   1075 ****       276.7500 317.2500 -76.5000 Du        
   1076 ****       276.7500 317.2500 -76.2500 Du        
   1077 ****       276.7500 317.2500 -76.0000 Du        
   1078 ****       276.7500 317.2500 -75.7500 Du        
   1079 ****       276.7500 317.2500 -75.5000 Du        
   1080 ****       276.7500 317.2500 -75.2500 Du        
   1081 ****       276.7500 317.2500 -75.0000 Du        
   1082 ****       276.7500 317.2500 -74.7500 Du        
   1083 ****       276.7500 317.2500 -74.5000 Du        
   1084 ****       276.7500 317.5000 -77.0000 Du        
   1085 ****       276.7500 317.5000 -76.7500 Du        
   1086 ****       276.7500 317.5000 -76.5000 Du        
   1087 ****       276.7500 317.5000 -76.2500 Du        
   1088 ****       276.7500 317.5000 -76.0000 Du        
   1089 ****       276.7500 317.5000 -75.7500 Du        
   1090 ****       276.7500 317.5000 -75.5000 Du        
   1091 ****       276.7500 317.5000 -75.2500 Du        
   1092 ****       276.7500 317.5000 -75.0000 Du        
   1093 ****       276.7500 317.5000 -74.7500 Du        
   1094 ****       276.7500 317.5000 -74.5000 Du        
   1095 ****       276.7500 317.7500 -76.7500 Du        
   1096 ****       276.7500 317.7500 -76.5000 Du        
   1097 ****       276.7500 317.7500 -76.2500 Du        
   1098 ****       276.7500 317.7500 -76.0000 Du        
   1099 ****       276.7500 317.7500 -75.7500 Du        
   1100 ****       276.7500 317.7500 -75.5000 Du        
   1101 ****       276.7500 317.7500 -75.2500 Du        
   1102 ****       276.7500 317.7500 -75.0000 Du        
   1103 ****       276.7500 317.7500 -74.7500 Du        
   1104 ****       276.7500 318.0000 -76.5000 Du        
   1105 ****       276.7500 318.0000 -76.2500 Du        
   1106 ****       276.7500 318.0000 -76.0000 Du        
   1107 ****       276.7500 318.0000 -75.7500 Du        
   1108 ****       276.7500 318.0000 -75.5000 Du        
   1109 ****       276.7500 318.0000 -75.2500 Du        
   1110 ****       276.7500 318.0000 -75.0000 Du        
   1111 ****       276.7500 318.2500 -76.0000 Du        
   1112 ****       276.7500 318.2500 -75.7500 Du        
   1113 ****       276.7500 318.2500 -75.5000 Du        
   1114 ****       277.0000 316.2500 -78.5000 Du        
   1115 ****       277.0000 316.2500 -78.2500 Du        
   1116 ****       277.0000 316.2500 -75.2500 Du        
   1117 ****       277.0000 316.2500 -75.0000 Du        
   1118 ****       277.0000 316.2500 -74.7500 Du        
   1119 ****       277.0000 316.2500 -74.5000 Du        
   1120 ****       277.0000 316.5000 -78.2500 Du        
   1121 ****       277.0000 316.5000 -78.0000 Du        
   1122 ****       277.0000 316.5000 -77.7500 Du        
   1123 ****       277.0000 316.5000 -77.5000 Du        
   1124 ****       277.0000 316.5000 -76.5000 Du        
   1125 ****       277.0000 316.5000 -76.2500 Du        
   1126 ****       277.0000 316.5000 -76.0000 Du        
   1127 ****       277.0000 316.5000 -75.7500 Du        
   1128 ****       277.0000 316.5000 -75.5000 Du        
   1129 ****       277.0000 316.5000 -75.2500 Du        
   1130 ****       277.0000 316.5000 -75.0000 Du        
   1131 ****       277.0000 316.5000 -74.7500 Du        
   1132 ****       277.0000 316.5000 -74.5000 Du        
   1133 ****       277.0000 316.7500 -78.2500 Du        
   1134 ****       277.0000 316.7500 -78.0000 Du        
   1135 ****       277.0000 316.7500 -77.7500 Du        
   1136 ****       277.0000 316.7500 -77.5000 Du        
   1137 ****       277.0000 316.7500 -77.2500 Du        
   1138 ****       277.0000 316.7500 -77.0000 Du        
   1139 ****       277.0000 316.7500 -76.7500 Du        
   1140 ****       277.0000 316.7500 -76.5000 Du        
   1141 ****       277.0000 316.7500 -76.2500 Du        
   1142 ****       277.0000 316.7500 -76.0000 Du        
   1143 ****       277.0000 316.7500 -75.7500 Du        
   1144 ****       277.0000 316.7500 -75.5000 Du        
   1145 ****       277.0000 316.7500 -75.2500 Du        
   1146 ****       277.0000 316.7500 -75.0000 Du        
   1147 ****       277.0000 316.7500 -74.7500 Du        
   1148 ****       277.0000 316.7500 -74.5000 Du        
   1149 ****       277.0000 317.0000 -77.7500 Du        
   1150 ****       277.0000 317.0000 -77.5000 Du        
   1151 ****       277.0000 317.0000 -77.2500 Du        
   1152 ****       277.0000 317.0000 -77.0000 Du        
   1153 ****       277.0000 317.0000 -76.7500 Du        
   1154 ****       277.0000 317.0000 -76.5000 Du        
   1155 ****       277.0000 317.0000 -76.2500 Du        
   1156 ****       277.0000 317.0000 -76.0000 Du        
   1157 ****       277.0000 317.0000 -75.7500 Du        
   1158 ****       277.0000 317.0000 -75.5000 Du        
   1159 ****       277.0000 317.0000 -75.2500 Du        
   1160 ****       277.0000 317.0000 -75.0000 Du        
   1161 ****       277.0000 317.0000 -74.7500 Du        
   1162 ****       277.0000 317.0000 -74.5000 Du        
   1163 ****       277.0000 317.2500 -77.2500 Du        
   1164 ****       277.0000 317.2500 -77.0000 Du        
   1165 ****       277.0000 317.2500 -76.7500 Du        
   1166 ****       277.0000 317.2500 -76.5000 Du        
   1167 ****       277.0000 317.2500 -76.2500 Du        
   1168 ****       277.0000 317.2500 -76.0000 Du        
   1169 ****       277.0000 317.2500 -75.7500 Du        
   1170 ****       277.0000 317.2500 -75.5000 Du        
   1171 ****       277.0000 317.2500 -75.2500 Du        
   1172 ****       277.0000 317.2500 -75.0000 Du        
   1173 ****       277.0000 317.2500 -74.7500 Du        
   1174 ****       277.0000 317.2500 -74.5000 Du        
   1175 ****       277.0000 317.5000 -76.7500 Du        
   1176 ****       277.0000 317.5000 -76.5000 Du        
   1177 ****       277.0000 317.5000 -76.2500 Du        
   1178 ****       277.0000 317.5000 -76.0000 Du        
   1179 ****       277.0000 317.5000 -75.7500 Du        
   1180 ****       277.0000 317.5000 -75.5000 Du        
   1181 ****       277.0000 317.5000 -75.2500 Du        
   1182 ****       277.0000 317.5000 -75.0000 Du        
   1183 ****       277.0000 317.5000 -74.7500 Du        
   1184 ****       277.0000 317.5000 -74.5000 Du        
   1185 ****       277.0000 317.7500 -76.5000 Du        
   1186 ****       277.0000 317.7500 -76.2500 Du        
   1187 ****       277.0000 317.7500 -76.0000 Du        
   1188 ****       277.0000 317.7500 -75.7500 Du        
   1189 ****       277.0000 317.7500 -75.5000 Du        
   1190 ****       277.0000 317.7500 -75.2500 Du        
   1191 ****       277.0000 317.7500 -75.0000 Du        
   1192 ****       277.0000 317.7500 -74.7500 Du        
   1193 ****       277.0000 318.0000 -76.2500 Du        
   1194 ****       277.0000 318.0000 -76.0000 Du        
   1195 ****       277.0000 318.0000 -75.7500 Du        
   1196 ****       277.0000 318.0000 -75.5000 Du        
   1197 ****       277.0000 318.0000 -75.2500 Du        
   1198 ****       277.0000 318.0000 -75.0000 Du        
   1199 ****       277.0000 318.2500 -76.0000 Du        
   1200 ****       277.0000 318.2500 -75.7500 Du        
   1201 ****       277.0000 318.2500 -75.5000 Du        
   1202 ****       277.2500 316.0000 -74.7500 Du        
   1203 ****       277.2500 316.0000 -74.5000 Du        
   1204 ****       277.2500 316.2500 -78.5000 Du        
   1205 ****       277.2500 316.2500 -78.2500 Du        
   1206 ****       277.2500 316.2500 -75.2500 Du        
   1207 ****       277.2500 316.2500 -75.0000 Du        
   1208 ****       277.2500 316.2500 -74.7500 Du        
   1209 ****       277.2500 316.2500 -74.5000 Du        
   1210 ****       277.2500 316.2500 -74.2500 Du        
   1211 ****       277.2500 316.5000 -78.2500 Du        
   1212 ****       277.2500 316.5000 -78.0000 Du        
   1213 ****       277.2500 316.5000 -77.7500 Du        
   1214 ****       277.2500 316.5000 -77.5000 Du        
   1215 ****       277.2500 316.5000 -77.2500 Du        
   1216 ****       277.2500 316.5000 -77.0000 Du        
   1217 ****       277.2500 316.5000 -76.7500 Du        
   1218 ****       277.2500 316.5000 -76.5000 Du        
   1219 ****       277.2500 316.5000 -76.2500 Du        
   1220 ****       277.2500 316.5000 -76.0000 Du        
   1221 ****       277.2500 316.5000 -75.7500 Du        
   1222 ****       277.2500 316.5000 -75.5000 Du        
   1223 ****       277.2500 316.5000 -75.2500 Du        
   1224 ****       277.2500 316.5000 -75.0000 Du        
   1225 ****       277.2500 316.5000 -74.7500 Du        
   1226 ****       277.2500 316.5000 -74.5000 Du        
   1227 ****       277.2500 316.5000 -74.2500 Du        
   1228 ****       277.2500 316.7500 -78.0000 Du        
   1229 ****       277.2500 316.7500 -77.7500 Du        
   1230 ****       277.2500 316.7500 -77.5000 Du        
   1231 ****       277.2500 316.7500 -77.2500 Du        
   1232 ****       277.2500 316.7500 -77.0000 Du        
   1233 ****       277.2500 316.7500 -76.7500 Du        
   1234 ****       277.2500 316.7500 -76.5000 Du        
   1235 ****       277.2500 316.7500 -76.2500 Du        
   1236 ****       277.2500 316.7500 -76.0000 Du        
   1237 ****       277.2500 316.7500 -75.7500 Du        
   1238 ****       277.2500 316.7500 -75.5000 Du        
   1239 ****       277.2500 316.7500 -75.2500 Du        
   1240 ****       277.2500 316.7500 -75.0000 Du        
   1241 ****       277.2500 316.7500 -74.7500 Du        
   1242 ****       277.2500 316.7500 -74.5000 Du        
   1243 ****       277.2500 316.7500 -74.2500 Du        
   1244 ****       277.2500 317.0000 -77.2500 Du        
   1245 ****       277.2500 317.0000 -77.0000 Du        
   1246 ****       277.2500 317.0000 -76.7500 Du        
   1247 ****       277.2500 317.0000 -76.5000 Du        
   1248 ****       277.2500 317.0000 -76.2500 Du        
   1249 ****       277.2500 317.0000 -76.0000 Du        
   1250 ****       277.2500 317.0000 -75.7500 Du        
   1251 ****       277.2500 317.0000 -75.5000 Du        
   1252 ****       277.2500 317.0000 -75.2500 Du        
   1253 ****       277.2500 317.0000 -75.0000 Du        
   1254 ****       277.2500 317.0000 -74.7500 Du        
   1255 ****       277.2500 317.0000 -74.5000 Du        
   1256 ****       277.2500 317.0000 -74.2500 Du        
   1257 ****       277.2500 317.2500 -77.0000 Du        
   1258 ****       277.2500 317.2500 -76.7500 Du        
   1259 ****       277.2500 317.2500 -76.5000 Du        
   1260 ****       277.2500 317.2500 -76.2500 Du        
   1261 ****       277.2500 317.2500 -76.0000 Du        
   1262 ****       277.2500 317.2500 -75.7500 Du        
   1263 ****       277.2500 317.2500 -75.5000 Du        
   1264 ****       277.2500 317.2500 -75.2500 Du        
   1265 ****       277.2500 317.2500 -75.0000 Du        
   1266 ****       277.2500 317.2500 -74.7500 Du        
   1267 ****       277.2500 317.2500 -74.5000 Du        
   1268 ****       277.2500 317.2500 -74.2500 Du        
   1269 ****       277.2500 317.5000 -76.5000 Du        
   1270 ****       277.2500 317.5000 -76.2500 Du        
   1271 ****       277.2500 317.5000 -76.0000 Du        
   1272 ****       277.2500 317.5000 -75.7500 Du        
   1273 ****       277.2500 317.5000 -75.5000 Du        
   1274 ****       277.2500 317.5000 -75.2500 Du        
   1275 ****       277.2500 317.5000 -75.0000 Du        
   1276 ****       277.2500 317.5000 -74.7500 Du        
   1277 ****       277.2500 317.5000 -74.5000 Du        
   1278 ****       277.2500 317.7500 -76.5000 Du        
   1279 ****       277.2500 317.7500 -76.2500 Du        
   1280 ****       277.2500 317.7500 -76.0000 Du        
   1281 ****       277.2500 317.7500 -75.7500 Du        
   1282 ****       277.2500 317.7500 -75.5000 Du        
   1283 ****       277.2500 317.7500 -75.2500 Du        
   1284 ****       277.2500 317.7500 -75.0000 Du        
   1285 ****       277.2500 317.7500 -74.7500 Du        
   1286 ****       277.2500 318.0000 -76.2500 Du        
   1287 ****       277.2500 318.0000 -76.0000 Du        
   1288 ****       277.2500 318.0000 -75.7500 Du        
   1289 ****       277.2500 318.0000 -75.5000 Du        
   1290 ****       277.2500 318.0000 -75.2500 Du        
   1291 ****       277.2500 318.0000 -75.0000 Du        
   1292 ****       277.2500 318.2500 -75.7500 Du        
   1293 ****       277.2500 318.2500 -75.5000 Du        
   1294 ****       277.5000 315.7500 -74.2500 Du        
   1295 ****       277.5000 316.0000 -78.7500 Du        
   1296 ****       277.5000 316.0000 -74.7500 Du        
   1297 ****       277.5000 316.0000 -74.5000 Du        
   1298 ****       277.5000 316.0000 -74.2500 Du        
   1299 ****       277.5000 316.2500 -78.7500 Du        
   1300 ****       277.5000 316.2500 -75.5000 Du        
   1301 ****       277.5000 316.2500 -75.2500 Du        
   1302 ****       277.5000 316.2500 -75.0000 Du        
   1303 ****       277.5000 316.2500 -74.7500 Du        
   1304 ****       277.5000 316.2500 -74.5000 Du        
   1305 ****       277.5000 316.2500 -74.2500 Du        
   1306 ****       277.5000 316.5000 -76.5000 Du        
   1307 ****       277.5000 316.5000 -76.2500 Du        
   1308 ****       277.5000 316.5000 -76.0000 Du        
   1309 ****       277.5000 316.5000 -75.7500 Du        
   1310 ****       277.5000 316.5000 -75.5000 Du        
   1311 ****       277.5000 316.5000 -75.2500 Du        
   1312 ****       277.5000 316.5000 -75.0000 Du        
   1313 ****       277.5000 316.5000 -74.7500 Du        
   1314 ****       277.5000 316.5000 -74.5000 Du        
   1315 ****       277.5000 316.5000 -74.2500 Du        
   1316 ****       277.5000 316.7500 -77.2500 Du        
   1317 ****       277.5000 316.7500 -77.0000 Du        
   1318 ****       277.5000 316.7500 -76.7500 Du        
   1319 ****       277.5000 316.7500 -76.5000 Du        
   1320 ****       277.5000 316.7500 -76.2500 Du        
   1321 ****       277.5000 316.7500 -76.0000 Du        
   1322 ****       277.5000 316.7500 -75.7500 Du        
   1323 ****       277.5000 316.7500 -75.5000 Du        
   1324 ****       277.5000 316.7500 -75.2500 Du        
   1325 ****       277.5000 316.7500 -75.0000 Du        
   1326 ****       277.5000 316.7500 -74.7500 Du        
   1327 ****       277.5000 316.7500 -74.5000 Du        
   1328 ****       277.5000 316.7500 -74.2500 Du        
   1329 ****       277.5000 317.0000 -76.7500 Du        
   1330 ****       277.5000 317.0000 -76.5000 Du        
   1331 ****       277.5000 317.0000 -76.2500 Du        
   1332 ****       277.5000 317.0000 -76.0000 Du        
   1333 ****       277.5000 317.0000 -75.7500 Du        
   1334 ****       277.5000 317.0000 -75.5000 Du        
   1335 ****       277.5000 317.0000 -75.2500 Du        
   1336 ****       277.5000 317.0000 -75.0000 Du        
   1337 ****       277.5000 317.0000 -74.7500 Du        
   1338 ****       277.5000 317.0000 -74.5000 Du        
   1339 ****       277.5000 317.0000 -74.2500 Du        
   1340 ****       277.5000 317.2500 -76.5000 Du        
   1341 ****       277.5000 317.2500 -76.2500 Du        
   1342 ****       277.5000 317.2500 -76.0000 Du        
   1343 ****       277.5000 317.2500 -75.7500 Du        
   1344 ****       277.5000 317.2500 -75.5000 Du        
   1345 ****       277.5000 317.2500 -75.2500 Du        
   1346 ****       277.5000 317.2500 -75.0000 Du        
   1347 ****       277.5000 317.2500 -74.7500 Du        
   1348 ****       277.5000 317.2500 -74.5000 Du        
   1349 ****       277.5000 317.2500 -74.2500 Du        
   1350 ****       277.5000 317.5000 -76.2500 Du        
   1351 ****       277.5000 317.5000 -76.0000 Du        
   1352 ****       277.5000 317.5000 -75.7500 Du        
   1353 ****       277.5000 317.5000 -75.5000 Du        
   1354 ****       277.5000 317.5000 -75.2500 Du        
   1355 ****       277.5000 317.5000 -75.0000 Du        
   1356 ****       277.5000 317.5000 -74.7500 Du        
   1357 ****       277.5000 317.5000 -74.5000 Du        
   1358 ****       277.5000 317.5000 -74.2500 Du        
   1359 ****       277.5000 317.7500 -76.0000 Du        
   1360 ****       277.5000 317.7500 -75.7500 Du        
   1361 ****       277.5000 317.7500 -75.5000 Du        
   1362 ****       277.5000 317.7500 -75.2500 Du        
   1363 ****       277.5000 317.7500 -75.0000 Du        
   1364 ****       277.5000 317.7500 -74.7500 Du        
   1365 ****       277.5000 318.0000 -75.7500 Du        
   1366 ****       277.5000 318.0000 -75.5000 Du        
   1367 ****       277.5000 318.0000 -75.2500 Du        
   1368 ****       277.7500 314.7500 -73.2500 Du        
   1369 ****       277.7500 314.7500 -73.0000 Du        
   1370 ****       277.7500 315.0000 -73.7500 Du        
   1371 ****       277.7500 315.0000 -73.5000 Du        
   1372 ****       277.7500 315.0000 -73.2500 Du        
   1373 ****       277.7500 315.0000 -73.0000 Du        
   1374 ****       277.7500 315.2500 -74.0000 Du        
   1375 ****       277.7500 315.2500 -73.7500 Du        
   1376 ****       277.7500 315.2500 -73.5000 Du        
   1377 ****       277.7500 315.2500 -73.2500 Du        
   1378 ****       277.7500 315.5000 -74.2500 Du        
   1379 ****       277.7500 315.5000 -74.0000 Du        
   1380 ****       277.7500 315.5000 -73.7500 Du        
   1381 ****       277.7500 315.7500 -74.7500 Du        
   1382 ****       277.7500 315.7500 -74.5000 Du        
   1383 ****       277.7500 315.7500 -74.2500 Du        
   1384 ****       277.7500 315.7500 -74.0000 Du        
   1385 ****       277.7500 315.7500 -73.7500 Du        
   1386 ****       277.7500 316.0000 -79.0000 Du        
   1387 ****       277.7500 316.0000 -78.7500 Du        
   1388 ****       277.7500 316.0000 -75.2500 Du        
   1389 ****       277.7500 316.0000 -75.0000 Du        
   1390 ****       277.7500 316.0000 -74.7500 Du        
   1391 ****       277.7500 316.0000 -74.5000 Du        
   1392 ****       277.7500 316.0000 -74.2500 Du        
   1393 ****       277.7500 316.0000 -74.0000 Du        
   1394 ****       277.7500 316.2500 -79.0000 Du        
   1395 ****       277.7500 316.2500 -78.7500 Du        
   1396 ****       277.7500 316.2500 -78.5000 Du        
   1397 ****       277.7500 316.2500 -75.7500 Du        
   1398 ****       277.7500 316.2500 -75.5000 Du        
   1399 ****       277.7500 316.2500 -75.2500 Du        
   1400 ****       277.7500 316.2500 -75.0000 Du        
   1401 ****       277.7500 316.2500 -74.7500 Du        
   1402 ****       277.7500 316.2500 -74.5000 Du        
   1403 ****       277.7500 316.2500 -74.2500 Du        
   1404 ****       277.7500 316.2500 -74.0000 Du        
   1405 ****       277.7500 316.5000 -76.2500 Du        
   1406 ****       277.7500 316.5000 -76.0000 Du        
   1407 ****       277.7500 316.5000 -75.7500 Du        
   1408 ****       277.7500 316.5000 -75.5000 Du        
   1409 ****       277.7500 316.5000 -75.2500 Du        
   1410 ****       277.7500 316.5000 -75.0000 Du        
   1411 ****       277.7500 316.5000 -74.7500 Du        
   1412 ****       277.7500 316.5000 -74.5000 Du        
   1413 ****       277.7500 316.5000 -74.2500 Du        
   1414 ****       277.7500 316.5000 -74.0000 Du        
   1415 ****       277.7500 316.7500 -76.7500 Du        
   1416 ****       277.7500 316.7500 -76.5000 Du        
   1417 ****       277.7500 316.7500 -76.2500 Du        
   1418 ****       277.7500 316.7500 -76.0000 Du        
   1419 ****       277.7500 316.7500 -75.7500 Du        
   1420 ****       277.7500 316.7500 -75.5000 Du        
   1421 ****       277.7500 316.7500 -75.2500 Du        
   1422 ****       277.7500 316.7500 -75.0000 Du        
   1423 ****       277.7500 316.7500 -74.7500 Du        
   1424 ****       277.7500 316.7500 -74.5000 Du        
   1425 ****       277.7500 316.7500 -74.2500 Du        
   1426 ****       277.7500 316.7500 -74.0000 Du        
   1427 ****       277.7500 317.0000 -76.2500 Du        
   1428 ****       277.7500 317.0000 -76.0000 Du        
   1429 ****       277.7500 317.0000 -75.7500 Du        
   1430 ****       277.7500 317.0000 -75.5000 Du        
   1431 ****       277.7500 317.0000 -75.2500 Du        
   1432 ****       277.7500 317.0000 -75.0000 Du        
   1433 ****       277.7500 317.0000 -74.7500 Du        
   1434 ****       277.7500 317.0000 -74.5000 Du        
   1435 ****       277.7500 317.0000 -74.2500 Du        
   1436 ****       277.7500 317.0000 -74.0000 Du        
   1437 ****       277.7500 317.2500 -76.0000 Du        
   1438 ****       277.7500 317.2500 -75.7500 Du        
   1439 ****       277.7500 317.2500 -75.5000 Du        
   1440 ****       277.7500 317.2500 -75.2500 Du        
   1441 ****       277.7500 317.2500 -75.0000 Du        
   1442 ****       277.7500 317.2500 -74.7500 Du        
   1443 ****       277.7500 317.2500 -74.5000 Du        
   1444 ****       277.7500 317.2500 -74.2500 Du        
   1445 ****       277.7500 317.5000 -75.7500 Du        
   1446 ****       277.7500 317.5000 -75.5000 Du        
   1447 ****       277.7500 317.5000 -75.2500 Du        
   1448 ****       277.7500 317.5000 -75.0000 Du        
   1449 ****       277.7500 317.5000 -74.7500 Du        
   1450 ****       277.7500 317.5000 -74.5000 Du        
   1451 ****       277.7500 317.5000 -74.2500 Du        
   1452 ****       277.7500 317.7500 -75.7500 Du        
   1453 ****       277.7500 317.7500 -75.5000 Du        
   1454 ****       277.7500 317.7500 -75.2500 Du        
   1455 ****       277.7500 317.7500 -75.0000 Du        
   1456 ****       277.7500 317.7500 -74.7500 Du        
   1457 ****       277.7500 317.7500 -74.5000 Du        
   1458 ****       277.7500 318.0000 -75.5000 Du        
   1459 ****       277.7500 318.0000 -75.2500 Du        
   1460 ****       277.7500 318.0000 -75.0000 Du        
   1461 ****       278.0000 314.5000 -72.7500 Du        
   1462 ****       278.0000 314.7500 -73.5000 Du        
   1463 ****       278.0000 314.7500 -73.2500 Du        
   1464 ****       278.0000 314.7500 -73.0000 Du        
   1465 ****       278.0000 314.7500 -72.7500 Du        
   1466 ****       278.0000 314.7500 -72.5000 Du        
   1467 ****       278.0000 315.0000 -74.0000 Du        
   1468 ****       278.0000 315.0000 -73.7500 Du        
   1469 ****       278.0000 315.0000 -73.5000 Du        
   1470 ****       278.0000 315.0000 -73.2500 Du        
   1471 ****       278.0000 315.0000 -73.0000 Du        
   1472 ****       278.0000 315.0000 -72.7500 Du        
   1473 ****       278.0000 315.0000 -72.5000 Du        
   1474 ****       278.0000 315.2500 -74.2500 Du        
   1475 ****       278.0000 315.2500 -74.0000 Du        
   1476 ****       278.0000 315.2500 -73.7500 Du        
   1477 ****       278.0000 315.2500 -73.5000 Du        
   1478 ****       278.0000 315.2500 -73.2500 Du        
   1479 ****       278.0000 315.2500 -73.0000 Du        
   1480 ****       278.0000 315.2500 -72.7500 Du        
   1481 ****       278.0000 315.5000 -74.5000 Du        
   1482 ****       278.0000 315.5000 -74.2500 Du        
   1483 ****       278.0000 315.5000 -74.0000 Du        
   1484 ****       278.0000 315.5000 -73.7500 Du        
   1485 ****       278.0000 315.5000 -73.5000 Du        
   1486 ****       278.0000 315.5000 -73.2500 Du        
   1487 ****       278.0000 315.7500 -74.7500 Du        
   1488 ****       278.0000 315.7500 -74.5000 Du        
   1489 ****       278.0000 315.7500 -74.2500 Du        
   1490 ****       278.0000 315.7500 -74.0000 Du        
   1491 ****       278.0000 315.7500 -73.7500 Du        
   1492 ****       278.0000 315.7500 -73.5000 Du        
   1493 ****       278.0000 316.0000 -79.2500 Du        
   1494 ****       278.0000 316.0000 -79.0000 Du        
   1495 ****       278.0000 316.0000 -78.7500 Du        
   1496 ****       278.0000 316.0000 -75.2500 Du        
   1497 ****       278.0000 316.0000 -75.0000 Du        
   1498 ****       278.0000 316.0000 -74.7500 Du        
   1499 ****       278.0000 316.0000 -74.5000 Du        
   1500 ****       278.0000 316.0000 -74.2500 Du        
   1501 ****       278.0000 316.0000 -74.0000 Du        
   1502 ****       278.0000 316.0000 -73.7500 Du        
   1503 ****       278.0000 316.2500 -79.0000 Du        
   1504 ****       278.0000 316.2500 -78.7500 Du        
   1505 ****       278.0000 316.2500 -75.7500 Du        
   1506 ****       278.0000 316.2500 -75.5000 Du        
   1507 ****       278.0000 316.2500 -75.2500 Du        
   1508 ****       278.0000 316.2500 -75.0000 Du        
   1509 ****       278.0000 316.2500 -74.7500 Du        
   1510 ****       278.0000 316.2500 -74.5000 Du        
   1511 ****       278.0000 316.2500 -74.2500 Du        
   1512 ****       278.0000 316.2500 -74.0000 Du        
   1513 ****       278.0000 316.5000 -76.0000 Du        
   1514 ****       278.0000 316.5000 -75.7500 Du        
   1515 ****       278.0000 316.5000 -75.5000 Du        
   1516 ****       278.0000 316.5000 -75.2500 Du        
   1517 ****       278.0000 316.5000 -75.0000 Du        
   1518 ****       278.0000 316.5000 -74.7500 Du        
   1519 ****       278.0000 316.5000 -74.5000 Du        
   1520 ****       278.0000 316.5000 -74.2500 Du        
   1521 ****       278.0000 316.5000 -74.0000 Du        
   1522 ****       278.0000 316.7500 -76.2500 Du        
   1523 ****       278.0000 316.7500 -76.0000 Du        
   1524 ****       278.0000 316.7500 -75.7500 Du        
   1525 ****       278.0000 316.7500 -75.5000 Du        
   1526 ****       278.0000 316.7500 -75.2500 Du        
   1527 ****       278.0000 316.7500 -75.0000 Du        
   1528 ****       278.0000 316.7500 -74.7500 Du        
   1529 ****       278.0000 316.7500 -74.5000 Du        
   1530 ****       278.0000 316.7500 -74.2500 Du        
   1531 ****       278.0000 316.7500 -74.0000 Du        
   1532 ****       278.0000 317.0000 -76.0000 Du        
   1533 ****       278.0000 317.0000 -75.7500 Du        
   1534 ****       278.0000 317.0000 -75.5000 Du        
   1535 ****       278.0000 317.0000 -75.2500 Du        
   1536 ****       278.0000 317.0000 -75.0000 Du        
   1537 ****       278.0000 317.0000 -74.7500 Du        
   1538 ****       278.0000 317.0000 -74.5000 Du        
   1539 ****       278.0000 317.0000 -74.2500 Du        
   1540 ****       278.0000 317.0000 -74.0000 Du        
   1541 ****       278.0000 317.2500 -75.7500 Du        
   1542 ****       278.0000 317.2500 -75.5000 Du        
   1543 ****       278.0000 317.2500 -75.2500 Du        
   1544 ****       278.0000 317.2500 -75.0000 Du        
   1545 ****       278.0000 317.2500 -74.7500 Du        
   1546 ****       278.0000 317.2500 -74.5000 Du        
   1547 ****       278.0000 317.2500 -74.2500 Du        
   1548 ****       278.0000 317.2500 -74.0000 Du        
   1549 ****       278.0000 317.5000 -75.5000 Du        
   1550 ****       278.0000 317.5000 -75.2500 Du        
   1551 ****       278.0000 317.5000 -75.0000 Du        
   1552 ****       278.0000 317.5000 -74.7500 Du        
   1553 ****       278.0000 317.5000 -74.5000 Du        
   1554 ****       278.0000 317.5000 -74.2500 Du        
   1555 ****       278.0000 317.5000 -74.0000 Du        
   1556 ****       278.0000 317.7500 -75.2500 Du        
   1557 ****       278.0000 317.7500 -75.0000 Du        
   1558 ****       278.0000 317.7500 -74.7500 Du        
   1559 ****       278.0000 317.7500 -74.5000 Du        
   1560 ****       278.0000 317.7500 -74.2500 Du        
   1561 ****       278.0000 318.0000 -75.0000 Du        
   1562 ****       278.2500 314.5000 -73.5000 Du        
   1563 ****       278.2500 314.5000 -73.2500 Du        
   1564 ****       278.2500 314.5000 -73.0000 Du        
   1565 ****       278.2500 314.5000 -72.7500 Du        
   1566 ****       278.2500 314.5000 -72.5000 Du        
   1567 ****       278.2500 314.5000 -72.2500 Du        
   1568 ****       278.2500 314.7500 -74.0000 Du        
   1569 ****       278.2500 314.7500 -73.7500 Du        
   1570 ****       278.2500 314.7500 -73.5000 Du        
   1571 ****       278.2500 314.7500 -73.2500 Du        
   1572 ****       278.2500 314.7500 -73.0000 Du        
   1573 ****       278.2500 314.7500 -72.7500 Du        
   1574 ****       278.2500 314.7500 -72.5000 Du        
   1575 ****       278.2500 314.7500 -72.2500 Du        
   1576 ****       278.2500 314.7500 -72.0000 Du        
   1577 ****       278.2500 315.0000 -74.2500 Du        
   1578 ****       278.2500 315.0000 -74.0000 Du        
   1579 ****       278.2500 315.0000 -73.7500 Du        
   1580 ****       278.2500 315.0000 -73.5000 Du        
   1581 ****       278.2500 315.0000 -73.2500 Du        
   1582 ****       278.2500 315.0000 -73.0000 Du        
   1583 ****       278.2500 315.0000 -72.7500 Du        
   1584 ****       278.2500 315.0000 -72.5000 Du        
   1585 ****       278.2500 315.0000 -72.2500 Du        
   1586 ****       278.2500 315.0000 -72.0000 Du        
   1587 ****       278.2500 315.2500 -74.5000 Du        
   1588 ****       278.2500 315.2500 -74.2500 Du        
   1589 ****       278.2500 315.2500 -74.0000 Du        
   1590 ****       278.2500 315.2500 -73.7500 Du        
   1591 ****       278.2500 315.2500 -73.5000 Du        
   1592 ****       278.2500 315.2500 -73.2500 Du        
   1593 ****       278.2500 315.2500 -73.0000 Du        
   1594 ****       278.2500 315.2500 -72.7500 Du        
   1595 ****       278.2500 315.2500 -72.5000 Du        
   1596 ****       278.2500 315.2500 -72.2500 Du        
   1597 ****       278.2500 315.5000 -74.5000 Du        
   1598 ****       278.2500 315.5000 -74.2500 Du        
   1599 ****       278.2500 315.5000 -74.0000 Du        
   1600 ****       278.2500 315.5000 -73.7500 Du        
   1601 ****       278.2500 315.5000 -73.5000 Du        
   1602 ****       278.2500 315.5000 -73.2500 Du        
   1603 ****       278.2500 315.5000 -73.0000 Du        
   1604 ****       278.2500 315.7500 -79.2500 Du        
   1605 ****       278.2500 315.7500 -75.0000 Du        
   1606 ****       278.2500 315.7500 -74.7500 Du        
   1607 ****       278.2500 315.7500 -74.5000 Du        
   1608 ****       278.2500 315.7500 -74.2500 Du        
   1609 ****       278.2500 315.7500 -74.0000 Du        
   1610 ****       278.2500 315.7500 -73.7500 Du        
   1611 ****       278.2500 315.7500 -73.5000 Du        
   1612 ****       278.2500 315.7500 -73.2500 Du        
   1613 ****       278.2500 316.0000 -79.2500 Du        
   1614 ****       278.2500 316.0000 -79.0000 Du        
   1615 ****       278.2500 316.0000 -78.7500 Du        
   1616 ****       278.2500 316.0000 -75.2500 Du        
   1617 ****       278.2500 316.0000 -75.0000 Du        
   1618 ****       278.2500 316.0000 -74.7500 Du        
   1619 ****       278.2500 316.0000 -74.5000 Du        
   1620 ****       278.2500 316.0000 -74.2500 Du        
   1621 ****       278.2500 316.0000 -74.0000 Du        
   1622 ****       278.2500 316.0000 -73.7500 Du        
   1623 ****       278.2500 316.0000 -73.5000 Du        
   1624 ****       278.2500 316.2500 -79.2500 Du        
   1625 ****       278.2500 316.2500 -79.0000 Du        
   1626 ****       278.2500 316.2500 -78.7500 Du        
   1627 ****       278.2500 316.2500 -75.7500 Du        
   1628 ****       278.2500 316.2500 -75.5000 Du        
   1629 ****       278.2500 316.2500 -75.2500 Du        
   1630 ****       278.2500 316.2500 -75.0000 Du        
   1631 ****       278.2500 316.2500 -74.7500 Du        
   1632 ****       278.2500 316.2500 -74.5000 Du        
   1633 ****       278.2500 316.2500 -74.2500 Du        
   1634 ****       278.2500 316.2500 -74.0000 Du        
   1635 ****       278.2500 316.2500 -73.7500 Du        
   1636 ****       278.2500 316.5000 -75.7500 Du        
   1637 ****       278.2500 316.5000 -75.5000 Du        
   1638 ****       278.2500 316.5000 -75.2500 Du        
   1639 ****       278.2500 316.5000 -75.0000 Du        
   1640 ****       278.2500 316.5000 -74.7500 Du        
   1641 ****       278.2500 316.5000 -74.5000 Du        
   1642 ****       278.2500 316.5000 -74.2500 Du        
   1643 ****       278.2500 316.5000 -74.0000 Du        
   1644 ****       278.2500 316.5000 -73.7500 Du        
   1645 ****       278.2500 316.7500 -75.7500 Du        
   1646 ****       278.2500 316.7500 -75.5000 Du        
   1647 ****       278.2500 316.7500 -75.2500 Du        
   1648 ****       278.2500 316.7500 -75.0000 Du        
   1649 ****       278.2500 316.7500 -74.7500 Du        
   1650 ****       278.2500 316.7500 -74.5000 Du        
   1651 ****       278.2500 316.7500 -74.2500 Du        
   1652 ****       278.2500 316.7500 -74.0000 Du        
   1653 ****       278.2500 316.7500 -73.7500 Du        
   1654 ****       278.2500 317.0000 -75.5000 Du        
   1655 ****       278.2500 317.0000 -75.2500 Du        
   1656 ****       278.2500 317.0000 -75.0000 Du        
   1657 ****       278.2500 317.0000 -74.7500 Du        
   1658 ****       278.2500 317.0000 -74.5000 Du        
   1659 ****       278.2500 317.0000 -74.2500 Du        
   1660 ****       278.2500 317.0000 -74.0000 Du        
   1661 ****       278.2500 317.0000 -73.7500 Du        
   1662 ****       278.2500 317.2500 -75.5000 Du        
   1663 ****       278.2500 317.2500 -75.2500 Du        
   1664 ****       278.2500 317.2500 -75.0000 Du        
   1665 ****       278.2500 317.2500 -74.7500 Du        
   1666 ****       278.2500 317.2500 -74.5000 Du        
   1667 ****       278.2500 317.2500 -74.2500 Du        
   1668 ****       278.2500 317.2500 -74.0000 Du        
   1669 ****       278.2500 317.2500 -73.7500 Du        
   1670 ****       278.2500 317.5000 -75.2500 Du        
   1671 ****       278.2500 317.5000 -75.0000 Du        
   1672 ****       278.2500 317.5000 -74.7500 Du        
   1673 ****       278.2500 317.5000 -74.5000 Du        
   1674 ****       278.2500 317.5000 -74.2500 Du        
   1675 ****       278.2500 317.5000 -74.0000 Du        
   1676 ****       278.2500 317.7500 -75.0000 Du        
   1677 ****       278.2500 317.7500 -74.7500 Du        
   1678 ****       278.2500 317.7500 -74.5000 Du        
   1679 ****       278.2500 317.7500 -74.2500 Du        
   1680 ****       278.2500 317.7500 -74.0000 Du        
   1681 ****       278.5000 314.2500 -72.7500 Du        
   1682 ****       278.5000 314.2500 -72.5000 Du        
   1683 ****       278.5000 314.2500 -72.2500 Du        
   1684 ****       278.5000 314.2500 -72.0000 Du        
   1685 ****       278.5000 314.5000 -73.7500 Du        
   1686 ****       278.5000 314.5000 -73.5000 Du        
   1687 ****       278.5000 314.5000 -73.2500 Du        
   1688 ****       278.5000 314.5000 -73.0000 Du        
   1689 ****       278.5000 314.5000 -72.7500 Du        
   1690 ****       278.5000 314.5000 -72.5000 Du        
   1691 ****       278.5000 314.5000 -72.2500 Du        
   1692 ****       278.5000 314.5000 -72.0000 Du        
   1693 ****       278.5000 314.7500 -74.2500 Du        
   1694 ****       278.5000 314.7500 -74.0000 Du        
   1695 ****       278.5000 314.7500 -73.7500 Du        
   1696 ****       278.5000 314.7500 -73.5000 Du        
   1697 ****       278.5000 314.7500 -73.2500 Du        
   1698 ****       278.5000 314.7500 -73.0000 Du        
   1699 ****       278.5000 314.7500 -72.7500 Du        
   1700 ****       278.5000 314.7500 -72.5000 Du        
   1701 ****       278.5000 314.7500 -72.2500 Du        
   1702 ****       278.5000 314.7500 -72.0000 Du        
   1703 ****       278.5000 314.7500 -71.7500 Du        
   1704 ****       278.5000 315.0000 -74.5000 Du        
   1705 ****       278.5000 315.0000 -74.2500 Du        
   1706 ****       278.5000 315.0000 -74.0000 Du        
   1707 ****       278.5000 315.0000 -73.7500 Du        
   1708 ****       278.5000 315.0000 -73.5000 Du        
   1709 ****       278.5000 315.0000 -73.2500 Du        
   1710 ****       278.5000 315.0000 -73.0000 Du        
   1711 ****       278.5000 315.0000 -72.7500 Du        
   1712 ****       278.5000 315.0000 -72.5000 Du        
   1713 ****       278.5000 315.0000 -72.2500 Du        
   1714 ****       278.5000 315.0000 -72.0000 Du        
   1715 ****       278.5000 315.0000 -71.7500 Du        
   1716 ****       278.5000 315.2500 -74.5000 Du        
   1717 ****       278.5000 315.2500 -74.2500 Du        
   1718 ****       278.5000 315.2500 -74.0000 Du        
   1719 ****       278.5000 315.2500 -73.7500 Du        
   1720 ****       278.5000 315.2500 -73.5000 Du        
   1721 ****       278.5000 315.2500 -73.2500 Du        
   1722 ****       278.5000 315.2500 -73.0000 Du        
   1723 ****       278.5000 315.2500 -72.7500 Du        
   1724 ****       278.5000 315.2500 -72.5000 Du        
   1725 ****       278.5000 315.2500 -72.2500 Du        
   1726 ****       278.5000 315.2500 -72.0000 Du        
   1727 ****       278.5000 315.5000 -74.7500 Du        
   1728 ****       278.5000 315.5000 -74.5000 Du        
   1729 ****       278.5000 315.5000 -74.2500 Du        
   1730 ****       278.5000 315.5000 -74.0000 Du        
   1731 ****       278.5000 315.5000 -73.7500 Du        
   1732 ****       278.5000 315.5000 -73.5000 Du        
   1733 ****       278.5000 315.5000 -73.2500 Du        
   1734 ****       278.5000 315.5000 -73.0000 Du        
   1735 ****       278.5000 315.5000 -72.7500 Du        
   1736 ****       278.5000 315.5000 -72.5000 Du        
   1737 ****       278.5000 315.7500 -79.2500 Du        
   1738 ****       278.5000 315.7500 -75.0000 Du        
   1739 ****       278.5000 315.7500 -74.7500 Du        
   1740 ****       278.5000 315.7500 -74.5000 Du        
   1741 ****       278.5000 315.7500 -74.2500 Du        
   1742 ****       278.5000 315.7500 -74.0000 Du        
   1743 ****       278.5000 315.7500 -73.7500 Du        
   1744 ****       278.5000 315.7500 -73.5000 Du        
   1745 ****       278.5000 315.7500 -73.2500 Du        
   1746 ****       278.5000 315.7500 -73.0000 Du        
   1747 ****       278.5000 316.0000 -79.2500 Du        
   1748 ****       278.5000 316.0000 -79.0000 Du        
   1749 ****       278.5000 316.0000 -75.2500 Du        
   1750 ****       278.5000 316.0000 -75.0000 Du        
   1751 ****       278.5000 316.0000 -74.7500 Du        
   1752 ****       278.5000 316.0000 -74.5000 Du        
   1753 ****       278.5000 316.0000 -74.2500 Du        
   1754 ****       278.5000 316.0000 -74.0000 Du        
   1755 ****       278.5000 316.0000 -73.7500 Du        
   1756 ****       278.5000 316.0000 -73.5000 Du        
   1757 ****       278.5000 316.0000 -73.2500 Du        
   1758 ****       278.5000 316.2500 -75.5000 Du        
   1759 ****       278.5000 316.2500 -75.2500 Du        
   1760 ****       278.5000 316.2500 -75.0000 Du        
   1761 ****       278.5000 316.2500 -74.7500 Du        
   1762 ****       278.5000 316.2500 -74.5000 Du        
   1763 ****       278.5000 316.2500 -74.2500 Du        
   1764 ****       278.5000 316.2500 -74.0000 Du        
   1765 ****       278.5000 316.2500 -73.7500 Du        
   1766 ****       278.5000 316.2500 -73.5000 Du        
   1767 ****       278.5000 316.5000 -75.5000 Du        
   1768 ****       278.5000 316.5000 -75.2500 Du        
   1769 ****       278.5000 316.5000 -75.0000 Du        
   1770 ****       278.5000 316.5000 -74.7500 Du        
   1771 ****       278.5000 316.5000 -74.5000 Du        
   1772 ****       278.5000 316.5000 -74.2500 Du        
   1773 ****       278.5000 316.5000 -74.0000 Du        
   1774 ****       278.5000 316.5000 -73.7500 Du        
   1775 ****       278.5000 316.7500 -75.5000 Du        
   1776 ****       278.5000 316.7500 -75.2500 Du        
   1777 ****       278.5000 316.7500 -75.0000 Du        
   1778 ****       278.5000 316.7500 -74.7500 Du        
   1779 ****       278.5000 316.7500 -74.5000 Du        
   1780 ****       278.5000 316.7500 -74.2500 Du        
   1781 ****       278.5000 316.7500 -74.0000 Du        
   1782 ****       278.5000 316.7500 -73.7500 Du        
   1783 ****       278.5000 317.0000 -75.2500 Du        
   1784 ****       278.5000 317.0000 -75.0000 Du        
   1785 ****       278.5000 317.0000 -74.7500 Du        
   1786 ****       278.5000 317.0000 -74.5000 Du        
   1787 ****       278.5000 317.0000 -74.2500 Du        
   1788 ****       278.5000 317.0000 -74.0000 Du        
   1789 ****       278.5000 317.0000 -73.7500 Du        
   1790 ****       278.5000 317.2500 -75.2500 Du        
   1791 ****       278.5000 317.2500 -75.0000 Du        
   1792 ****       278.5000 317.2500 -74.7500 Du        
   1793 ****       278.5000 317.2500 -74.5000 Du        
   1794 ****       278.5000 317.2500 -74.2500 Du        
   1795 ****       278.5000 317.2500 -74.0000 Du        
   1796 ****       278.5000 317.2500 -73.7500 Du        
   1797 ****       278.5000 317.5000 -75.0000 Du        
   1798 ****       278.5000 317.5000 -74.7500 Du        
   1799 ****       278.5000 317.5000 -74.5000 Du        
   1800 ****       278.5000 317.5000 -74.2500 Du        
   1801 ****       278.5000 317.5000 -74.0000 Du        
   1802 ****       278.5000 317.5000 -73.7500 Du        
   1803 ****       278.5000 317.7500 -74.7500 Du        
   1804 ****       278.5000 317.7500 -74.5000 Du        
   1805 ****       278.5000 317.7500 -74.2500 Du        
   1806 ****       278.5000 317.7500 -74.0000 Du        
   1807 ****       278.7500 314.0000 -72.2500 Du        
   1808 ****       278.7500 314.0000 -72.0000 Du        
   1809 ****       278.7500 314.2500 -80.5000 Du        
   1810 ****       278.7500 314.2500 -80.2500 Du        
   1811 ****       278.7500 314.2500 -73.5000 Du        
   1812 ****       278.7500 314.2500 -73.2500 Du        
   1813 ****       278.7500 314.2500 -73.0000 Du        
   1814 ****       278.7500 314.2500 -72.7500 Du        
   1815 ****       278.7500 314.2500 -72.5000 Du        
   1816 ****       278.7500 314.2500 -72.2500 Du        
   1817 ****       278.7500 314.2500 -72.0000 Du        
   1818 ****       278.7500 314.2500 -71.7500 Du        
   1819 ****       278.7500 314.5000 -80.2500 Du        
   1820 ****       278.7500 314.5000 -74.0000 Du        
   1821 ****       278.7500 314.5000 -73.7500 Du        
   1822 ****       278.7500 314.5000 -73.5000 Du        
   1823 ****       278.7500 314.5000 -73.2500 Du        
   1824 ****       278.7500 314.5000 -73.0000 Du        
   1825 ****       278.7500 314.5000 -72.7500 Du        
   1826 ****       278.7500 314.5000 -72.5000 Du        
   1827 ****       278.7500 314.5000 -72.2500 Du        
   1828 ****       278.7500 314.5000 -72.0000 Du        
   1829 ****       278.7500 314.5000 -71.7500 Du        
   1830 ****       278.7500 314.7500 -80.2500 Du        
   1831 ****       278.7500 314.7500 -80.0000 Du        
   1832 ****       278.7500 314.7500 -74.2500 Du        
   1833 ****       278.7500 314.7500 -74.0000 Du        
   1834 ****       278.7500 314.7500 -73.7500 Du        
   1835 ****       278.7500 314.7500 -73.5000 Du        
   1836 ****       278.7500 314.7500 -73.2500 Du        
   1837 ****       278.7500 314.7500 -73.0000 Du        
   1838 ****       278.7500 314.7500 -72.7500 Du        
   1839 ****       278.7500 314.7500 -72.5000 Du        
   1840 ****       278.7500 314.7500 -72.2500 Du        
   1841 ****       278.7500 314.7500 -72.0000 Du        
   1842 ****       278.7500 314.7500 -71.7500 Du        
   1843 ****       278.7500 314.7500 -71.5000 Du        
   1844 ****       278.7500 315.0000 -80.0000 Du        
   1845 ****       278.7500 315.0000 -79.7500 Du        
   1846 ****       278.7500 315.0000 -74.5000 Du        
   1847 ****       278.7500 315.0000 -74.2500 Du        
   1848 ****       278.7500 315.0000 -74.0000 Du        
   1849 ****       278.7500 315.0000 -73.7500 Du        
   1850 ****       278.7500 315.0000 -73.5000 Du        
   1851 ****       278.7500 315.0000 -73.2500 Du        
   1852 ****       278.7500 315.0000 -73.0000 Du        
   1853 ****       278.7500 315.0000 -72.7500 Du        
   1854 ****       278.7500 315.0000 -72.5000 Du        
   1855 ****       278.7500 315.0000 -72.2500 Du        
   1856 ****       278.7500 315.0000 -72.0000 Du        
   1857 ****       278.7500 315.0000 -71.7500 Du        
   1858 ****       278.7500 315.0000 -71.5000 Du        
   1859 ****       278.7500 315.2500 -80.0000 Du        
   1860 ****       278.7500 315.2500 -79.7500 Du        
   1861 ****       278.7500 315.2500 -79.5000 Du        
   1862 ****       278.7500 315.2500 -74.7500 Du        
   1863 ****       278.7500 315.2500 -74.5000 Du        
   1864 ****       278.7500 315.2500 -74.2500 Du        
   1865 ****       278.7500 315.2500 -74.0000 Du        
   1866 ****       278.7500 315.2500 -73.7500 Du        
   1867 ****       278.7500 315.2500 -73.5000 Du        
   1868 ****       278.7500 315.2500 -73.2500 Du        
   1869 ****       278.7500 315.2500 -73.0000 Du        
   1870 ****       278.7500 315.2500 -72.7500 Du        
   1871 ****       278.7500 315.2500 -72.5000 Du        
   1872 ****       278.7500 315.2500 -72.2500 Du        
   1873 ****       278.7500 315.2500 -72.0000 Du        
   1874 ****       278.7500 315.2500 -71.7500 Du        
   1875 ****       278.7500 315.5000 -79.7500 Du        
   1876 ****       278.7500 315.5000 -79.5000 Du        
   1877 ****       278.7500 315.5000 -74.7500 Du        
   1878 ****       278.7500 315.5000 -74.5000 Du        
   1879 ****       278.7500 315.5000 -74.2500 Du        
   1880 ****       278.7500 315.5000 -74.0000 Du        
   1881 ****       278.7500 315.5000 -73.7500 Du        
   1882 ****       278.7500 315.5000 -73.5000 Du        
   1883 ****       278.7500 315.5000 -73.2500 Du        
   1884 ****       278.7500 315.5000 -73.0000 Du        
   1885 ****       278.7500 315.5000 -72.7500 Du        
   1886 ****       278.7500 315.5000 -72.5000 Du        
   1887 ****       278.7500 315.5000 -72.2500 Du        
   1888 ****       278.7500 315.7500 -79.7500 Du        
   1889 ****       278.7500 315.7500 -79.5000 Du        
   1890 ****       278.7500 315.7500 -79.2500 Du        
   1891 ****       278.7500 315.7500 -79.0000 Du        
   1892 ****       278.7500 315.7500 -75.0000 Du        
   1893 ****       278.7500 315.7500 -74.7500 Du        
   1894 ****       278.7500 315.7500 -74.5000 Du        
   1895 ****       278.7500 315.7500 -74.2500 Du        
   1896 ****       278.7500 315.7500 -74.0000 Du        
   1897 ****       278.7500 315.7500 -73.7500 Du        
   1898 ****       278.7500 315.7500 -73.5000 Du        
   1899 ****       278.7500 315.7500 -73.2500 Du        
   1900 ****       278.7500 315.7500 -73.0000 Du        
   1901 ****       278.7500 315.7500 -72.7500 Du        
   1902 ****       278.7500 316.0000 -79.7500 Du        
   1903 ****       278.7500 316.0000 -79.5000 Du        
   1904 ****       278.7500 316.0000 -79.2500 Du        
   1905 ****       278.7500 316.0000 -79.0000 Du        
   1906 ****       278.7500 316.0000 -75.2500 Du        
   1907 ****       278.7500 316.0000 -75.0000 Du        
   1908 ****       278.7500 316.0000 -74.7500 Du        
   1909 ****       278.7500 316.0000 -74.5000 Du        
   1910 ****       278.7500 316.0000 -74.2500 Du        
   1911 ****       278.7500 316.0000 -74.0000 Du        
   1912 ****       278.7500 316.0000 -73.7500 Du        
   1913 ****       278.7500 316.0000 -73.5000 Du        
   1914 ****       278.7500 316.0000 -73.2500 Du        
   1915 ****       278.7500 316.0000 -73.0000 Du        
   1916 ****       278.7500 316.2500 -75.5000 Du        
   1917 ****       278.7500 316.2500 -75.2500 Du        
   1918 ****       278.7500 316.2500 -75.0000 Du        
   1919 ****       278.7500 316.2500 -74.7500 Du        
   1920 ****       278.7500 316.2500 -74.5000 Du        
   1921 ****       278.7500 316.2500 -74.2500 Du        
   1922 ****       278.7500 316.2500 -74.0000 Du        
   1923 ****       278.7500 316.2500 -73.7500 Du        
   1924 ****       278.7500 316.2500 -73.5000 Du        
   1925 ****       278.7500 316.5000 -75.5000 Du        
   1926 ****       278.7500 316.5000 -75.2500 Du        
   1927 ****       278.7500 316.5000 -75.0000 Du        
   1928 ****       278.7500 316.5000 -74.7500 Du        
   1929 ****       278.7500 316.5000 -74.5000 Du        
   1930 ****       278.7500 316.5000 -74.2500 Du        
   1931 ****       278.7500 316.5000 -74.0000 Du        
   1932 ****       278.7500 316.5000 -73.7500 Du        
   1933 ****       278.7500 316.5000 -73.5000 Du        
   1934 ****       278.7500 316.7500 -75.2500 Du        
   1935 ****       278.7500 316.7500 -75.0000 Du        
   1936 ****       278.7500 316.7500 -74.7500 Du        
   1937 ****       278.7500 316.7500 -74.5000 Du        
   1938 ****       278.7500 316.7500 -74.2500 Du        
   1939 ****       278.7500 316.7500 -74.0000 Du        
   1940 ****       278.7500 316.7500 -73.7500 Du        
   1941 ****       278.7500 316.7500 -73.5000 Du        
   1942 ****       278.7500 317.0000 -75.2500 Du        
   1943 ****       278.7500 317.0000 -75.0000 Du        
   1944 ****       278.7500 317.0000 -74.7500 Du        
   1945 ****       278.7500 317.0000 -74.5000 Du        
   1946 ****       278.7500 317.0000 -74.2500 Du        
   1947 ****       278.7500 317.0000 -74.0000 Du        
   1948 ****       278.7500 317.0000 -73.7500 Du        
   1949 ****       278.7500 317.2500 -75.0000 Du        
   1950 ****       278.7500 317.2500 -74.7500 Du        
   1951 ****       278.7500 317.2500 -74.5000 Du        
   1952 ****       278.7500 317.2500 -74.2500 Du        
   1953 ****       278.7500 317.2500 -74.0000 Du        
   1954 ****       278.7500 317.2500 -73.7500 Du        
   1955 ****       278.7500 317.5000 -74.7500 Du        
   1956 ****       278.7500 317.5000 -74.5000 Du        
   1957 ****       278.7500 317.5000 -74.2500 Du        
   1958 ****       278.7500 317.5000 -74.0000 Du        
   1959 ****       278.7500 317.5000 -73.7500 Du        
   1960 ****       278.7500 317.7500 -74.7500 Du        
   1961 ****       278.7500 317.7500 -74.5000 Du        
   1962 ****       278.7500 317.7500 -74.2500 Du        
   1963 ****       278.7500 317.7500 -74.0000 Du        
   1964 ****       278.7500 317.7500 -73.7500 Du        
   1965 ****       278.7500 318.0000 -74.2500 Du        
   1966 ****       279.0000 314.0000 -72.7500 Du        
   1967 ****       279.0000 314.0000 -72.5000 Du        
   1968 ****       279.0000 314.0000 -72.2500 Du        
   1969 ****       279.0000 314.0000 -72.0000 Du        
   1970 ****       279.0000 314.0000 -71.7500 Du        
   1971 ****       279.0000 314.0000 -71.5000 Du        
   1972 ****       279.0000 314.2500 -80.7500 Du        
   1973 ****       279.0000 314.2500 -80.5000 Du        
   1974 ****       279.0000 314.2500 -80.2500 Du        
   1975 ****       279.0000 314.2500 -74.0000 Du        
   1976 ****       279.0000 314.2500 -73.7500 Du        
   1977 ****       279.0000 314.2500 -73.5000 Du        
   1978 ****       279.0000 314.2500 -73.2500 Du        
   1979 ****       279.0000 314.2500 -73.0000 Du        
   1980 ****       279.0000 314.2500 -72.7500 Du        
   1981 ****       279.0000 314.2500 -72.5000 Du        
   1982 ****       279.0000 314.2500 -72.2500 Du        
   1983 ****       279.0000 314.2500 -72.0000 Du        
   1984 ****       279.0000 314.2500 -71.7500 Du        
   1985 ****       279.0000 314.2500 -71.5000 Du        
   1986 ****       279.0000 314.5000 -80.7500 Du        
   1987 ****       279.0000 314.5000 -80.5000 Du        
   1988 ****       279.0000 314.5000 -80.2500 Du        
   1989 ****       279.0000 314.5000 -80.0000 Du        
   1990 ****       279.0000 314.5000 -74.2500 Du        
   1991 ****       279.0000 314.5000 -74.0000 Du        
   1992 ****       279.0000 314.5000 -73.7500 Du        
   1993 ****       279.0000 314.5000 -73.5000 Du        
   1994 ****       279.0000 314.5000 -73.2500 Du        
   1995 ****       279.0000 314.5000 -73.0000 Du        
   1996 ****       279.0000 314.5000 -72.7500 Du        
   1997 ****       279.0000 314.5000 -72.5000 Du        
   1998 ****       279.0000 314.5000 -72.2500 Du        
   1999 ****       279.0000 314.5000 -72.0000 Du        
   2000 ****       279.0000 314.5000 -71.7500 Du        
   2001 ****       279.0000 314.5000 -71.5000 Du        
   2002 ****       279.0000 314.7500 -80.5000 Du        
   2003 ****       279.0000 314.7500 -80.2500 Du        
   2004 ****       279.0000 314.7500 -80.0000 Du        
   2005 ****       279.0000 314.7500 -79.7500 Du        
   2006 ****       279.0000 314.7500 -74.5000 Du        
   2007 ****       279.0000 314.7500 -74.2500 Du        
   2008 ****       279.0000 314.7500 -74.0000 Du        
   2009 ****       279.0000 314.7500 -73.7500 Du        
   2010 ****       279.0000 314.7500 -73.5000 Du        
   2011 ****       279.0000 314.7500 -73.2500 Du        
   2012 ****       279.0000 314.7500 -73.0000 Du        
   2013 ****       279.0000 314.7500 -72.7500 Du        
   2014 ****       279.0000 314.7500 -72.5000 Du        
   2015 ****       279.0000 314.7500 -72.2500 Du        
   2016 ****       279.0000 314.7500 -72.0000 Du        
   2017 ****       279.0000 314.7500 -71.7500 Du        
   2018 ****       279.0000 314.7500 -71.5000 Du        
   2019 ****       279.0000 315.0000 -80.5000 Du        
   2020 ****       279.0000 315.0000 -80.2500 Du        
   2021 ****       279.0000 315.0000 -80.0000 Du        
   2022 ****       279.0000 315.0000 -79.7500 Du        
   2023 ****       279.0000 315.0000 -74.7500 Du        
   2024 ****       279.0000 315.0000 -74.5000 Du        
   2025 ****       279.0000 315.0000 -74.2500 Du        
   2026 ****       279.0000 315.0000 -74.0000 Du        
   2027 ****       279.0000 315.0000 -73.7500 Du        
   2028 ****       279.0000 315.0000 -73.5000 Du        
   2029 ****       279.0000 315.0000 -73.2500 Du        
   2030 ****       279.0000 315.0000 -73.0000 Du        
   2031 ****       279.0000 315.0000 -72.7500 Du        
   2032 ****       279.0000 315.0000 -72.5000 Du        
   2033 ****       279.0000 315.0000 -72.2500 Du        
   2034 ****       279.0000 315.0000 -72.0000 Du        
   2035 ****       279.0000 315.0000 -71.7500 Du        
   2036 ****       279.0000 315.0000 -71.5000 Du        
   2037 ****       279.0000 315.2500 -80.2500 Du        
   2038 ****       279.0000 315.2500 -80.0000 Du        
   2039 ****       279.0000 315.2500 -79.7500 Du        
   2040 ****       279.0000 315.2500 -79.5000 Du        
   2041 ****       279.0000 315.2500 -79.2500 Du        
   2042 ****       279.0000 315.2500 -74.7500 Du        
   2043 ****       279.0000 315.2500 -74.5000 Du        
   2044 ****       279.0000 315.2500 -74.2500 Du        
   2045 ****       279.0000 315.2500 -74.0000 Du        
   2046 ****       279.0000 315.2500 -73.7500 Du        
   2047 ****       279.0000 315.2500 -73.5000 Du        
   2048 ****       279.0000 315.2500 -73.2500 Du        
   2049 ****       279.0000 315.2500 -73.0000 Du        
   2050 ****       279.0000 315.2500 -72.7500 Du        
   2051 ****       279.0000 315.2500 -72.5000 Du        
   2052 ****       279.0000 315.2500 -72.2500 Du        
   2053 ****       279.0000 315.2500 -72.0000 Du        
   2054 ****       279.0000 315.2500 -71.7500 Du        
   2055 ****       279.0000 315.2500 -71.5000 Du        
   2056 ****       279.0000 315.5000 -80.0000 Du        
   2057 ****       279.0000 315.5000 -79.7500 Du        
   2058 ****       279.0000 315.5000 -79.5000 Du        
   2059 ****       279.0000 315.5000 -79.2500 Du        
   2060 ****       279.0000 315.5000 -74.7500 Du        
   2061 ****       279.0000 315.5000 -74.5000 Du        
   2062 ****       279.0000 315.5000 -74.2500 Du        
   2063 ****       279.0000 315.5000 -74.0000 Du        
   2064 ****       279.0000 315.5000 -73.7500 Du        
   2065 ****       279.0000 315.5000 -73.5000 Du        
   2066 ****       279.0000 315.5000 -73.2500 Du        
   2067 ****       279.0000 315.5000 -73.0000 Du        
   2068 ****       279.0000 315.5000 -72.7500 Du        
   2069 ****       279.0000 315.5000 -72.5000 Du        
   2070 ****       279.0000 315.5000 -72.2500 Du        
   2071 ****       279.0000 315.5000 -72.0000 Du        
   2072 ****       279.0000 315.7500 -80.0000 Du        
   2073 ****       279.0000 315.7500 -79.7500 Du        
   2074 ****       279.0000 315.7500 -79.5000 Du        
   2075 ****       279.0000 315.7500 -79.2500 Du        
   2076 ****       279.0000 315.7500 -79.0000 Du        
   2077 ****       279.0000 315.7500 -75.0000 Du        
   2078 ****       279.0000 315.7500 -74.7500 Du        
   2079 ****       279.0000 315.7500 -74.5000 Du        
   2080 ****       279.0000 315.7500 -74.2500 Du        
   2081 ****       279.0000 315.7500 -74.0000 Du        
   2082 ****       279.0000 315.7500 -73.7500 Du        
   2083 ****       279.0000 315.7500 -73.5000 Du        
   2084 ****       279.0000 315.7500 -73.2500 Du        
   2085 ****       279.0000 315.7500 -73.0000 Du        
   2086 ****       279.0000 315.7500 -72.7500 Du        
   2087 ****       279.0000 315.7500 -72.5000 Du        
   2088 ****       279.0000 316.0000 -80.0000 Du        
   2089 ****       279.0000 316.0000 -79.7500 Du        
   2090 ****       279.0000 316.0000 -79.5000 Du        
   2091 ****       279.0000 316.0000 -79.2500 Du        
   2092 ****       279.0000 316.0000 -79.0000 Du        
   2093 ****       279.0000 316.0000 -75.2500 Du        
   2094 ****       279.0000 316.0000 -75.0000 Du        
   2095 ****       279.0000 316.0000 -74.7500 Du        
   2096 ****       279.0000 316.0000 -74.5000 Du        
   2097 ****       279.0000 316.0000 -74.2500 Du        
   2098 ****       279.0000 316.0000 -74.0000 Du        
   2099 ****       279.0000 316.0000 -73.7500 Du        
   2100 ****       279.0000 316.0000 -73.5000 Du        
   2101 ****       279.0000 316.0000 -73.2500 Du        
   2102 ****       279.0000 316.0000 -73.0000 Du        
   2103 ****       279.0000 316.2500 -75.5000 Du        
   2104 ****       279.0000 316.2500 -75.2500 Du        
   2105 ****       279.0000 316.2500 -75.0000 Du        
   2106 ****       279.0000 316.2500 -74.7500 Du        
   2107 ****       279.0000 316.2500 -74.5000 Du        
   2108 ****       279.0000 316.2500 -74.2500 Du        
   2109 ****       279.0000 316.2500 -74.0000 Du        
   2110 ****       279.0000 316.2500 -73.7500 Du        
   2111 ****       279.0000 316.2500 -73.5000 Du        
   2112 ****       279.0000 316.2500 -73.2500 Du        
   2113 ****       279.0000 316.5000 -75.2500 Du        
   2114 ****       279.0000 316.5000 -75.0000 Du        
   2115 ****       279.0000 316.5000 -74.7500 Du        
   2116 ****       279.0000 316.5000 -74.5000 Du        
   2117 ****       279.0000 316.5000 -74.2500 Du        
   2118 ****       279.0000 316.5000 -74.0000 Du        
   2119 ****       279.0000 316.5000 -73.7500 Du        
   2120 ****       279.0000 316.5000 -73.5000 Du        
   2121 ****       279.0000 316.7500 -75.2500 Du        
   2122 ****       279.0000 316.7500 -75.0000 Du        
   2123 ****       279.0000 316.7500 -74.7500 Du        
   2124 ****       279.0000 316.7500 -74.5000 Du        
   2125 ****       279.0000 316.7500 -74.2500 Du        
   2126 ****       279.0000 316.7500 -74.0000 Du        
   2127 ****       279.0000 316.7500 -73.7500 Du        
   2128 ****       279.0000 316.7500 -73.5000 Du        
   2129 ****       279.0000 317.0000 -75.0000 Du        
   2130 ****       279.0000 317.0000 -74.7500 Du        
   2131 ****       279.0000 317.0000 -74.5000 Du        
   2132 ****       279.0000 317.0000 -74.2500 Du        
   2133 ****       279.0000 317.0000 -74.0000 Du        
   2134 ****       279.0000 317.0000 -73.7500 Du        
   2135 ****       279.0000 317.0000 -73.5000 Du        
   2136 ****       279.0000 317.2500 -74.7500 Du        
   2137 ****       279.0000 317.2500 -74.5000 Du        
   2138 ****       279.0000 317.2500 -74.2500 Du        
   2139 ****       279.0000 317.2500 -74.0000 Du        
   2140 ****       279.0000 317.2500 -73.7500 Du        
   2141 ****       279.0000 317.2500 -73.5000 Du        
   2142 ****       279.0000 317.5000 -74.7500 Du        
   2143 ****       279.0000 317.5000 -74.5000 Du        
   2144 ****       279.0000 317.5000 -74.2500 Du        
   2145 ****       279.0000 317.5000 -74.0000 Du        
   2146 ****       279.0000 317.5000 -73.7500 Du        
   2147 ****       279.0000 317.7500 -74.5000 Du        
   2148 ****       279.0000 317.7500 -74.2500 Du        
   2149 ****       279.0000 317.7500 -74.0000 Du        
   2150 ****       279.0000 317.7500 -73.7500 Du        
   2151 ****       279.0000 318.0000 -74.5000 Du        
   2152 ****       279.0000 318.0000 -74.2500 Du        
   2153 ****       279.0000 318.0000 -74.0000 Du        
   2154 ****       279.2500 313.7500 -72.2500 Du        
   2155 ****       279.2500 313.7500 -72.0000 Du        
   2156 ****       279.2500 313.7500 -71.7500 Du        
   2157 ****       279.2500 313.7500 -71.5000 Du        
   2158 ****       279.2500 314.0000 -73.0000 Du        
   2159 ****       279.2500 314.0000 -72.7500 Du        
   2160 ****       279.2500 314.0000 -72.5000 Du        
   2161 ****       279.2500 314.0000 -72.2500 Du        
   2162 ****       279.2500 314.0000 -72.0000 Du        
   2163 ****       279.2500 314.0000 -71.7500 Du        
   2164 ****       279.2500 314.0000 -71.5000 Du        
   2165 ****       279.2500 314.0000 -71.2500 Du        
   2166 ****       279.2500 314.2500 -81.0000 Du        
   2167 ****       279.2500 314.2500 -80.7500 Du        
   2168 ****       279.2500 314.2500 -80.5000 Du        
   2169 ****       279.2500 314.2500 -80.2500 Du        
   2170 ****       279.2500 314.2500 -80.0000 Du        
   2171 ****       279.2500 314.2500 -74.2500 Du        
   2172 ****       279.2500 314.2500 -74.0000 Du        
   2173 ****       279.2500 314.2500 -73.7500 Du        
   2174 ****       279.2500 314.2500 -73.5000 Du        
   2175 ****       279.2500 314.2500 -73.2500 Du        
   2176 ****       279.2500 314.2500 -73.0000 Du        
   2177 ****       279.2500 314.2500 -72.7500 Du        
   2178 ****       279.2500 314.2500 -72.5000 Du        
   2179 ****       279.2500 314.2500 -72.2500 Du        
   2180 ****       279.2500 314.2500 -72.0000 Du        
   2181 ****       279.2500 314.2500 -71.7500 Du        
   2182 ****       279.2500 314.2500 -71.5000 Du        
   2183 ****       279.2500 314.2500 -71.2500 Du        
   2184 ****       279.2500 314.5000 -81.0000 Du        
   2185 ****       279.2500 314.5000 -80.7500 Du        
   2186 ****       279.2500 314.5000 -80.5000 Du        
   2187 ****       279.2500 314.5000 -80.2500 Du        
   2188 ****       279.2500 314.5000 -80.0000 Du        
   2189 ****       279.2500 314.5000 -74.5000 Du        
   2190 ****       279.2500 314.5000 -74.2500 Du        
   2191 ****       279.2500 314.5000 -74.0000 Du        
   2192 ****       279.2500 314.5000 -73.7500 Du        
   2193 ****       279.2500 314.5000 -73.5000 Du        
   2194 ****       279.2500 314.5000 -73.2500 Du        
   2195 ****       279.2500 314.5000 -73.0000 Du        
   2196 ****       279.2500 314.5000 -72.7500 Du        
   2197 ****       279.2500 314.5000 -72.5000 Du        
   2198 ****       279.2500 314.5000 -72.2500 Du        
   2199 ****       279.2500 314.5000 -72.0000 Du        
   2200 ****       279.2500 314.5000 -71.7500 Du        
   2201 ****       279.2500 314.5000 -71.5000 Du        
   2202 ****       279.2500 314.5000 -71.2500 Du        
   2203 ****       279.2500 314.7500 -81.0000 Du        
   2204 ****       279.2500 314.7500 -80.7500 Du        
   2205 ****       279.2500 314.7500 -80.5000 Du        
   2206 ****       279.2500 314.7500 -80.2500 Du        
   2207 ****       279.2500 314.7500 -80.0000 Du        
   2208 ****       279.2500 314.7500 -79.7500 Du        
   2209 ****       279.2500 314.7500 -74.5000 Du        
   2210 ****       279.2500 314.7500 -74.2500 Du        
   2211 ****       279.2500 314.7500 -74.0000 Du        
   2212 ****       279.2500 314.7500 -73.7500 Du        
   2213 ****       279.2500 314.7500 -73.5000 Du        
   2214 ****       279.2500 314.7500 -73.2500 Du        
   2215 ****       279.2500 314.7500 -73.0000 Du        
   2216 ****       279.2500 314.7500 -72.7500 Du        
   2217 ****       279.2500 314.7500 -72.5000 Du        
   2218 ****       279.2500 314.7500 -72.2500 Du        
   2219 ****       279.2500 314.7500 -72.0000 Du        
   2220 ****       279.2500 314.7500 -71.7500 Du        
   2221 ****       279.2500 314.7500 -71.5000 Du        
   2222 ****       279.2500 314.7500 -71.2500 Du        
   2223 ****       279.2500 315.0000 -80.7500 Du        
   2224 ****       279.2500 315.0000 -80.5000 Du        
   2225 ****       279.2500 315.0000 -80.2500 Du        
   2226 ****       279.2500 315.0000 -80.0000 Du        
   2227 ****       279.2500 315.0000 -79.7500 Du        
   2228 ****       279.2500 315.0000 -79.5000 Du        
   2229 ****       279.2500 315.0000 -74.7500 Du        
   2230 ****       279.2500 315.0000 -74.5000 Du        
   2231 ****       279.2500 315.0000 -74.2500 Du        
   2232 ****       279.2500 315.0000 -74.0000 Du        
   2233 ****       279.2500 315.0000 -73.7500 Du        
   2234 ****       279.2500 315.0000 -73.5000 Du        
   2235 ****       279.2500 315.0000 -73.2500 Du        
   2236 ****       279.2500 315.0000 -73.0000 Du        
   2237 ****       279.2500 315.0000 -72.7500 Du        
   2238 ****       279.2500 315.0000 -72.5000 Du        
   2239 ****       279.2500 315.0000 -72.2500 Du        
   2240 ****       279.2500 315.0000 -72.0000 Du        
   2241 ****       279.2500 315.0000 -71.7500 Du        
   2242 ****       279.2500 315.0000 -71.5000 Du        
   2243 ****       279.2500 315.0000 -71.2500 Du        
   2244 ****       279.2500 315.2500 -80.5000 Du        
   2245 ****       279.2500 315.2500 -80.2500 Du        
   2246 ****       279.2500 315.2500 -80.0000 Du        
   2247 ****       279.2500 315.2500 -79.7500 Du        
   2248 ****       279.2500 315.2500 -79.5000 Du        
   2249 ****       279.2500 315.2500 -79.2500 Du        
   2250 ****       279.2500 315.2500 -74.7500 Du        
   2251 ****       279.2500 315.2500 -74.5000 Du        
   2252 ****       279.2500 315.2500 -74.2500 Du        
   2253 ****       279.2500 315.2500 -74.0000 Du        
   2254 ****       279.2500 315.2500 -73.7500 Du        
   2255 ****       279.2500 315.2500 -73.5000 Du        
   2256 ****       279.2500 315.2500 -73.2500 Du        
   2257 ****       279.2500 315.2500 -73.0000 Du        
   2258 ****       279.2500 315.2500 -72.7500 Du        
   2259 ****       279.2500 315.2500 -72.5000 Du        
   2260 ****       279.2500 315.2500 -72.2500 Du        
   2261 ****       279.2500 315.2500 -72.0000 Du        
   2262 ****       279.2500 315.2500 -71.7500 Du        
   2263 ****       279.2500 315.2500 -71.5000 Du        
   2264 ****       279.2500 315.5000 -80.2500 Du        
   2265 ****       279.2500 315.5000 -80.0000 Du        
   2266 ****       279.2500 315.5000 -79.7500 Du        
   2267 ****       279.2500 315.5000 -79.5000 Du        
   2268 ****       279.2500 315.5000 -79.2500 Du        
   2269 ****       279.2500 315.5000 -74.7500 Du        
   2270 ****       279.2500 315.5000 -74.5000 Du        
   2271 ****       279.2500 315.5000 -74.2500 Du        
   2272 ****       279.2500 315.5000 -74.0000 Du        
   2273 ****       279.2500 315.5000 -73.7500 Du        
   2274 ****       279.2500 315.5000 -73.5000 Du        
   2275 ****       279.2500 315.5000 -73.2500 Du        
   2276 ****       279.2500 315.5000 -73.0000 Du        
   2277 ****       279.2500 315.5000 -72.7500 Du        
   2278 ****       279.2500 315.5000 -72.5000 Du        
   2279 ****       279.2500 315.5000 -72.2500 Du        
   2280 ****       279.2500 315.5000 -72.0000 Du        
   2281 ****       279.2500 315.5000 -71.7500 Du        
   2282 ****       279.2500 315.7500 -80.2500 Du        
   2283 ****       279.2500 315.7500 -80.0000 Du        
   2284 ****       279.2500 315.7500 -79.7500 Du        
   2285 ****       279.2500 315.7500 -79.5000 Du        
   2286 ****       279.2500 315.7500 -79.2500 Du        
   2287 ****       279.2500 315.7500 -79.0000 Du        
   2288 ****       279.2500 315.7500 -75.0000 Du        
   2289 ****       279.2500 315.7500 -74.7500 Du        
   2290 ****       279.2500 315.7500 -74.5000 Du        
   2291 ****       279.2500 315.7500 -74.2500 Du        
   2292 ****       279.2500 315.7500 -74.0000 Du        
   2293 ****       279.2500 315.7500 -73.7500 Du        
   2294 ****       279.2500 315.7500 -73.5000 Du        
   2295 ****       279.2500 315.7500 -73.2500 Du        
   2296 ****       279.2500 315.7500 -73.0000 Du        
   2297 ****       279.2500 315.7500 -72.7500 Du        
   2298 ****       279.2500 315.7500 -72.5000 Du        
   2299 ****       279.2500 315.7500 -72.2500 Du        
   2300 ****       279.2500 316.0000 -80.2500 Du        
   2301 ****       279.2500 316.0000 -80.0000 Du        
   2302 ****       279.2500 316.0000 -79.7500 Du        
   2303 ****       279.2500 316.0000 -79.5000 Du        
   2304 ****       279.2500 316.0000 -79.2500 Du        
   2305 ****       279.2500 316.0000 -79.0000 Du        
   2306 ****       279.2500 316.0000 -75.2500 Du        
   2307 ****       279.2500 316.0000 -75.0000 Du        
   2308 ****       279.2500 316.0000 -74.7500 Du        
   2309 ****       279.2500 316.0000 -74.5000 Du        
   2310 ****       279.2500 316.0000 -74.2500 Du        
   2311 ****       279.2500 316.0000 -74.0000 Du        
   2312 ****       279.2500 316.0000 -73.7500 Du        
   2313 ****       279.2500 316.0000 -73.5000 Du        
   2314 ****       279.2500 316.0000 -73.2500 Du        
   2315 ****       279.2500 316.0000 -73.0000 Du        
   2316 ****       279.2500 316.0000 -72.7500 Du        
   2317 ****       279.2500 316.2500 -75.5000 Du        
   2318 ****       279.2500 316.2500 -75.2500 Du        
   2319 ****       279.2500 316.2500 -75.0000 Du        
   2320 ****       279.2500 316.2500 -74.7500 Du        
   2321 ****       279.2500 316.2500 -74.5000 Du        
   2322 ****       279.2500 316.2500 -74.2500 Du        
   2323 ****       279.2500 316.2500 -74.0000 Du        
   2324 ****       279.2500 316.2500 -73.7500 Du        
   2325 ****       279.2500 316.2500 -73.5000 Du        
   2326 ****       279.2500 316.2500 -73.2500 Du        
   2327 ****       279.2500 316.2500 -73.0000 Du        
   2328 ****       279.2500 316.5000 -75.0000 Du        
   2329 ****       279.2500 316.5000 -74.7500 Du        
   2330 ****       279.2500 316.5000 -74.5000 Du        
   2331 ****       279.2500 316.5000 -74.2500 Du        
   2332 ****       279.2500 316.5000 -74.0000 Du        
   2333 ****       279.2500 316.5000 -73.7500 Du        
   2334 ****       279.2500 316.5000 -73.5000 Du        
   2335 ****       279.2500 316.5000 -73.2500 Du        
   2336 ****       279.2500 316.7500 -75.0000 Du        
   2337 ****       279.2500 316.7500 -74.7500 Du        
   2338 ****       279.2500 316.7500 -74.5000 Du        
   2339 ****       279.2500 316.7500 -74.2500 Du        
   2340 ****       279.2500 316.7500 -74.0000 Du        
   2341 ****       279.2500 316.7500 -73.7500 Du        
   2342 ****       279.2500 316.7500 -73.5000 Du        
   2343 ****       279.2500 316.7500 -73.2500 Du        
   2344 ****       279.2500 317.0000 -74.7500 Du        
   2345 ****       279.2500 317.0000 -74.5000 Du        
   2346 ****       279.2500 317.0000 -74.2500 Du        
   2347 ****       279.2500 317.0000 -74.0000 Du        
   2348 ****       279.2500 317.0000 -73.7500 Du        
   2349 ****       279.2500 317.0000 -73.5000 Du        
   2350 ****       279.2500 317.2500 -74.7500 Du        
   2351 ****       279.2500 317.2500 -74.5000 Du        
   2352 ****       279.2500 317.2500 -74.2500 Du        
   2353 ****       279.2500 317.2500 -74.0000 Du        
   2354 ****       279.2500 317.2500 -73.7500 Du        
   2355 ****       279.2500 317.2500 -73.5000 Du        
   2356 ****       279.2500 317.5000 -74.5000 Du        
   2357 ****       279.2500 317.5000 -74.2500 Du        
   2358 ****       279.2500 317.5000 -74.0000 Du        
   2359 ****       279.2500 317.5000 -73.7500 Du        
   2360 ****       279.2500 317.5000 -73.5000 Du        
   2361 ****       279.2500 317.7500 -74.5000 Du        
   2362 ****       279.2500 317.7500 -74.2500 Du        
   2363 ****       279.2500 317.7500 -74.0000 Du        
   2364 ****       279.2500 317.7500 -73.7500 Du        
   2365 ****       279.2500 317.7500 -73.5000 Du        
   2366 ****       279.2500 318.0000 -74.2500 Du        
   2367 ****       279.2500 318.0000 -74.0000 Du        
   2368 ****       279.2500 318.0000 -73.7500 Du        
   2369 ****       279.5000 313.7500 -72.5000 Du        
   2370 ****       279.5000 313.7500 -72.2500 Du        
   2371 ****       279.5000 313.7500 -72.0000 Du        
   2372 ****       279.5000 313.7500 -71.7500 Du        
   2373 ****       279.5000 313.7500 -71.5000 Du        
   2374 ****       279.5000 313.7500 -71.2500 Du        
   2375 ****       279.5000 314.0000 -74.2500 Du        
   2376 ****       279.5000 314.0000 -74.0000 Du        
   2377 ****       279.5000 314.0000 -73.7500 Du        
   2378 ****       279.5000 314.0000 -73.5000 Du        
   2379 ****       279.5000 314.0000 -73.2500 Du        
   2380 ****       279.5000 314.0000 -73.0000 Du        
   2381 ****       279.5000 314.0000 -72.7500 Du        
   2382 ****       279.5000 314.0000 -72.5000 Du        
   2383 ****       279.5000 314.0000 -72.2500 Du        
   2384 ****       279.5000 314.0000 -72.0000 Du        
   2385 ****       279.5000 314.0000 -71.7500 Du        
   2386 ****       279.5000 314.0000 -71.5000 Du        
   2387 ****       279.5000 314.0000 -71.2500 Du        
   2388 ****       279.5000 314.2500 -80.7500 Du        
   2389 ****       279.5000 314.2500 -80.5000 Du        
   2390 ****       279.5000 314.2500 -80.2500 Du        
   2391 ****       279.5000 314.2500 -80.0000 Du        
   2392 ****       279.5000 314.2500 -74.5000 Du        
   2393 ****       279.5000 314.2500 -74.2500 Du        
   2394 ****       279.5000 314.2500 -74.0000 Du        
   2395 ****       279.5000 314.2500 -73.7500 Du        
   2396 ****       279.5000 314.2500 -73.5000 Du        
   2397 ****       279.5000 314.2500 -73.2500 Du        
   2398 ****       279.5000 314.2500 -73.0000 Du        
   2399 ****       279.5000 314.2500 -72.7500 Du        
   2400 ****       279.5000 314.2500 -72.5000 Du        
   2401 ****       279.5000 314.2500 -72.2500 Du        
   2402 ****       279.5000 314.2500 -72.0000 Du        
   2403 ****       279.5000 314.2500 -71.7500 Du        
   2404 ****       279.5000 314.2500 -71.5000 Du        
   2405 ****       279.5000 314.2500 -71.2500 Du        
   2406 ****       279.5000 314.5000 -81.2500 Du        
   2407 ****       279.5000 314.5000 -81.0000 Du        
   2408 ****       279.5000 314.5000 -80.7500 Du        
   2409 ****       279.5000 314.5000 -80.5000 Du        
   2410 ****       279.5000 314.5000 -80.2500 Du        
   2411 ****       279.5000 314.5000 -80.0000 Du        
   2412 ****       279.5000 314.5000 -79.7500 Du        
   2413 ****       279.5000 314.5000 -74.5000 Du        
   2414 ****       279.5000 314.5000 -74.2500 Du        
   2415 ****       279.5000 314.5000 -74.0000 Du        
   2416 ****       279.5000 314.5000 -73.7500 Du        
   2417 ****       279.5000 314.5000 -73.5000 Du        
   2418 ****       279.5000 314.5000 -73.2500 Du        
   2419 ****       279.5000 314.5000 -73.0000 Du        
   2420 ****       279.5000 314.5000 -72.7500 Du        
   2421 ****       279.5000 314.5000 -72.5000 Du        
   2422 ****       279.5000 314.5000 -72.2500 Du        
   2423 ****       279.5000 314.5000 -72.0000 Du        
   2424 ****       279.5000 314.5000 -71.7500 Du        
   2425 ****       279.5000 314.5000 -71.5000 Du        
   2426 ****       279.5000 314.5000 -71.2500 Du        
   2427 ****       279.5000 314.7500 -81.2500 Du        
   2428 ****       279.5000 314.7500 -81.0000 Du        
   2429 ****       279.5000 314.7500 -80.7500 Du        
   2430 ****       279.5000 314.7500 -80.5000 Du        
   2431 ****       279.5000 314.7500 -80.2500 Du        
   2432 ****       279.5000 314.7500 -80.0000 Du        
   2433 ****       279.5000 314.7500 -79.7500 Du        
   2434 ****       279.5000 314.7500 -74.5000 Du        
   2435 ****       279.5000 314.7500 -74.2500 Du        
   2436 ****       279.5000 314.7500 -74.0000 Du        
   2437 ****       279.5000 314.7500 -73.7500 Du        
   2438 ****       279.5000 314.7500 -73.5000 Du        
   2439 ****       279.5000 314.7500 -73.2500 Du        
   2440 ****       279.5000 314.7500 -73.0000 Du        
   2441 ****       279.5000 314.7500 -72.7500 Du        
   2442 ****       279.5000 314.7500 -72.5000 Du        
   2443 ****       279.5000 314.7500 -72.2500 Du        
   2444 ****       279.5000 314.7500 -72.0000 Du        
   2445 ****       279.5000 314.7500 -71.7500 Du        
   2446 ****       279.5000 314.7500 -71.5000 Du        
   2447 ****       279.5000 314.7500 -71.2500 Du        
   2448 ****       279.5000 315.0000 -81.0000 Du        
   2449 ****       279.5000 315.0000 -80.7500 Du        
   2450 ****       279.5000 315.0000 -80.5000 Du        
   2451 ****       279.5000 315.0000 -80.2500 Du        
   2452 ****       279.5000 315.0000 -80.0000 Du        
   2453 ****       279.5000 315.0000 -79.7500 Du        
   2454 ****       279.5000 315.0000 -79.5000 Du        
   2455 ****       279.5000 315.0000 -74.7500 Du        
   2456 ****       279.5000 315.0000 -74.5000 Du        
   2457 ****       279.5000 315.0000 -74.2500 Du        
   2458 ****       279.5000 315.0000 -74.0000 Du        
   2459 ****       279.5000 315.0000 -73.7500 Du        
   2460 ****       279.5000 315.0000 -73.5000 Du        
   2461 ****       279.5000 315.0000 -73.2500 Du        
   2462 ****       279.5000 315.0000 -73.0000 Du        
   2463 ****       279.5000 315.0000 -72.7500 Du        
   2464 ****       279.5000 315.0000 -72.5000 Du        
   2465 ****       279.5000 315.0000 -72.2500 Du        
   2466 ****       279.5000 315.0000 -72.0000 Du        
   2467 ****       279.5000 315.0000 -71.7500 Du        
   2468 ****       279.5000 315.0000 -71.5000 Du        
   2469 ****       279.5000 315.0000 -71.2500 Du        
   2470 ****       279.5000 315.2500 -80.7500 Du        
   2471 ****       279.5000 315.2500 -80.5000 Du        
   2472 ****       279.5000 315.2500 -80.2500 Du        
   2473 ****       279.5000 315.2500 -80.0000 Du        
   2474 ****       279.5000 315.2500 -79.7500 Du        
   2475 ****       279.5000 315.2500 -79.5000 Du        
   2476 ****       279.5000 315.2500 -79.2500 Du        
   2477 ****       279.5000 315.2500 -74.7500 Du        
   2478 ****       279.5000 315.2500 -74.5000 Du        
   2479 ****       279.5000 315.2500 -74.2500 Du        
   2480 ****       279.5000 315.2500 -74.0000 Du        
   2481 ****       279.5000 315.2500 -73.7500 Du        
   2482 ****       279.5000 315.2500 -73.5000 Du        
   2483 ****       279.5000 315.2500 -73.2500 Du        
   2484 ****       279.5000 315.2500 -73.0000 Du        
   2485 ****       279.5000 315.2500 -72.7500 Du        
   2486 ****       279.5000 315.2500 -72.5000 Du        
   2487 ****       279.5000 315.2500 -72.2500 Du        
   2488 ****       279.5000 315.2500 -72.0000 Du        
   2489 ****       279.5000 315.2500 -71.7500 Du        
   2490 ****       279.5000 315.2500 -71.5000 Du        
   2491 ****       279.5000 315.2500 -71.2500 Du        
   2492 ****       279.5000 315.5000 -80.5000 Du        
   2493 ****       279.5000 315.5000 -80.2500 Du        
   2494 ****       279.5000 315.5000 -80.0000 Du        
   2495 ****       279.5000 315.5000 -79.7500 Du        
   2496 ****       279.5000 315.5000 -79.5000 Du        
   2497 ****       279.5000 315.5000 -79.2500 Du        
   2498 ****       279.5000 315.5000 -79.0000 Du        
   2499 ****       279.5000 315.5000 -75.0000 Du        
   2500 ****       279.5000 315.5000 -74.7500 Du        
   2501 ****       279.5000 315.5000 -74.5000 Du        
   2502 ****       279.5000 315.5000 -74.2500 Du        
   2503 ****       279.5000 315.5000 -74.0000 Du        
   2504 ****       279.5000 315.5000 -73.7500 Du        
   2505 ****       279.5000 315.5000 -73.5000 Du        
   2506 ****       279.5000 315.5000 -73.2500 Du        
   2507 ****       279.5000 315.5000 -73.0000 Du        
   2508 ****       279.5000 315.5000 -72.7500 Du        
   2509 ****       279.5000 315.5000 -72.5000 Du        
   2510 ****       279.5000 315.5000 -72.2500 Du        
   2511 ****       279.5000 315.5000 -72.0000 Du        
   2512 ****       279.5000 315.5000 -71.7500 Du        
   2513 ****       279.5000 315.7500 -80.2500 Du        
   2514 ****       279.5000 315.7500 -80.0000 Du        
   2515 ****       279.5000 315.7500 -79.7500 Du        
   2516 ****       279.5000 315.7500 -79.5000 Du        
   2517 ****       279.5000 315.7500 -79.2500 Du        
   2518 ****       279.5000 315.7500 -79.0000 Du        
   2519 ****       279.5000 315.7500 -78.7500 Du        
   2520 ****       279.5000 315.7500 -75.0000 Du        
   2521 ****       279.5000 315.7500 -74.7500 Du        
   2522 ****       279.5000 315.7500 -74.5000 Du        
   2523 ****       279.5000 315.7500 -74.2500 Du        
   2524 ****       279.5000 315.7500 -74.0000 Du        
   2525 ****       279.5000 315.7500 -73.7500 Du        
   2526 ****       279.5000 315.7500 -73.5000 Du        
   2527 ****       279.5000 315.7500 -73.2500 Du        
   2528 ****       279.5000 315.7500 -73.0000 Du        
   2529 ****       279.5000 315.7500 -72.7500 Du        
   2530 ****       279.5000 315.7500 -72.5000 Du        
   2531 ****       279.5000 315.7500 -72.2500 Du        
   2532 ****       279.5000 315.7500 -72.0000 Du        
   2533 ****       279.5000 316.0000 -80.2500 Du        
   2534 ****       279.5000 316.0000 -80.0000 Du        
   2535 ****       279.5000 316.0000 -79.7500 Du        
   2536 ****       279.5000 316.0000 -79.5000 Du        
   2537 ****       279.5000 316.0000 -79.2500 Du        
   2538 ****       279.5000 316.0000 -75.0000 Du        
   2539 ****       279.5000 316.0000 -74.7500 Du        
   2540 ****       279.5000 316.0000 -74.5000 Du        
   2541 ****       279.5000 316.0000 -74.2500 Du        
   2542 ****       279.5000 316.0000 -74.0000 Du        
   2543 ****       279.5000 316.0000 -73.7500 Du        
   2544 ****       279.5000 316.0000 -73.5000 Du        
   2545 ****       279.5000 316.0000 -73.2500 Du        
   2546 ****       279.5000 316.0000 -73.0000 Du        
   2547 ****       279.5000 316.0000 -72.7500 Du        
   2548 ****       279.5000 316.0000 -72.5000 Du        
   2549 ****       279.5000 316.2500 -75.2500 Du        
   2550 ****       279.5000 316.2500 -75.0000 Du        
   2551 ****       279.5000 316.2500 -74.7500 Du        
   2552 ****       279.5000 316.2500 -74.5000 Du        
   2553 ****       279.5000 316.2500 -74.2500 Du        
   2554 ****       279.5000 316.2500 -74.0000 Du        
   2555 ****       279.5000 316.2500 -73.7500 Du        
   2556 ****       279.5000 316.2500 -73.5000 Du        
   2557 ****       279.5000 316.2500 -73.2500 Du        
   2558 ****       279.5000 316.2500 -73.0000 Du        
   2559 ****       279.5000 316.5000 -74.7500 Du        
   2560 ****       279.5000 316.7500 -74.7500 Du        
   2561 ****       279.5000 316.7500 -74.0000 Du        
   2562 ****       279.5000 317.0000 -74.0000 Du        
   2563 ****       279.5000 317.0000 -73.7500 Du        
   2564 ****       279.5000 317.2500 -74.0000 Du        
   2565 ****       279.5000 317.2500 -73.7500 Du        
   2566 ****       279.5000 317.5000 -74.2500 Du        
   2567 ****       279.5000 317.5000 -74.0000 Du        
   2568 ****       279.5000 317.5000 -73.7500 Du        
   2569 ****       279.5000 317.7500 -74.2500 Du        
   2570 ****       279.5000 317.7500 -74.0000 Du        
   2571 ****       279.5000 317.7500 -73.7500 Du        
   2572 ****       279.5000 317.7500 -73.5000 Du        
   2573 ****       279.5000 318.0000 -74.2500 Du        
   2574 ****       279.5000 318.0000 -74.0000 Du        
   2575 ****       279.5000 318.0000 -73.7500 Du        
   2576 ****       279.7500 313.7500 -72.7500 Du        
   2577 ****       279.7500 313.7500 -72.5000 Du        
   2578 ****       279.7500 313.7500 -72.2500 Du        
   2579 ****       279.7500 313.7500 -72.0000 Du        
   2580 ****       279.7500 313.7500 -71.7500 Du        
   2581 ****       279.7500 313.7500 -71.5000 Du        
   2582 ****       279.7500 313.7500 -71.2500 Du        
   2583 ****       279.7500 313.7500 -71.0000 Du        
   2584 ****       279.7500 314.0000 -74.5000 Du        
   2585 ****       279.7500 314.0000 -74.2500 Du        
   2586 ****       279.7500 314.0000 -74.0000 Du        
   2587 ****       279.7500 314.0000 -73.7500 Du        
   2588 ****       279.7500 314.0000 -73.5000 Du        
   2589 ****       279.7500 314.0000 -73.2500 Du        
   2590 ****       279.7500 314.0000 -73.0000 Du        
   2591 ****       279.7500 314.0000 -72.7500 Du        
   2592 ****       279.7500 314.0000 -72.5000 Du        
   2593 ****       279.7500 314.0000 -72.2500 Du        
   2594 ****       279.7500 314.0000 -72.0000 Du        
   2595 ****       279.7500 314.0000 -71.7500 Du        
   2596 ****       279.7500 314.0000 -71.5000 Du        
   2597 ****       279.7500 314.0000 -71.2500 Du        
   2598 ****       279.7500 314.0000 -71.0000 Du        
   2599 ****       279.7500 314.2500 -80.5000 Du        
   2600 ****       279.7500 314.2500 -80.2500 Du        
   2601 ****       279.7500 314.2500 -80.0000 Du        
   2602 ****       279.7500 314.2500 -74.7500 Du        
   2603 ****       279.7500 314.2500 -74.5000 Du        
   2604 ****       279.7500 314.2500 -74.2500 Du        
   2605 ****       279.7500 314.2500 -74.0000 Du        
   2606 ****       279.7500 314.2500 -73.7500 Du        
   2607 ****       279.7500 314.2500 -73.5000 Du        
   2608 ****       279.7500 314.2500 -73.2500 Du        
   2609 ****       279.7500 314.2500 -73.0000 Du        
   2610 ****       279.7500 314.2500 -72.7500 Du        
   2611 ****       279.7500 314.2500 -72.5000 Du        
   2612 ****       279.7500 314.2500 -72.2500 Du        
   2613 ****       279.7500 314.2500 -72.0000 Du        
   2614 ****       279.7500 314.2500 -71.7500 Du        
   2615 ****       279.7500 314.2500 -71.5000 Du        
   2616 ****       279.7500 314.2500 -71.2500 Du        
   2617 ****       279.7500 314.2500 -71.0000 Du        
   2618 ****       279.7500 314.5000 -81.2500 Du        
   2619 ****       279.7500 314.5000 -81.0000 Du        
   2620 ****       279.7500 314.5000 -80.7500 Du        
   2621 ****       279.7500 314.5000 -80.5000 Du        
   2622 ****       279.7500 314.5000 -80.2500 Du        
   2623 ****       279.7500 314.5000 -80.0000 Du        
   2624 ****       279.7500 314.5000 -79.7500 Du        
   2625 ****       279.7500 314.5000 -74.7500 Du        
   2626 ****       279.7500 314.5000 -74.5000 Du        
   2627 ****       279.7500 314.5000 -74.2500 Du        
   2628 ****       279.7500 314.5000 -74.0000 Du        
   2629 ****       279.7500 314.5000 -73.7500 Du        
   2630 ****       279.7500 314.5000 -73.5000 Du        
   2631 ****       279.7500 314.5000 -73.2500 Du        
   2632 ****       279.7500 314.5000 -73.0000 Du        
   2633 ****       279.7500 314.5000 -72.7500 Du        
   2634 ****       279.7500 314.5000 -72.5000 Du        
   2635 ****       279.7500 314.5000 -72.2500 Du        
   2636 ****       279.7500 314.5000 -72.0000 Du        
   2637 ****       279.7500 314.5000 -71.7500 Du        
   2638 ****       279.7500 314.5000 -71.5000 Du        
   2639 ****       279.7500 314.5000 -71.2500 Du        
   2640 ****       279.7500 314.7500 -81.2500 Du        
   2641 ****       279.7500 314.7500 -81.0000 Du        
   2642 ****       279.7500 314.7500 -80.7500 Du        
   2643 ****       279.7500 314.7500 -80.5000 Du        
   2644 ****       279.7500 314.7500 -80.2500 Du        
   2645 ****       279.7500 314.7500 -80.0000 Du        
   2646 ****       279.7500 314.7500 -79.7500 Du        
   2647 ****       279.7500 314.7500 -79.5000 Du        
   2648 ****       279.7500 314.7500 -74.7500 Du        
   2649 ****       279.7500 314.7500 -74.5000 Du        
   2650 ****       279.7500 314.7500 -74.2500 Du        
   2651 ****       279.7500 314.7500 -74.0000 Du        
   2652 ****       279.7500 314.7500 -73.7500 Du        
   2653 ****       279.7500 314.7500 -73.5000 Du        
   2654 ****       279.7500 314.7500 -73.2500 Du        
   2655 ****       279.7500 314.7500 -73.0000 Du        
   2656 ****       279.7500 314.7500 -72.7500 Du        
   2657 ****       279.7500 314.7500 -72.5000 Du        
   2658 ****       279.7500 314.7500 -72.2500 Du        
   2659 ****       279.7500 314.7500 -72.0000 Du        
   2660 ****       279.7500 314.7500 -71.7500 Du        
   2661 ****       279.7500 314.7500 -71.5000 Du        
   2662 ****       279.7500 314.7500 -71.2500 Du        
   2663 ****       279.7500 315.0000 -81.2500 Du        
   2664 ****       279.7500 315.0000 -81.0000 Du        
   2665 ****       279.7500 315.0000 -80.7500 Du        
   2666 ****       279.7500 315.0000 -80.5000 Du        
   2667 ****       279.7500 315.0000 -80.2500 Du        
   2668 ****       279.7500 315.0000 -80.0000 Du        
   2669 ****       279.7500 315.0000 -79.7500 Du        
   2670 ****       279.7500 315.0000 -79.5000 Du        
   2671 ****       279.7500 315.0000 -79.2500 Du        
   2672 ****       279.7500 315.0000 -75.0000 Du        
   2673 ****       279.7500 315.0000 -74.7500 Du        
   2674 ****       279.7500 315.0000 -74.5000 Du        
   2675 ****       279.7500 315.0000 -74.2500 Du        
   2676 ****       279.7500 315.0000 -74.0000 Du        
   2677 ****       279.7500 315.0000 -73.7500 Du        
   2678 ****       279.7500 315.0000 -73.5000 Du        
   2679 ****       279.7500 315.0000 -73.2500 Du        
   2680 ****       279.7500 315.0000 -73.0000 Du        
   2681 ****       279.7500 315.0000 -72.7500 Du        
   2682 ****       279.7500 315.0000 -72.5000 Du        
   2683 ****       279.7500 315.0000 -72.2500 Du        
   2684 ****       279.7500 315.0000 -72.0000 Du        
   2685 ****       279.7500 315.0000 -71.7500 Du        
   2686 ****       279.7500 315.0000 -71.5000 Du        
   2687 ****       279.7500 315.0000 -71.2500 Du        
   2688 ****       279.7500 315.2500 -81.2500 Du        
   2689 ****       279.7500 315.2500 -81.0000 Du        
   2690 ****       279.7500 315.2500 -80.7500 Du        
   2691 ****       279.7500 315.2500 -80.5000 Du        
   2692 ****       279.7500 315.2500 -80.2500 Du        
   2693 ****       279.7500 315.2500 -80.0000 Du        
   2694 ****       279.7500 315.2500 -79.7500 Du        
   2695 ****       279.7500 315.2500 -79.5000 Du        
   2696 ****       279.7500 315.2500 -79.2500 Du        
   2697 ****       279.7500 315.2500 -75.0000 Du        
   2698 ****       279.7500 315.2500 -74.7500 Du        
   2699 ****       279.7500 315.2500 -74.5000 Du        
   2700 ****       279.7500 315.2500 -74.2500 Du        
   2701 ****       279.7500 315.2500 -74.0000 Du        
   2702 ****       279.7500 315.2500 -73.7500 Du        
   2703 ****       279.7500 315.2500 -73.5000 Du        
   2704 ****       279.7500 315.2500 -73.2500 Du        
   2705 ****       279.7500 315.2500 -73.0000 Du        
   2706 ****       279.7500 315.2500 -72.7500 Du        
   2707 ****       279.7500 315.2500 -72.5000 Du        
   2708 ****       279.7500 315.2500 -72.2500 Du        
   2709 ****       279.7500 315.2500 -72.0000 Du        
   2710 ****       279.7500 315.2500 -71.7500 Du        
   2711 ****       279.7500 315.2500 -71.5000 Du        
   2712 ****       279.7500 315.2500 -71.2500 Du        
   2713 ****       279.7500 315.5000 -80.7500 Du        
   2714 ****       279.7500 315.5000 -80.5000 Du        
   2715 ****       279.7500 315.5000 -80.2500 Du        
   2716 ****       279.7500 315.5000 -80.0000 Du        
   2717 ****       279.7500 315.5000 -79.7500 Du        
   2718 ****       279.7500 315.5000 -79.5000 Du        
   2719 ****       279.7500 315.5000 -79.2500 Du        
   2720 ****       279.7500 315.5000 -79.0000 Du        
   2721 ****       279.7500 315.5000 -75.0000 Du        
   2722 ****       279.7500 315.5000 -74.7500 Du        
   2723 ****       279.7500 315.5000 -74.5000 Du        
   2724 ****       279.7500 315.5000 -74.2500 Du        
   2725 ****       279.7500 315.5000 -74.0000 Du        
   2726 ****       279.7500 315.5000 -73.7500 Du        
   2727 ****       279.7500 315.5000 -73.5000 Du        
   2728 ****       279.7500 315.5000 -73.2500 Du        
   2729 ****       279.7500 315.5000 -73.0000 Du        
   2730 ****       279.7500 315.5000 -72.7500 Du        
   2731 ****       279.7500 315.5000 -72.5000 Du        
   2732 ****       279.7500 315.5000 -72.2500 Du        
   2733 ****       279.7500 315.5000 -72.0000 Du        
   2734 ****       279.7500 315.5000 -71.7500 Du        
   2735 ****       279.7500 315.5000 -71.5000 Du        
   2736 ****       279.7500 315.7500 -80.5000 Du        
   2737 ****       279.7500 315.7500 -80.2500 Du        
   2738 ****       279.7500 315.7500 -80.0000 Du        
   2739 ****       279.7500 315.7500 -79.7500 Du        
   2740 ****       279.7500 315.7500 -79.5000 Du        
   2741 ****       279.7500 315.7500 -79.2500 Du        
   2742 ****       279.7500 315.7500 -79.0000 Du        
   2743 ****       279.7500 315.7500 -78.7500 Du        
   2744 ****       279.7500 315.7500 -75.0000 Du        
   2745 ****       279.7500 315.7500 -74.7500 Du        
   2746 ****       279.7500 315.7500 -74.5000 Du        
   2747 ****       279.7500 315.7500 -74.2500 Du        
   2748 ****       279.7500 315.7500 -74.0000 Du        
   2749 ****       279.7500 315.7500 -73.7500 Du        
   2750 ****       279.7500 315.7500 -73.5000 Du        
   2751 ****       279.7500 315.7500 -73.2500 Du        
   2752 ****       279.7500 315.7500 -73.0000 Du        
   2753 ****       279.7500 315.7500 -72.7500 Du        
   2754 ****       279.7500 315.7500 -72.5000 Du        
   2755 ****       279.7500 315.7500 -72.2500 Du        
   2756 ****       279.7500 315.7500 -72.0000 Du        
   2757 ****       279.7500 315.7500 -71.7500 Du        
   2758 ****       279.7500 316.0000 -80.2500 Du        
   2759 ****       279.7500 316.0000 -80.0000 Du        
   2760 ****       279.7500 316.0000 -79.7500 Du        
   2761 ****       279.7500 316.0000 -79.5000 Du        
   2762 ****       279.7500 316.0000 -79.2500 Du        
   2763 ****       279.7500 316.0000 -75.0000 Du        
   2764 ****       279.7500 316.0000 -74.7500 Du        
   2765 ****       279.7500 316.0000 -74.5000 Du        
   2766 ****       279.7500 316.0000 -74.2500 Du        
   2767 ****       279.7500 316.0000 -74.0000 Du        
   2768 ****       279.7500 316.0000 -73.7500 Du        
   2769 ****       279.7500 316.0000 -73.5000 Du        
   2770 ****       279.7500 316.0000 -73.2500 Du        
   2771 ****       279.7500 316.0000 -73.0000 Du        
   2772 ****       279.7500 316.0000 -72.7500 Du        
   2773 ****       279.7500 316.0000 -72.5000 Du        
   2774 ****       279.7500 316.0000 -72.2500 Du        
   2775 ****       279.7500 316.2500 -75.0000 Du        
   2776 ****       279.7500 316.2500 -74.2500 Du        
   2777 ****       279.7500 316.2500 -74.0000 Du        
   2778 ****       279.7500 316.2500 -73.7500 Du        
   2779 ****       279.7500 316.2500 -73.5000 Du        
   2780 ****       279.7500 316.2500 -73.2500 Du        
   2781 ****       279.7500 316.2500 -73.0000 Du        
   2782 ****       279.7500 316.2500 -72.7500 Du        
   2783 ****       279.7500 316.7500 -73.2500 Du        
   2784 ****       279.7500 317.0000 -74.0000 Du        
   2785 ****       279.7500 317.0000 -73.7500 Du        
   2786 ****       279.7500 317.2500 -74.0000 Du        
   2787 ****       279.7500 317.2500 -73.7500 Du        
   2788 ****       279.7500 317.5000 -74.0000 Du        
   2789 ****       279.7500 317.5000 -73.7500 Du        
   2790 ****       279.7500 317.7500 -74.2500 Du        
   2791 ****       279.7500 317.7500 -74.0000 Du        
   2792 ****       279.7500 317.7500 -73.7500 Du        
   2793 ****       279.7500 317.7500 -73.5000 Du        
   2794 ****       279.7500 318.0000 -74.2500 Du        
   2795 ****       279.7500 318.0000 -74.0000 Du        
   2796 ****       279.7500 318.0000 -73.7500 Du        
   2797 ****       279.7500 318.0000 -73.5000 Du        
   2798 ****       279.7500 318.2500 -74.0000 Du        
   2799 ****       279.7500 318.2500 -73.7500 Du        
   2800 ****       280.0000 313.5000 -71.0000 Du        
   2801 ****       280.0000 313.7500 -74.5000 Du        
   2802 ****       280.0000 313.7500 -74.2500 Du        
   2803 ****       280.0000 313.7500 -74.0000 Du        
   2804 ****       280.0000 313.7500 -73.7500 Du        
   2805 ****       280.0000 313.7500 -73.5000 Du        
   2806 ****       280.0000 313.7500 -73.2500 Du        
   2807 ****       280.0000 313.7500 -73.0000 Du        
   2808 ****       280.0000 313.7500 -72.7500 Du        
   2809 ****       280.0000 313.7500 -72.5000 Du        
   2810 ****       280.0000 313.7500 -72.2500 Du        
   2811 ****       280.0000 313.7500 -72.0000 Du        
   2812 ****       280.0000 313.7500 -71.7500 Du        
   2813 ****       280.0000 313.7500 -71.5000 Du        
   2814 ****       280.0000 313.7500 -71.2500 Du        
   2815 ****       280.0000 313.7500 -71.0000 Du        
   2816 ****       280.0000 313.7500 -70.7500 Du        
   2817 ****       280.0000 314.0000 -74.7500 Du        
   2818 ****       280.0000 314.0000 -74.5000 Du        
   2819 ****       280.0000 314.0000 -74.2500 Du        
   2820 ****       280.0000 314.0000 -74.0000 Du        
   2821 ****       280.0000 314.0000 -73.7500 Du        
   2822 ****       280.0000 314.0000 -73.5000 Du        
   2823 ****       280.0000 314.0000 -73.2500 Du        
   2824 ****       280.0000 314.0000 -73.0000 Du        
   2825 ****       280.0000 314.0000 -72.7500 Du        
   2826 ****       280.0000 314.0000 -72.5000 Du        
   2827 ****       280.0000 314.0000 -72.2500 Du        
   2828 ****       280.0000 314.0000 -72.0000 Du        
   2829 ****       280.0000 314.0000 -71.7500 Du        
   2830 ****       280.0000 314.0000 -71.5000 Du        
   2831 ****       280.0000 314.0000 -71.2500 Du        
   2832 ****       280.0000 314.0000 -71.0000 Du        
   2833 ****       280.0000 314.2500 -80.5000 Du        
   2834 ****       280.0000 314.2500 -80.2500 Du        
   2835 ****       280.0000 314.2500 -80.0000 Du        
   2836 ****       280.0000 314.2500 -79.7500 Du        
   2837 ****       280.0000 314.2500 -75.0000 Du        
   2838 ****       280.0000 314.2500 -74.7500 Du        
   2839 ****       280.0000 314.2500 -74.5000 Du        
   2840 ****       280.0000 314.2500 -74.2500 Du        
   2841 ****       280.0000 314.2500 -74.0000 Du        
   2842 ****       280.0000 314.2500 -73.7500 Du        
   2843 ****       280.0000 314.2500 -73.5000 Du        
   2844 ****       280.0000 314.2500 -73.2500 Du        
   2845 ****       280.0000 314.2500 -73.0000 Du        
   2846 ****       280.0000 314.2500 -72.7500 Du        
   2847 ****       280.0000 314.2500 -72.5000 Du        
   2848 ****       280.0000 314.2500 -72.2500 Du        
   2849 ****       280.0000 314.2500 -72.0000 Du        
   2850 ****       280.0000 314.2500 -71.7500 Du        
   2851 ****       280.0000 314.2500 -71.5000 Du        
   2852 ****       280.0000 314.2500 -71.2500 Du        
   2853 ****       280.0000 314.2500 -71.0000 Du        
   2854 ****       280.0000 314.5000 -81.2500 Du        
   2855 ****       280.0000 314.5000 -81.0000 Du        
   2856 ****       280.0000 314.5000 -80.7500 Du        
   2857 ****       280.0000 314.5000 -80.5000 Du        
   2858 ****       280.0000 314.5000 -80.2500 Du        
   2859 ****       280.0000 314.5000 -80.0000 Du        
   2860 ****       280.0000 314.5000 -79.7500 Du        
   2861 ****       280.0000 314.5000 -75.0000 Du        
   2862 ****       280.0000 314.5000 -74.7500 Du        
   2863 ****       280.0000 314.5000 -74.5000 Du        
   2864 ****       280.0000 314.5000 -74.2500 Du        
   2865 ****       280.0000 314.5000 -74.0000 Du        
   2866 ****       280.0000 314.5000 -73.7500 Du        
   2867 ****       280.0000 314.5000 -73.5000 Du        
   2868 ****       280.0000 314.5000 -73.2500 Du        
   2869 ****       280.0000 314.5000 -73.0000 Du        
   2870 ****       280.0000 314.5000 -72.7500 Du        
   2871 ****       280.0000 314.5000 -72.5000 Du        
   2872 ****       280.0000 314.5000 -72.2500 Du        
   2873 ****       280.0000 314.5000 -72.0000 Du        
   2874 ****       280.0000 314.5000 -71.7500 Du        
   2875 ****       280.0000 314.5000 -71.5000 Du        
   2876 ****       280.0000 314.5000 -71.2500 Du        
   2877 ****       280.0000 314.5000 -71.0000 Du        
   2878 ****       280.0000 314.7500 -81.2500 Du        
   2879 ****       280.0000 314.7500 -81.0000 Du        
   2880 ****       280.0000 314.7500 -80.7500 Du        
   2881 ****       280.0000 314.7500 -80.5000 Du        
   2882 ****       280.0000 314.7500 -80.2500 Du        
   2883 ****       280.0000 314.7500 -80.0000 Du        
   2884 ****       280.0000 314.7500 -79.7500 Du        
   2885 ****       280.0000 314.7500 -79.5000 Du        
   2886 ****       280.0000 314.7500 -75.0000 Du        
   2887 ****       280.0000 314.7500 -74.7500 Du        
   2888 ****       280.0000 314.7500 -74.5000 Du        
   2889 ****       280.0000 314.7500 -74.2500 Du        
   2890 ****       280.0000 314.7500 -74.0000 Du        
   2891 ****       280.0000 314.7500 -73.7500 Du        
   2892 ****       280.0000 314.7500 -73.5000 Du        
   2893 ****       280.0000 314.7500 -73.2500 Du        
   2894 ****       280.0000 314.7500 -73.0000 Du        
   2895 ****       280.0000 314.7500 -72.7500 Du        
   2896 ****       280.0000 314.7500 -72.5000 Du        
   2897 ****       280.0000 314.7500 -72.2500 Du        
   2898 ****       280.0000 314.7500 -72.0000 Du        
   2899 ****       280.0000 314.7500 -71.7500 Du        
   2900 ****       280.0000 314.7500 -71.5000 Du        
   2901 ****       280.0000 314.7500 -71.2500 Du        
   2902 ****       280.0000 314.7500 -71.0000 Du        
   2903 ****       280.0000 315.0000 -81.2500 Du        
   2904 ****       280.0000 315.0000 -81.0000 Du        
   2905 ****       280.0000 315.0000 -80.7500 Du        
   2906 ****       280.0000 315.0000 -80.5000 Du        
   2907 ****       280.0000 315.0000 -80.2500 Du        
   2908 ****       280.0000 315.0000 -80.0000 Du        
   2909 ****       280.0000 315.0000 -79.7500 Du        
   2910 ****       280.0000 315.0000 -79.5000 Du        
   2911 ****       280.0000 315.0000 -79.2500 Du        
   2912 ****       280.0000 315.0000 -75.2500 Du        
   2913 ****       280.0000 315.0000 -75.0000 Du        
   2914 ****       280.0000 315.0000 -74.7500 Du        
   2915 ****       280.0000 315.0000 -74.5000 Du        
   2916 ****       280.0000 315.0000 -74.2500 Du        
   2917 ****       280.0000 315.0000 -74.0000 Du        
   2918 ****       280.0000 315.0000 -73.7500 Du        
   2919 ****       280.0000 315.0000 -73.5000 Du        
   2920 ****       280.0000 315.0000 -73.2500 Du        
   2921 ****       280.0000 315.0000 -73.0000 Du        
   2922 ****       280.0000 315.0000 -72.7500 Du        
   2923 ****       280.0000 315.0000 -72.5000 Du        
   2924 ****       280.0000 315.0000 -72.2500 Du        
   2925 ****       280.0000 315.0000 -72.0000 Du        
   2926 ****       280.0000 315.0000 -71.7500 Du        
   2927 ****       280.0000 315.0000 -71.5000 Du        
   2928 ****       280.0000 315.0000 -71.2500 Du        
   2929 ****       280.0000 315.2500 -81.2500 Du        
   2930 ****       280.0000 315.2500 -81.0000 Du        
   2931 ****       280.0000 315.2500 -80.7500 Du        
   2932 ****       280.0000 315.2500 -80.5000 Du        
   2933 ****       280.0000 315.2500 -80.2500 Du        
   2934 ****       280.0000 315.2500 -80.0000 Du        
   2935 ****       280.0000 315.2500 -79.7500 Du        
   2936 ****       280.0000 315.2500 -79.5000 Du        
   2937 ****       280.0000 315.2500 -79.2500 Du        
   2938 ****       280.0000 315.2500 -79.0000 Du        
   2939 ****       280.0000 315.2500 -75.2500 Du        
   2940 ****       280.0000 315.2500 -75.0000 Du        
   2941 ****       280.0000 315.2500 -74.7500 Du        
   2942 ****       280.0000 315.2500 -74.5000 Du        
   2943 ****       280.0000 315.2500 -74.2500 Du        
   2944 ****       280.0000 315.2500 -74.0000 Du        
   2945 ****       280.0000 315.2500 -73.7500 Du        
   2946 ****       280.0000 315.2500 -73.5000 Du        
   2947 ****       280.0000 315.2500 -73.2500 Du        
   2948 ****       280.0000 315.2500 -73.0000 Du        
   2949 ****       280.0000 315.2500 -72.7500 Du        
   2950 ****       280.0000 315.2500 -72.5000 Du        
   2951 ****       280.0000 315.2500 -72.2500 Du        
   2952 ****       280.0000 315.2500 -72.0000 Du        
   2953 ****       280.0000 315.2500 -71.7500 Du        
   2954 ****       280.0000 315.2500 -71.5000 Du        
   2955 ****       280.0000 315.2500 -71.2500 Du        
   2956 ****       280.0000 315.5000 -81.0000 Du        
   2957 ****       280.0000 315.5000 -80.7500 Du        
   2958 ****       280.0000 315.5000 -80.5000 Du        
   2959 ****       280.0000 315.5000 -80.2500 Du        
   2960 ****       280.0000 315.5000 -80.0000 Du        
   2961 ****       280.0000 315.5000 -79.7500 Du        
   2962 ****       280.0000 315.5000 -79.5000 Du        
   2963 ****       280.0000 315.5000 -79.2500 Du        
   2964 ****       280.0000 315.5000 -79.0000 Du        
   2965 ****       280.0000 315.5000 -78.7500 Du        
   2966 ****       280.0000 315.5000 -75.2500 Du        
   2967 ****       280.0000 315.5000 -75.0000 Du        
   2968 ****       280.0000 315.5000 -74.7500 Du        
   2969 ****       280.0000 315.5000 -74.5000 Du        
   2970 ****       280.0000 315.5000 -74.2500 Du        
   2971 ****       280.0000 315.5000 -74.0000 Du        
   2972 ****       280.0000 315.5000 -73.7500 Du        
   2973 ****       280.0000 315.5000 -73.5000 Du        
   2974 ****       280.0000 315.5000 -73.2500 Du        
   2975 ****       280.0000 315.5000 -73.0000 Du        
   2976 ****       280.0000 315.5000 -72.7500 Du        
   2977 ****       280.0000 315.5000 -72.5000 Du        
   2978 ****       280.0000 315.5000 -72.2500 Du        
   2979 ****       280.0000 315.5000 -72.0000 Du        
   2980 ****       280.0000 315.5000 -71.7500 Du        
   2981 ****       280.0000 315.5000 -71.5000 Du        
   2982 ****       280.0000 315.5000 -71.2500 Du        
   2983 ****       280.0000 315.7500 -80.7500 Du        
   2984 ****       280.0000 315.7500 -80.2500 Du        
   2985 ****       280.0000 315.7500 -80.0000 Du        
   2986 ****       280.0000 315.7500 -79.7500 Du        
   2987 ****       280.0000 315.7500 -79.5000 Du        
   2988 ****       280.0000 315.7500 -79.2500 Du        
   2989 ****       280.0000 315.7500 -79.0000 Du        
   2990 ****       280.0000 315.7500 -78.7500 Du        
   2991 ****       280.0000 315.7500 -75.2500 Du        
   2992 ****       280.0000 315.7500 -75.0000 Du        
   2993 ****       280.0000 315.7500 -74.7500 Du        
   2994 ****       280.0000 315.7500 -74.5000 Du        
   2995 ****       280.0000 315.7500 -74.2500 Du        
   2996 ****       280.0000 315.7500 -74.0000 Du        
   2997 ****       280.0000 315.7500 -73.7500 Du        
   2998 ****       280.0000 315.7500 -73.5000 Du        
   2999 ****       280.0000 315.7500 -73.2500 Du        
   3000 ****       280.0000 315.7500 -73.0000 Du        
   3001 ****       280.0000 315.7500 -72.7500 Du        
   3002 ****       280.0000 315.7500 -72.5000 Du        
   3003 ****       280.0000 315.7500 -72.2500 Du        
   3004 ****       280.0000 315.7500 -72.0000 Du        
   3005 ****       280.0000 315.7500 -71.7500 Du        
   3006 ****       280.0000 315.7500 -71.5000 Du        
   3007 ****       280.0000 316.0000 -80.0000 Du        
   3008 ****       280.0000 316.0000 -79.7500 Du        
   3009 ****       280.0000 316.0000 -79.5000 Du        
   3010 ****       280.0000 316.0000 -75.0000 Du        
   3011 ****       280.0000 316.0000 -74.7500 Du        
   3012 ****       280.0000 316.0000 -74.5000 Du        
   3013 ****       280.0000 316.0000 -74.2500 Du        
   3014 ****       280.0000 316.0000 -74.0000 Du        
   3015 ****       280.0000 316.0000 -73.7500 Du        
   3016 ****       280.0000 316.0000 -73.5000 Du        
   3017 ****       280.0000 316.0000 -73.2500 Du        
   3018 ****       280.0000 316.0000 -73.0000 Du        
   3019 ****       280.0000 316.0000 -72.7500 Du        
   3020 ****       280.0000 316.0000 -72.5000 Du        
   3021 ****       280.0000 316.0000 -72.2500 Du        
   3022 ****       280.0000 316.2500 -74.0000 Du        
   3023 ****       280.0000 316.2500 -73.7500 Du        
   3024 ****       280.0000 316.2500 -73.5000 Du        
   3025 ****       280.0000 316.2500 -73.2500 Du        
   3026 ****       280.0000 316.2500 -73.0000 Du        
   3027 ****       280.0000 316.2500 -72.7500 Du        
   3028 ****       280.0000 317.0000 -73.7500 Du        
   3029 ****       280.0000 317.7500 -74.0000 Du        
   3030 ****       280.0000 317.7500 -73.7500 Du        
   3031 ****       280.0000 317.7500 -73.5000 Du        
   3032 ****       280.0000 318.0000 -74.2500 Du        
   3033 ****       280.0000 318.0000 -74.0000 Du        
   3034 ****       280.0000 318.0000 -73.7500 Du        
   3035 ****       280.0000 318.0000 -73.5000 Du        
   3036 ****       280.0000 318.2500 -74.2500 Du        
   3037 ****       280.0000 318.2500 -74.0000 Du        
   3038 ****       280.0000 318.2500 -73.7500 Du        
   3039 ****       280.2500 313.7500 -74.5000 Du        
   3040 ****       280.2500 313.7500 -74.2500 Du        
   3041 ****       280.2500 313.7500 -74.0000 Du        
   3042 ****       280.2500 313.7500 -73.7500 Du        
   3043 ****       280.2500 313.7500 -73.5000 Du        
   3044 ****       280.2500 313.7500 -73.2500 Du        
   3045 ****       280.2500 313.7500 -73.0000 Du        
   3046 ****       280.2500 313.7500 -72.7500 Du        
   3047 ****       280.2500 313.7500 -72.5000 Du        
   3048 ****       280.2500 313.7500 -72.2500 Du        
   3049 ****       280.2500 313.7500 -72.0000 Du        
   3050 ****       280.2500 313.7500 -71.7500 Du        
   3051 ****       280.2500 313.7500 -71.5000 Du        
   3052 ****       280.2500 313.7500 -71.2500 Du        
   3053 ****       280.2500 313.7500 -71.0000 Du        
   3054 ****       280.2500 313.7500 -70.7500 Du        
   3055 ****       280.2500 314.0000 -75.0000 Du        
   3056 ****       280.2500 314.0000 -74.7500 Du        
   3057 ****       280.2500 314.0000 -74.5000 Du        
   3058 ****       280.2500 314.0000 -74.2500 Du        
   3059 ****       280.2500 314.0000 -74.0000 Du        
   3060 ****       280.2500 314.0000 -73.7500 Du        
   3061 ****       280.2500 314.0000 -73.5000 Du        
   3062 ****       280.2500 314.0000 -73.2500 Du        
   3063 ****       280.2500 314.0000 -73.0000 Du        
   3064 ****       280.2500 314.0000 -72.7500 Du        
   3065 ****       280.2500 314.0000 -72.5000 Du        
   3066 ****       280.2500 314.0000 -72.2500 Du        
   3067 ****       280.2500 314.0000 -72.0000 Du        
   3068 ****       280.2500 314.0000 -71.7500 Du        
   3069 ****       280.2500 314.0000 -71.5000 Du        
   3070 ****       280.2500 314.0000 -71.2500 Du        
   3071 ****       280.2500 314.0000 -71.0000 Du        
   3072 ****       280.2500 314.0000 -70.7500 Du        
   3073 ****       280.2500 314.2500 -80.5000 Du        
   3074 ****       280.2500 314.2500 -80.2500 Du        
   3075 ****       280.2500 314.2500 -80.0000 Du        
   3076 ****       280.2500 314.2500 -79.7500 Du        
   3077 ****       280.2500 314.2500 -75.0000 Du        
   3078 ****       280.2500 314.2500 -74.7500 Du        
   3079 ****       280.2500 314.2500 -74.5000 Du        
   3080 ****       280.2500 314.2500 -74.2500 Du        
   3081 ****       280.2500 314.2500 -74.0000 Du        
   3082 ****       280.2500 314.2500 -73.7500 Du        
   3083 ****       280.2500 314.2500 -73.5000 Du        
   3084 ****       280.2500 314.2500 -73.2500 Du        
   3085 ****       280.2500 314.2500 -73.0000 Du        
   3086 ****       280.2500 314.2500 -72.7500 Du        
   3087 ****       280.2500 314.2500 -72.5000 Du        
   3088 ****       280.2500 314.2500 -72.2500 Du        
   3089 ****       280.2500 314.2500 -72.0000 Du        
   3090 ****       280.2500 314.2500 -71.7500 Du        
   3091 ****       280.2500 314.2500 -71.5000 Du        
   3092 ****       280.2500 314.2500 -71.2500 Du        
   3093 ****       280.2500 314.2500 -71.0000 Du        
   3094 ****       280.2500 314.2500 -70.7500 Du        
   3095 ****       280.2500 314.5000 -81.0000 Du        
   3096 ****       280.2500 314.5000 -80.7500 Du        
   3097 ****       280.2500 314.5000 -80.5000 Du        
   3098 ****       280.2500 314.5000 -80.2500 Du        
   3099 ****       280.2500 314.5000 -80.0000 Du        
   3100 ****       280.2500 314.5000 -79.7500 Du        
   3101 ****       280.2500 314.5000 -79.5000 Du        
   3102 ****       280.2500 314.5000 -75.0000 Du        
   3103 ****       280.2500 314.5000 -74.7500 Du        
   3104 ****       280.2500 314.5000 -74.5000 Du        
   3105 ****       280.2500 314.5000 -74.2500 Du        
   3106 ****       280.2500 314.5000 -74.0000 Du        
   3107 ****       280.2500 314.5000 -73.7500 Du        
   3108 ****       280.2500 314.5000 -73.5000 Du        
   3109 ****       280.2500 314.5000 -73.2500 Du        
   3110 ****       280.2500 314.5000 -73.0000 Du        
   3111 ****       280.2500 314.5000 -72.7500 Du        
   3112 ****       280.2500 314.5000 -72.5000 Du        
   3113 ****       280.2500 314.5000 -72.2500 Du        
   3114 ****       280.2500 314.5000 -72.0000 Du        
   3115 ****       280.2500 314.5000 -71.7500 Du        
   3116 ****       280.2500 314.5000 -71.5000 Du        
   3117 ****       280.2500 314.5000 -71.2500 Du        
   3118 ****       280.2500 314.5000 -71.0000 Du        
   3119 ****       280.2500 314.7500 -81.2500 Du        
   3120 ****       280.2500 314.7500 -81.0000 Du        
   3121 ****       280.2500 314.7500 -80.7500 Du        
   3122 ****       280.2500 314.7500 -80.5000 Du        
   3123 ****       280.2500 314.7500 -80.2500 Du        
   3124 ****       280.2500 314.7500 -80.0000 Du        
   3125 ****       280.2500 314.7500 -79.7500 Du        
   3126 ****       280.2500 314.7500 -79.5000 Du        
   3127 ****       280.2500 314.7500 -79.2500 Du        
   3128 ****       280.2500 314.7500 -75.2500 Du        
   3129 ****       280.2500 314.7500 -75.0000 Du        
   3130 ****       280.2500 314.7500 -74.7500 Du        
   3131 ****       280.2500 314.7500 -74.5000 Du        
   3132 ****       280.2500 314.7500 -74.2500 Du        
   3133 ****       280.2500 314.7500 -74.0000 Du        
   3134 ****       280.2500 314.7500 -73.7500 Du        
   3135 ****       280.2500 314.7500 -73.5000 Du        
   3136 ****       280.2500 314.7500 -73.2500 Du        
   3137 ****       280.2500 314.7500 -73.0000 Du        
   3138 ****       280.2500 314.7500 -72.7500 Du        
   3139 ****       280.2500 314.7500 -72.5000 Du        
   3140 ****       280.2500 314.7500 -72.2500 Du        
   3141 ****       280.2500 314.7500 -72.0000 Du        
   3142 ****       280.2500 314.7500 -71.7500 Du        
   3143 ****       280.2500 314.7500 -71.5000 Du        
   3144 ****       280.2500 314.7500 -71.2500 Du        
   3145 ****       280.2500 314.7500 -71.0000 Du        
   3146 ****       280.2500 315.0000 -81.2500 Du        
   3147 ****       280.2500 315.0000 -81.0000 Du        
   3148 ****       280.2500 315.0000 -80.7500 Du        
   3149 ****       280.2500 315.0000 -80.5000 Du        
   3150 ****       280.2500 315.0000 -80.2500 Du        
   3151 ****       280.2500 315.0000 -80.0000 Du        
   3152 ****       280.2500 315.0000 -79.7500 Du        
   3153 ****       280.2500 315.0000 -79.5000 Du        
   3154 ****       280.2500 315.0000 -79.2500 Du        
   3155 ****       280.2500 315.0000 -79.0000 Du        
   3156 ****       280.2500 315.0000 -75.5000 Du        
   3157 ****       280.2500 315.0000 -75.2500 Du        
   3158 ****       280.2500 315.0000 -75.0000 Du        
   3159 ****       280.2500 315.0000 -74.7500 Du        
   3160 ****       280.2500 315.0000 -74.5000 Du        
   3161 ****       280.2500 315.0000 -74.2500 Du        
   3162 ****       280.2500 315.0000 -74.0000 Du        
   3163 ****       280.2500 315.0000 -73.7500 Du        
   3164 ****       280.2500 315.0000 -73.5000 Du        
   3165 ****       280.2500 315.0000 -73.2500 Du        
   3166 ****       280.2500 315.0000 -73.0000 Du        
   3167 ****       280.2500 315.0000 -72.7500 Du        
   3168 ****       280.2500 315.0000 -72.5000 Du        
   3169 ****       280.2500 315.0000 -72.2500 Du        
   3170 ****       280.2500 315.0000 -72.0000 Du        
   3171 ****       280.2500 315.0000 -71.7500 Du        
   3172 ****       280.2500 315.0000 -71.5000 Du        
   3173 ****       280.2500 315.0000 -71.2500 Du        
   3174 ****       280.2500 315.0000 -71.0000 Du        
   3175 ****       280.2500 315.2500 -81.2500 Du        
   3176 ****       280.2500 315.2500 -81.0000 Du        
   3177 ****       280.2500 315.2500 -80.7500 Du        
   3178 ****       280.2500 315.2500 -80.5000 Du        
   3179 ****       280.2500 315.2500 -80.2500 Du        
   3180 ****       280.2500 315.2500 -80.0000 Du        
   3181 ****       280.2500 315.2500 -79.7500 Du        
   3182 ****       280.2500 315.2500 -79.5000 Du        
   3183 ****       280.2500 315.2500 -79.2500 Du        
   3184 ****       280.2500 315.2500 -79.0000 Du        
   3185 ****       280.2500 315.2500 -78.7500 Du        
   3186 ****       280.2500 315.2500 -75.7500 Du        
   3187 ****       280.2500 315.2500 -75.5000 Du        
   3188 ****       280.2500 315.2500 -75.2500 Du        
   3189 ****       280.2500 315.2500 -75.0000 Du        
   3190 ****       280.2500 315.2500 -74.7500 Du        
   3191 ****       280.2500 315.2500 -74.5000 Du        
   3192 ****       280.2500 315.2500 -74.2500 Du        
   3193 ****       280.2500 315.2500 -74.0000 Du        
   3194 ****       280.2500 315.2500 -73.7500 Du        
   3195 ****       280.2500 315.2500 -73.5000 Du        
   3196 ****       280.2500 315.2500 -73.2500 Du        
   3197 ****       280.2500 315.2500 -73.0000 Du        
   3198 ****       280.2500 315.2500 -72.7500 Du        
   3199 ****       280.2500 315.2500 -72.5000 Du        
   3200 ****       280.2500 315.2500 -72.2500 Du        
   3201 ****       280.2500 315.2500 -72.0000 Du        
   3202 ****       280.2500 315.2500 -71.7500 Du        
   3203 ****       280.2500 315.2500 -71.5000 Du        
   3204 ****       280.2500 315.2500 -71.2500 Du        
   3205 ****       280.2500 315.2500 -71.0000 Du        
   3206 ****       280.2500 315.5000 -81.0000 Du        
   3207 ****       280.2500 315.5000 -80.7500 Du        
   3208 ****       280.2500 315.5000 -80.5000 Du        
   3209 ****       280.2500 315.5000 -80.2500 Du        
   3210 ****       280.2500 315.5000 -80.0000 Du        
   3211 ****       280.2500 315.5000 -79.7500 Du        
   3212 ****       280.2500 315.5000 -79.5000 Du        
   3213 ****       280.2500 315.5000 -79.2500 Du        
   3214 ****       280.2500 315.5000 -79.0000 Du        
   3215 ****       280.2500 315.5000 -78.7500 Du        
   3216 ****       280.2500 315.5000 -75.2500 Du        
   3217 ****       280.2500 315.5000 -75.0000 Du        
   3218 ****       280.2500 315.5000 -74.7500 Du        
   3219 ****       280.2500 315.5000 -74.5000 Du        
   3220 ****       280.2500 315.5000 -74.2500 Du        
   3221 ****       280.2500 315.5000 -74.0000 Du        
   3222 ****       280.2500 315.5000 -73.7500 Du        
   3223 ****       280.2500 315.5000 -73.5000 Du        
   3224 ****       280.2500 315.5000 -73.2500 Du        
   3225 ****       280.2500 315.5000 -73.0000 Du        
   3226 ****       280.2500 315.5000 -72.7500 Du        
   3227 ****       280.2500 315.5000 -72.5000 Du        
   3228 ****       280.2500 315.5000 -72.2500 Du        
   3229 ****       280.2500 315.5000 -72.0000 Du        
   3230 ****       280.2500 315.5000 -71.7500 Du        
   3231 ****       280.2500 315.5000 -71.5000 Du        
   3232 ****       280.2500 315.5000 -71.2500 Du        
   3233 ****       280.2500 315.7500 -80.2500 Du        
   3234 ****       280.2500 315.7500 -80.0000 Du        
   3235 ****       280.2500 315.7500 -79.7500 Du        
   3236 ****       280.2500 315.7500 -79.5000 Du        
   3237 ****       280.2500 315.7500 -79.2500 Du        
   3238 ****       280.2500 315.7500 -79.0000 Du        
   3239 ****       280.2500 315.7500 -78.7500 Du        
   3240 ****       280.2500 315.7500 -75.5000 Du        
   3241 ****       280.2500 315.7500 -75.2500 Du        
   3242 ****       280.2500 315.7500 -75.0000 Du        
   3243 ****       280.2500 315.7500 -74.7500 Du        
   3244 ****       280.2500 315.7500 -74.5000 Du        
   3245 ****       280.2500 315.7500 -74.2500 Du        
   3246 ****       280.2500 315.7500 -74.0000 Du        
   3247 ****       280.2500 315.7500 -73.7500 Du        
   3248 ****       280.2500 315.7500 -73.5000 Du        
   3249 ****       280.2500 315.7500 -73.2500 Du        
   3250 ****       280.2500 315.7500 -73.0000 Du        
   3251 ****       280.2500 315.7500 -72.7500 Du        
   3252 ****       280.2500 315.7500 -72.5000 Du        
   3253 ****       280.2500 315.7500 -72.2500 Du        
   3254 ****       280.2500 315.7500 -72.0000 Du        
   3255 ****       280.2500 315.7500 -71.7500 Du        
   3256 ****       280.2500 315.7500 -71.5000 Du        
   3257 ****       280.2500 316.0000 -75.0000 Du        
   3258 ****       280.2500 316.0000 -74.7500 Du        
   3259 ****       280.2500 316.0000 -74.5000 Du        
   3260 ****       280.2500 316.0000 -74.2500 Du        
   3261 ****       280.2500 316.0000 -74.0000 Du        
   3262 ****       280.2500 316.0000 -73.7500 Du        
   3263 ****       280.2500 316.0000 -73.5000 Du        
   3264 ****       280.2500 316.0000 -73.2500 Du        
   3265 ****       280.2500 316.0000 -73.0000 Du        
   3266 ****       280.2500 316.0000 -72.7500 Du        
   3267 ****       280.2500 316.2500 -73.5000 Du        
   3268 ****       280.2500 316.2500 -73.2500 Du        
   3269 ****       280.2500 316.2500 -73.0000 Du        
   3270 ****       280.2500 316.2500 -72.7500 Du        
   3271 ****       280.2500 317.7500 -74.0000 Du        
   3272 ****       280.2500 317.7500 -73.7500 Du        
   3273 ****       280.2500 318.0000 -74.0000 Du        
   3274 ****       280.2500 318.0000 -73.7500 Du        
   3275 ****       280.2500 318.0000 -73.5000 Du        
   3276 ****       280.2500 318.2500 -74.0000 Du        
   3277 ****       280.2500 318.2500 -73.7500 Du        
   3278 ****       280.2500 318.2500 -73.5000 Du        
   3279 ****       280.2500 318.5000 -74.0000 Du        
   3280 ****       280.2500 318.5000 -73.7500 Du        
   3281 ****       280.2500 318.5000 -73.5000 Du        
   3282 ****       280.5000 313.7500 -74.5000 Du        
   3283 ****       280.5000 313.7500 -74.2500 Du        
   3284 ****       280.5000 313.7500 -74.0000 Du        
   3285 ****       280.5000 313.7500 -73.7500 Du        
   3286 ****       280.5000 313.7500 -73.5000 Du        
   3287 ****       280.5000 313.7500 -73.2500 Du        
   3288 ****       280.5000 314.0000 -75.0000 Du        
   3289 ****       280.5000 314.0000 -74.7500 Du        
   3290 ****       280.5000 314.0000 -74.5000 Du        
   3291 ****       280.5000 314.0000 -74.2500 Du        
   3292 ****       280.5000 314.0000 -74.0000 Du        
   3293 ****       280.5000 314.0000 -73.7500 Du        
   3294 ****       280.5000 314.0000 -73.5000 Du        
   3295 ****       280.5000 314.0000 -73.2500 Du        
   3296 ****       280.5000 314.0000 -73.0000 Du        
   3297 ****       280.5000 314.0000 -72.7500 Du        
   3298 ****       280.5000 314.0000 -72.5000 Du        
   3299 ****       280.5000 314.0000 -72.2500 Du        
   3300 ****       280.5000 314.0000 -72.0000 Du        
   3301 ****       280.5000 314.0000 -71.7500 Du        
   3302 ****       280.5000 314.0000 -71.5000 Du        
   3303 ****       280.5000 314.0000 -71.2500 Du        
   3304 ****       280.5000 314.0000 -71.0000 Du        
   3305 ****       280.5000 314.2500 -80.5000 Du        
   3306 ****       280.5000 314.2500 -80.2500 Du        
   3307 ****       280.5000 314.2500 -80.0000 Du        
   3308 ****       280.5000 314.2500 -79.7500 Du        
   3309 ****       280.5000 314.2500 -75.2500 Du        
   3310 ****       280.5000 314.2500 -75.0000 Du        
   3311 ****       280.5000 314.2500 -74.7500 Du        
   3312 ****       280.5000 314.2500 -74.5000 Du        
   3313 ****       280.5000 314.2500 -74.2500 Du        
   3314 ****       280.5000 314.2500 -74.0000 Du        
   3315 ****       280.5000 314.2500 -73.7500 Du        
   3316 ****       280.5000 314.2500 -73.5000 Du        
   3317 ****       280.5000 314.2500 -73.2500 Du        
   3318 ****       280.5000 314.2500 -73.0000 Du        
   3319 ****       280.5000 314.2500 -72.7500 Du        
   3320 ****       280.5000 314.2500 -72.5000 Du        
   3321 ****       280.5000 314.2500 -72.2500 Du        
   3322 ****       280.5000 314.2500 -72.0000 Du        
   3323 ****       280.5000 314.2500 -71.7500 Du        
   3324 ****       280.5000 314.2500 -71.5000 Du        
   3325 ****       280.5000 314.2500 -71.2500 Du        
   3326 ****       280.5000 314.2500 -71.0000 Du        
   3327 ****       280.5000 314.5000 -80.7500 Du        
   3328 ****       280.5000 314.5000 -80.5000 Du        
   3329 ****       280.5000 314.5000 -80.2500 Du        
   3330 ****       280.5000 314.5000 -80.0000 Du        
   3331 ****       280.5000 314.5000 -79.7500 Du        
   3332 ****       280.5000 314.5000 -79.5000 Du        
   3333 ****       280.5000 314.5000 -75.2500 Du        
   3334 ****       280.5000 314.5000 -75.0000 Du        
   3335 ****       280.5000 314.5000 -74.7500 Du        
   3336 ****       280.5000 314.5000 -74.5000 Du        
   3337 ****       280.5000 314.5000 -74.2500 Du        
   3338 ****       280.5000 314.5000 -74.0000 Du        
   3339 ****       280.5000 314.5000 -73.7500 Du        
   3340 ****       280.5000 314.5000 -73.5000 Du        
   3341 ****       280.5000 314.5000 -73.2500 Du        
   3342 ****       280.5000 314.5000 -73.0000 Du        
   3343 ****       280.5000 314.5000 -72.7500 Du        
   3344 ****       280.5000 314.5000 -72.5000 Du        
   3345 ****       280.5000 314.5000 -72.2500 Du        
   3346 ****       280.5000 314.5000 -72.0000 Du        
   3347 ****       280.5000 314.5000 -71.7500 Du        
   3348 ****       280.5000 314.5000 -71.5000 Du        
   3349 ****       280.5000 314.5000 -71.2500 Du        
   3350 ****       280.5000 314.5000 -71.0000 Du        
   3351 ****       280.5000 314.7500 -81.2500 Du        
   3352 ****       280.5000 314.7500 -81.0000 Du        
   3353 ****       280.5000 314.7500 -80.7500 Du        
   3354 ****       280.5000 314.7500 -80.5000 Du        
   3355 ****       280.5000 314.7500 -80.2500 Du        
   3356 ****       280.5000 314.7500 -80.0000 Du        
   3357 ****       280.5000 314.7500 -79.7500 Du        
   3358 ****       280.5000 314.7500 -79.5000 Du        
   3359 ****       280.5000 314.7500 -79.2500 Du        
   3360 ****       280.5000 314.7500 -75.2500 Du        
   3361 ****       280.5000 314.7500 -75.0000 Du        
   3362 ****       280.5000 314.7500 -74.7500 Du        
   3363 ****       280.5000 314.7500 -74.5000 Du        
   3364 ****       280.5000 314.7500 -74.2500 Du        
   3365 ****       280.5000 314.7500 -74.0000 Du        
   3366 ****       280.5000 314.7500 -73.7500 Du        
   3367 ****       280.5000 314.7500 -73.5000 Du        
   3368 ****       280.5000 314.7500 -73.2500 Du        
   3369 ****       280.5000 314.7500 -73.0000 Du        
   3370 ****       280.5000 314.7500 -72.7500 Du        
   3371 ****       280.5000 314.7500 -72.5000 Du        
   3372 ****       280.5000 314.7500 -72.2500 Du        
   3373 ****       280.5000 314.7500 -72.0000 Du        
   3374 ****       280.5000 314.7500 -71.7500 Du        
   3375 ****       280.5000 314.7500 -71.5000 Du        
   3376 ****       280.5000 314.7500 -71.2500 Du        
   3377 ****       280.5000 314.7500 -71.0000 Du        
   3378 ****       280.5000 315.0000 -81.2500 Du        
   3379 ****       280.5000 315.0000 -81.0000 Du        
   3380 ****       280.5000 315.0000 -80.7500 Du        
   3381 ****       280.5000 315.0000 -80.5000 Du        
   3382 ****       280.5000 315.0000 -80.2500 Du        
   3383 ****       280.5000 315.0000 -80.0000 Du        
   3384 ****       280.5000 315.0000 -79.7500 Du        
   3385 ****       280.5000 315.0000 -79.5000 Du        
   3386 ****       280.5000 315.0000 -79.2500 Du        
   3387 ****       280.5000 315.0000 -79.0000 Du        
   3388 ****       280.5000 315.0000 -75.7500 Du        
   3389 ****       280.5000 315.0000 -75.5000 Du        
   3390 ****       280.5000 315.0000 -75.2500 Du        
   3391 ****       280.5000 315.0000 -75.0000 Du        
   3392 ****       280.5000 315.0000 -74.7500 Du        
   3393 ****       280.5000 315.0000 -74.5000 Du        
   3394 ****       280.5000 315.0000 -74.2500 Du        
   3395 ****       280.5000 315.0000 -74.0000 Du        
   3396 ****       280.5000 315.0000 -73.7500 Du        
   3397 ****       280.5000 315.0000 -73.5000 Du        
   3398 ****       280.5000 315.0000 -73.2500 Du        
   3399 ****       280.5000 315.0000 -73.0000 Du        
   3400 ****       280.5000 315.0000 -72.7500 Du        
   3401 ****       280.5000 315.0000 -72.5000 Du        
   3402 ****       280.5000 315.0000 -72.2500 Du        
   3403 ****       280.5000 315.0000 -72.0000 Du        
   3404 ****       280.5000 315.0000 -71.7500 Du        
   3405 ****       280.5000 315.0000 -71.5000 Du        
   3406 ****       280.5000 315.0000 -71.2500 Du        
   3407 ****       280.5000 315.0000 -71.0000 Du        
   3408 ****       280.5000 315.2500 -81.2500 Du        
   3409 ****       280.5000 315.2500 -81.0000 Du        
   3410 ****       280.5000 315.2500 -80.7500 Du        
   3411 ****       280.5000 315.2500 -80.5000 Du        
   3412 ****       280.5000 315.2500 -80.2500 Du        
   3413 ****       280.5000 315.2500 -80.0000 Du        
   3414 ****       280.5000 315.2500 -79.7500 Du        
   3415 ****       280.5000 315.2500 -79.5000 Du        
   3416 ****       280.5000 315.2500 -79.2500 Du        
   3417 ****       280.5000 315.2500 -79.0000 Du        
   3418 ****       280.5000 315.2500 -78.7500 Du        
   3419 ****       280.5000 315.2500 -78.5000 Du        
   3420 ****       280.5000 315.2500 -76.0000 Du        
   3421 ****       280.5000 315.2500 -75.7500 Du        
   3422 ****       280.5000 315.2500 -75.5000 Du        
   3423 ****       280.5000 315.2500 -75.2500 Du        
   3424 ****       280.5000 315.2500 -75.0000 Du        
   3425 ****       280.5000 315.2500 -74.7500 Du        
   3426 ****       280.5000 315.2500 -74.5000 Du        
   3427 ****       280.5000 315.2500 -74.2500 Du        
   3428 ****       280.5000 315.2500 -74.0000 Du        
   3429 ****       280.5000 315.2500 -73.7500 Du        
   3430 ****       280.5000 315.2500 -73.5000 Du        
   3431 ****       280.5000 315.2500 -73.2500 Du        
   3432 ****       280.5000 315.2500 -73.0000 Du        
   3433 ****       280.5000 315.2500 -72.7500 Du        
   3434 ****       280.5000 315.2500 -72.5000 Du        
   3435 ****       280.5000 315.2500 -72.2500 Du        
   3436 ****       280.5000 315.2500 -72.0000 Du        
   3437 ****       280.5000 315.2500 -71.7500 Du        
   3438 ****       280.5000 315.2500 -71.5000 Du        
   3439 ****       280.5000 315.2500 -71.2500 Du        
   3440 ****       280.5000 315.2500 -71.0000 Du        
   3441 ****       280.5000 315.5000 -80.2500 Du        
   3442 ****       280.5000 315.5000 -80.0000 Du        
   3443 ****       280.5000 315.5000 -79.7500 Du        
   3444 ****       280.5000 315.5000 -79.5000 Du        
   3445 ****       280.5000 315.5000 -79.2500 Du        
   3446 ****       280.5000 315.5000 -79.0000 Du        
   3447 ****       280.5000 318.5000 -74.0000 Du        
   3448 ****       280.5000 318.5000 -73.7500 Du        
   3449 ****       280.5000 318.5000 -73.5000 Du        
   3450 ****       280.5000 318.5000 -73.2500 Du        
   3451 ****       280.5000 318.7500 -73.7500 Du        
   3452 ****       280.5000 318.7500 -73.5000 Du        
   3453 ****       280.7500 313.7500 -74.5000 Du        
   3454 ****       280.7500 313.7500 -74.2500 Du        
   3455 ****       280.7500 313.7500 -74.0000 Du        
   3456 ****       280.7500 313.7500 -73.7500 Du        
   3457 ****       280.7500 313.7500 -73.5000 Du        
   3458 ****       280.7500 313.7500 -73.2500 Du        
   3459 ****       280.7500 314.0000 -80.0000 Du        
   3460 ****       280.7500 314.0000 -75.0000 Du        
   3461 ****       280.7500 314.0000 -74.7500 Du        
   3462 ****       280.7500 314.0000 -74.5000 Du        
   3463 ****       280.7500 314.0000 -74.2500 Du        
   3464 ****       280.7500 314.0000 -74.0000 Du        
   3465 ****       280.7500 314.0000 -73.7500 Du        
   3466 ****       280.7500 314.0000 -73.5000 Du        
   3467 ****       280.7500 314.0000 -73.2500 Du        
   3468 ****       280.7500 314.0000 -73.0000 Du        
   3469 ****       280.7500 314.0000 -72.7500 Du        
   3470 ****       280.7500 314.0000 -72.5000 Du        
   3471 ****       280.7500 314.0000 -72.2500 Du        
   3472 ****       280.7500 314.0000 -72.0000 Du        
   3473 ****       280.7500 314.0000 -71.7500 Du        
   3474 ****       280.7500 314.0000 -71.5000 Du        
   3475 ****       280.7500 314.0000 -71.2500 Du        
   3476 ****       280.7500 314.0000 -71.0000 Du        
   3477 ****       280.7500 314.2500 -80.5000 Du        
   3478 ****       280.7500 314.2500 -80.2500 Du        
   3479 ****       280.7500 314.2500 -80.0000 Du        
   3480 ****       280.7500 314.2500 -79.7500 Du        
   3481 ****       280.7500 314.2500 -79.5000 Du        
   3482 ****       280.7500 314.2500 -75.0000 Du        
   3483 ****       280.7500 314.2500 -74.7500 Du        
   3484 ****       280.7500 314.2500 -74.5000 Du        
   3485 ****       280.7500 314.2500 -74.2500 Du        
   3486 ****       280.7500 314.2500 -74.0000 Du        
   3487 ****       280.7500 314.2500 -73.7500 Du        
   3488 ****       280.7500 314.2500 -73.5000 Du        
   3489 ****       280.7500 314.2500 -73.2500 Du        
   3490 ****       280.7500 314.2500 -73.0000 Du        
   3491 ****       280.7500 314.2500 -72.7500 Du        
   3492 ****       280.7500 314.2500 -72.5000 Du        
   3493 ****       280.7500 314.2500 -72.2500 Du        
   3494 ****       280.7500 314.2500 -72.0000 Du        
   3495 ****       280.7500 314.2500 -71.7500 Du        
   3496 ****       280.7500 314.2500 -71.5000 Du        
   3497 ****       280.7500 314.2500 -71.2500 Du        
   3498 ****       280.7500 314.2500 -71.0000 Du        
   3499 ****       280.7500 314.5000 -80.7500 Du        
   3500 ****       280.7500 314.5000 -80.5000 Du        
   3501 ****       280.7500 314.5000 -80.2500 Du        
   3502 ****       280.7500 314.5000 -80.0000 Du        
   3503 ****       280.7500 314.5000 -79.7500 Du        
   3504 ****       280.7500 314.5000 -79.5000 Du        
   3505 ****       280.7500 314.5000 -79.2500 Du        
   3506 ****       280.7500 314.5000 -75.2500 Du        
   3507 ****       280.7500 314.5000 -75.0000 Du        
   3508 ****       280.7500 314.5000 -74.7500 Du        
   3509 ****       280.7500 314.5000 -74.5000 Du        
   3510 ****       280.7500 314.5000 -74.2500 Du        
   3511 ****       280.7500 314.5000 -74.0000 Du        
   3512 ****       280.7500 314.5000 -73.7500 Du        
   3513 ****       280.7500 314.5000 -73.5000 Du        
   3514 ****       280.7500 314.5000 -73.2500 Du        
   3515 ****       280.7500 314.5000 -73.0000 Du        
   3516 ****       280.7500 314.5000 -72.7500 Du        
   3517 ****       280.7500 314.5000 -72.5000 Du        
   3518 ****       280.7500 314.5000 -72.2500 Du        
   3519 ****       280.7500 314.5000 -72.0000 Du        
   3520 ****       280.7500 314.5000 -71.7500 Du        
   3521 ****       280.7500 314.5000 -71.5000 Du        
   3522 ****       280.7500 314.5000 -71.2500 Du        
   3523 ****       280.7500 314.5000 -71.0000 Du        
   3524 ****       280.7500 314.5000 -70.7500 Du        
   3525 ****       280.7500 314.7500 -81.2500 Du        
   3526 ****       280.7500 314.7500 -81.0000 Du        
   3527 ****       280.7500 314.7500 -80.7500 Du        
   3528 ****       280.7500 314.7500 -80.5000 Du        
   3529 ****       280.7500 314.7500 -80.2500 Du        
   3530 ****       280.7500 314.7500 -80.0000 Du        
   3531 ****       280.7500 314.7500 -79.7500 Du        
   3532 ****       280.7500 314.7500 -79.5000 Du        
   3533 ****       280.7500 314.7500 -79.2500 Du        
   3534 ****       280.7500 314.7500 -79.0000 Du        
   3535 ****       280.7500 314.7500 -75.5000 Du        
   3536 ****       280.7500 314.7500 -75.2500 Du        
   3537 ****       280.7500 314.7500 -75.0000 Du        
   3538 ****       280.7500 314.7500 -74.7500 Du        
   3539 ****       280.7500 314.7500 -74.5000 Du        
   3540 ****       280.7500 314.7500 -74.2500 Du        
   3541 ****       280.7500 314.7500 -74.0000 Du        
   3542 ****       280.7500 314.7500 -73.7500 Du        
   3543 ****       280.7500 314.7500 -73.5000 Du        
   3544 ****       280.7500 314.7500 -73.2500 Du        
   3545 ****       280.7500 314.7500 -73.0000 Du        
   3546 ****       280.7500 314.7500 -72.7500 Du        
   3547 ****       280.7500 314.7500 -72.5000 Du        
   3548 ****       280.7500 314.7500 -72.2500 Du        
   3549 ****       280.7500 314.7500 -72.0000 Du        
   3550 ****       280.7500 314.7500 -71.7500 Du        
   3551 ****       280.7500 314.7500 -71.5000 Du        
   3552 ****       280.7500 314.7500 -71.2500 Du        
   3553 ****       280.7500 314.7500 -71.0000 Du        
   3554 ****       280.7500 314.7500 -70.7500 Du        
   3555 ****       280.7500 315.0000 -81.2500 Du        
   3556 ****       280.7500 315.0000 -81.0000 Du        
   3557 ****       280.7500 315.0000 -80.7500 Du        
   3558 ****       280.7500 315.0000 -80.5000 Du        
   3559 ****       280.7500 315.0000 -80.2500 Du        
   3560 ****       280.7500 315.0000 -80.0000 Du        
   3561 ****       280.7500 315.0000 -79.7500 Du        
   3562 ****       280.7500 315.0000 -79.5000 Du        
   3563 ****       280.7500 315.0000 -79.2500 Du        
   3564 ****       280.7500 315.0000 -79.0000 Du        
   3565 ****       280.7500 315.0000 -78.7500 Du        
   3566 ****       280.7500 315.0000 -76.0000 Du        
   3567 ****       280.7500 315.0000 -75.7500 Du        
   3568 ****       280.7500 315.0000 -75.5000 Du        
   3569 ****       280.7500 315.0000 -75.2500 Du        
   3570 ****       280.7500 315.0000 -75.0000 Du        
   3571 ****       280.7500 315.0000 -74.7500 Du        
   3572 ****       280.7500 315.0000 -74.5000 Du        
   3573 ****       280.7500 315.0000 -74.2500 Du        
   3574 ****       280.7500 315.0000 -74.0000 Du        
   3575 ****       280.7500 315.0000 -73.7500 Du        
   3576 ****       280.7500 315.0000 -73.5000 Du        
   3577 ****       280.7500 315.0000 -73.2500 Du        
   3578 ****       280.7500 315.0000 -73.0000 Du        
   3579 ****       280.7500 315.0000 -72.7500 Du        
   3580 ****       280.7500 315.0000 -72.5000 Du        
   3581 ****       280.7500 315.0000 -72.2500 Du        
   3582 ****       280.7500 315.0000 -72.0000 Du        
   3583 ****       280.7500 315.0000 -71.7500 Du        
   3584 ****       280.7500 315.0000 -71.5000 Du        
   3585 ****       280.7500 315.0000 -71.2500 Du        
   3586 ****       280.7500 315.0000 -71.0000 Du        
   3587 ****       280.7500 315.2500 -81.2500 Du        
   3588 ****       280.7500 315.2500 -81.0000 Du        
   3589 ****       280.7500 315.2500 -80.7500 Du        
   3590 ****       280.7500 315.2500 -80.5000 Du        
   3591 ****       280.7500 315.2500 -80.2500 Du        
   3592 ****       280.7500 315.2500 -80.0000 Du        
   3593 ****       280.7500 315.2500 -79.7500 Du        
   3594 ****       280.7500 315.2500 -79.5000 Du        
   3595 ****       280.7500 315.2500 -79.2500 Du        
   3596 ****       280.7500 315.2500 -79.0000 Du        
   3597 ****       280.7500 315.2500 -78.7500 Du        
   3598 ****       280.7500 315.2500 -78.5000 Du        
   3599 ****       280.7500 315.2500 -78.2500 Du        
   3600 ****       280.7500 315.2500 -78.0000 Du        
   3601 ****       280.7500 315.2500 -76.2500 Du        
   3602 ****       280.7500 315.2500 -76.0000 Du        
   3603 ****       280.7500 315.2500 -75.7500 Du        
   3604 ****       280.7500 315.2500 -75.5000 Du        
   3605 ****       280.7500 315.2500 -75.2500 Du        
   3606 ****       280.7500 315.2500 -75.0000 Du        
   3607 ****       280.7500 315.2500 -74.7500 Du        
   3608 ****       280.7500 315.2500 -74.2500 Du        
   3609 ****       280.7500 315.2500 -74.0000 Du        
   3610 ****       280.7500 315.2500 -73.7500 Du        
   3611 ****       280.7500 315.2500 -73.5000 Du        
   3612 ****       280.7500 315.2500 -73.2500 Du        
   3613 ****       280.7500 315.2500 -73.0000 Du        
   3614 ****       280.7500 315.2500 -72.7500 Du        
   3615 ****       280.7500 315.2500 -72.5000 Du        
   3616 ****       280.7500 315.2500 -72.2500 Du        
   3617 ****       280.7500 315.2500 -72.0000 Du        
   3618 ****       280.7500 315.2500 -71.7500 Du        
   3619 ****       280.7500 315.2500 -71.5000 Du        
   3620 ****       280.7500 315.2500 -71.2500 Du        
   3621 ****       280.7500 315.2500 -71.0000 Du        
   3622 ****       280.7500 315.5000 -80.0000 Du        
   3623 ****       280.7500 315.5000 -79.7500 Du        
   3624 ****       280.7500 315.5000 -79.5000 Du        
   3625 ****       280.7500 315.5000 -79.2500 Du        
   3626 ****       280.7500 315.5000 -79.0000 Du        
   3627 ****       280.7500 318.2500 -73.2500 Du        
   3628 ****       280.7500 318.5000 -74.0000 Du        
   3629 ****       280.7500 318.5000 -73.7500 Du        
   3630 ****       280.7500 318.5000 -73.5000 Du        
   3631 ****       280.7500 318.5000 -73.2500 Du        
   3632 ****       280.7500 318.7500 -73.7500 Du        
   3633 ****       280.7500 318.7500 -73.5000 Du        
   3634 ****       280.7500 318.7500 -73.2500 Du        
   3635 ****       280.7500 319.0000 -73.7500 Du        
   3636 ****       280.7500 319.0000 -73.5000 Du        
   3637 ****       281.0000 313.7500 -74.2500 Du        
   3638 ****       281.0000 313.7500 -74.0000 Du        
   3639 ****       281.0000 313.7500 -73.7500 Du        
   3640 ****       281.0000 314.0000 -80.0000 Du        
   3641 ****       281.0000 314.0000 -79.7500 Du        
   3642 ****       281.0000 314.0000 -74.7500 Du        
   3643 ****       281.0000 314.0000 -74.5000 Du        
   3644 ****       281.0000 314.0000 -74.2500 Du        
   3645 ****       281.0000 314.0000 -74.0000 Du        
   3646 ****       281.0000 314.0000 -73.7500 Du        
   3647 ****       281.0000 314.0000 -73.5000 Du        
   3648 ****       281.0000 314.0000 -73.2500 Du        
   3649 ****       281.0000 314.0000 -73.0000 Du        
   3650 ****       281.0000 314.0000 -72.7500 Du        
   3651 ****       281.0000 314.2500 -80.5000 Du        
   3652 ****       281.0000 314.2500 -80.2500 Du        
   3653 ****       281.0000 314.2500 -80.0000 Du        
   3654 ****       281.0000 314.2500 -79.7500 Du        
   3655 ****       281.0000 314.2500 -79.5000 Du        
   3656 ****       281.0000 314.2500 -75.0000 Du        
   3657 ****       281.0000 314.2500 -74.7500 Du        
   3658 ****       281.0000 314.2500 -74.5000 Du        
   3659 ****       281.0000 314.2500 -74.2500 Du        
   3660 ****       281.0000 314.2500 -74.0000 Du        
   3661 ****       281.0000 314.2500 -73.7500 Du        
   3662 ****       281.0000 314.2500 -73.5000 Du        
   3663 ****       281.0000 314.2500 -73.2500 Du        
   3664 ****       281.0000 314.2500 -73.0000 Du        
   3665 ****       281.0000 314.2500 -72.7500 Du        
   3666 ****       281.0000 314.2500 -72.5000 Du        
   3667 ****       281.0000 314.2500 -72.2500 Du        
   3668 ****       281.0000 314.2500 -72.0000 Du        
   3669 ****       281.0000 314.2500 -71.7500 Du        
   3670 ****       281.0000 314.2500 -71.5000 Du        
   3671 ****       281.0000 314.2500 -71.2500 Du        
   3672 ****       281.0000 314.2500 -71.0000 Du        
   3673 ****       281.0000 314.2500 -70.7500 Du        
   3674 ****       281.0000 314.5000 -80.7500 Du        
   3675 ****       281.0000 314.5000 -80.5000 Du        
   3676 ****       281.0000 314.5000 -80.2500 Du        
   3677 ****       281.0000 314.5000 -80.0000 Du        
   3678 ****       281.0000 314.5000 -79.7500 Du        
   3679 ****       281.0000 314.5000 -79.5000 Du        
   3680 ****       281.0000 314.5000 -79.2500 Du        
   3681 ****       281.0000 314.5000 -75.0000 Du        
   3682 ****       281.0000 314.5000 -74.7500 Du        
   3683 ****       281.0000 314.5000 -74.5000 Du        
   3684 ****       281.0000 314.5000 -74.2500 Du        
   3685 ****       281.0000 314.5000 -74.0000 Du        
   3686 ****       281.0000 314.5000 -73.7500 Du        
   3687 ****       281.0000 314.5000 -73.5000 Du        
   3688 ****       281.0000 314.5000 -73.2500 Du        
   3689 ****       281.0000 314.5000 -73.0000 Du        
   3690 ****       281.0000 314.5000 -72.7500 Du        
   3691 ****       281.0000 314.5000 -72.5000 Du        
   3692 ****       281.0000 314.5000 -72.2500 Du        
   3693 ****       281.0000 314.5000 -72.0000 Du        
   3694 ****       281.0000 314.5000 -71.7500 Du        
   3695 ****       281.0000 314.5000 -71.5000 Du        
   3696 ****       281.0000 314.5000 -71.2500 Du        
   3697 ****       281.0000 314.5000 -71.0000 Du        
   3698 ****       281.0000 314.5000 -70.7500 Du        
   3699 ****       281.0000 314.7500 -81.2500 Du        
   3700 ****       281.0000 314.7500 -81.0000 Du        
   3701 ****       281.0000 314.7500 -80.7500 Du        
   3702 ****       281.0000 314.7500 -80.5000 Du        
   3703 ****       281.0000 314.7500 -80.2500 Du        
   3704 ****       281.0000 314.7500 -80.0000 Du        
   3705 ****       281.0000 314.7500 -79.7500 Du        
   3706 ****       281.0000 314.7500 -79.5000 Du        
   3707 ****       281.0000 314.7500 -79.2500 Du        
   3708 ****       281.0000 314.7500 -79.0000 Du        
   3709 ****       281.0000 314.7500 -78.7500 Du        
   3710 ****       281.0000 314.7500 -75.2500 Du        
   3711 ****       281.0000 314.7500 -75.0000 Du        
   3712 ****       281.0000 314.7500 -74.7500 Du        
   3713 ****       281.0000 314.7500 -74.5000 Du        
   3714 ****       281.0000 314.7500 -74.2500 Du        
   3715 ****       281.0000 314.7500 -74.0000 Du        
   3716 ****       281.0000 314.7500 -73.7500 Du        
   3717 ****       281.0000 314.7500 -73.5000 Du        
   3718 ****       281.0000 314.7500 -73.2500 Du        
   3719 ****       281.0000 314.7500 -73.0000 Du        
   3720 ****       281.0000 314.7500 -72.7500 Du        
   3721 ****       281.0000 314.7500 -72.5000 Du        
   3722 ****       281.0000 314.7500 -72.2500 Du        
   3723 ****       281.0000 314.7500 -72.0000 Du        
   3724 ****       281.0000 314.7500 -71.7500 Du        
   3725 ****       281.0000 314.7500 -71.5000 Du        
   3726 ****       281.0000 314.7500 -71.2500 Du        
   3727 ****       281.0000 314.7500 -71.0000 Du        
   3728 ****       281.0000 314.7500 -70.7500 Du        
   3729 ****       281.0000 315.0000 -81.2500 Du        
   3730 ****       281.0000 315.0000 -81.0000 Du        
   3731 ****       281.0000 315.0000 -80.7500 Du        
   3732 ****       281.0000 315.0000 -80.5000 Du        
   3733 ****       281.0000 315.0000 -80.2500 Du        
   3734 ****       281.0000 315.0000 -80.0000 Du        
   3735 ****       281.0000 315.0000 -79.7500 Du        
   3736 ****       281.0000 315.0000 -79.5000 Du        
   3737 ****       281.0000 315.0000 -79.2500 Du        
   3738 ****       281.0000 315.0000 -79.0000 Du        
   3739 ****       281.0000 315.0000 -78.7500 Du        
   3740 ****       281.0000 315.0000 -78.5000 Du        
   3741 ****       281.0000 315.0000 -76.0000 Du        
   3742 ****       281.0000 315.0000 -75.7500 Du        
   3743 ****       281.0000 315.0000 -75.5000 Du        
   3744 ****       281.0000 315.0000 -75.2500 Du        
   3745 ****       281.0000 315.0000 -75.0000 Du        
   3746 ****       281.0000 315.0000 -74.7500 Du        
   3747 ****       281.0000 315.0000 -74.5000 Du        
   3748 ****       281.0000 315.0000 -74.2500 Du        
   3749 ****       281.0000 315.0000 -74.0000 Du        
   3750 ****       281.0000 315.0000 -73.7500 Du        
   3751 ****       281.0000 315.0000 -73.5000 Du        
   3752 ****       281.0000 315.0000 -73.2500 Du        
   3753 ****       281.0000 315.0000 -73.0000 Du        
   3754 ****       281.0000 315.0000 -72.7500 Du        
   3755 ****       281.0000 315.0000 -72.2500 Du        
   3756 ****       281.0000 315.0000 -72.0000 Du        
   3757 ****       281.0000 315.0000 -71.7500 Du        
   3758 ****       281.0000 315.0000 -71.5000 Du        
   3759 ****       281.0000 315.0000 -71.2500 Du        
   3760 ****       281.0000 315.0000 -71.0000 Du        
   3761 ****       281.0000 315.0000 -70.7500 Du        
   3762 ****       281.0000 315.2500 -81.2500 Du        
   3763 ****       281.0000 315.2500 -81.0000 Du        
   3764 ****       281.0000 315.2500 -80.7500 Du        
   3765 ****       281.0000 315.2500 -80.5000 Du        
   3766 ****       281.0000 315.2500 -80.2500 Du        
   3767 ****       281.0000 315.2500 -80.0000 Du        
   3768 ****       281.0000 315.2500 -79.7500 Du        
   3769 ****       281.0000 315.2500 -79.5000 Du        
   3770 ****       281.0000 315.2500 -79.2500 Du        
   3771 ****       281.0000 315.2500 -79.0000 Du        
   3772 ****       281.0000 315.2500 -78.7500 Du        
   3773 ****       281.0000 315.2500 -78.5000 Du        
   3774 ****       281.0000 315.2500 -78.2500 Du        
   3775 ****       281.0000 315.2500 -78.0000 Du        
   3776 ****       281.0000 315.2500 -77.7500 Du        
   3777 ****       281.0000 315.2500 -76.2500 Du        
   3778 ****       281.0000 315.2500 -76.0000 Du        
   3779 ****       281.0000 315.2500 -75.7500 Du        
   3780 ****       281.0000 315.2500 -75.5000 Du        
   3781 ****       281.0000 315.2500 -75.2500 Du        
   3782 ****       281.0000 315.2500 -75.0000 Du        
   3783 ****       281.0000 315.2500 -73.5000 Du        
   3784 ****       281.0000 315.2500 -73.2500 Du        
   3785 ****       281.0000 315.2500 -73.0000 Du        
   3786 ****       281.0000 315.2500 -72.2500 Du        
   3787 ****       281.0000 315.2500 -72.0000 Du        
   3788 ****       281.0000 315.2500 -71.7500 Du        
   3789 ****       281.0000 315.2500 -71.5000 Du        
   3790 ****       281.0000 315.2500 -71.2500 Du        
   3791 ****       281.0000 315.2500 -71.0000 Du        
   3792 ****       281.0000 315.2500 -70.7500 Du        
   3793 ****       281.0000 315.5000 -80.0000 Du        
   3794 ****       281.0000 315.5000 -79.7500 Du        
   3795 ****       281.0000 315.5000 -79.2500 Du        
   3796 ****       281.0000 315.5000 -79.0000 Du        
   3797 ****       281.0000 315.7500 -70.7500 Du        
   3798 ****       281.0000 318.2500 -73.2500 Du        
   3799 ****       281.0000 318.5000 -73.7500 Du        
   3800 ****       281.0000 318.5000 -73.5000 Du        
   3801 ****       281.0000 318.5000 -73.2500 Du        
   3802 ****       281.0000 318.5000 -73.0000 Du        
   3803 ****       281.0000 318.7500 -73.7500 Du        
   3804 ****       281.0000 318.7500 -73.5000 Du        
   3805 ****       281.0000 318.7500 -73.2500 Du        
   3806 ****       281.0000 319.0000 -73.7500 Du        
   3807 ****       281.0000 319.0000 -73.5000 Du        
   3808 ****       281.0000 319.0000 -73.2500 Du        
   3809 ****       281.0000 319.2500 -73.7500 Du        
   3810 ****       281.0000 319.2500 -73.5000 Du        
   3811 ****       281.2500 313.7500 -74.0000 Du        
   3812 ****       281.2500 314.0000 -80.2500 Du        
   3813 ****       281.2500 314.0000 -80.0000 Du        
   3814 ****       281.2500 314.0000 -79.7500 Du        
   3815 ****       281.2500 314.0000 -74.5000 Du        
   3816 ****       281.2500 314.0000 -74.2500 Du        
   3817 ****       281.2500 314.0000 -74.0000 Du        
   3818 ****       281.2500 314.0000 -73.7500 Du        
   3819 ****       281.2500 314.0000 -73.5000 Du        
   3820 ****       281.2500 314.0000 -73.2500 Du        
   3821 ****       281.2500 314.2500 -80.5000 Du        
   3822 ****       281.2500 314.2500 -80.2500 Du        
   3823 ****       281.2500 314.2500 -80.0000 Du        
   3824 ****       281.2500 314.2500 -79.7500 Du        
   3825 ****       281.2500 314.2500 -79.5000 Du        
   3826 ****       281.2500 314.2500 -79.2500 Du        
   3827 ****       281.2500 314.2500 -74.7500 Du        
   3828 ****       281.2500 314.2500 -74.5000 Du        
   3829 ****       281.2500 314.2500 -74.2500 Du        
   3830 ****       281.2500 314.2500 -74.0000 Du        
   3831 ****       281.2500 314.2500 -73.7500 Du        
   3832 ****       281.2500 314.2500 -73.5000 Du        
   3833 ****       281.2500 314.2500 -73.2500 Du        
   3834 ****       281.2500 314.2500 -73.0000 Du        
   3835 ****       281.2500 314.2500 -72.7500 Du        
   3836 ****       281.2500 314.2500 -72.5000 Du        
   3837 ****       281.2500 314.2500 -72.2500 Du        
   3838 ****       281.2500 314.2500 -71.2500 Du        
   3839 ****       281.2500 314.2500 -71.0000 Du        
   3840 ****       281.2500 314.2500 -70.7500 Du        
   3841 ****       281.2500 314.5000 -80.7500 Du        
   3842 ****       281.2500 314.5000 -80.5000 Du        
   3843 ****       281.2500 314.5000 -80.2500 Du        
   3844 ****       281.2500 314.5000 -80.0000 Du        
   3845 ****       281.2500 314.5000 -79.7500 Du        
   3846 ****       281.2500 314.5000 -79.5000 Du        
   3847 ****       281.2500 314.5000 -79.2500 Du        
   3848 ****       281.2500 314.5000 -74.7500 Du        
   3849 ****       281.2500 314.5000 -74.5000 Du        
   3850 ****       281.2500 314.5000 -74.2500 Du        
   3851 ****       281.2500 314.5000 -74.0000 Du        
   3852 ****       281.2500 314.5000 -73.7500 Du        
   3853 ****       281.2500 314.5000 -73.5000 Du        
   3854 ****       281.2500 314.5000 -73.2500 Du        
   3855 ****       281.2500 314.5000 -73.0000 Du        
   3856 ****       281.2500 314.5000 -72.7500 Du        
   3857 ****       281.2500 314.5000 -72.2500 Du        
   3858 ****       281.2500 314.5000 -72.0000 Du        
   3859 ****       281.2500 314.5000 -71.7500 Du        
   3860 ****       281.2500 314.5000 -71.2500 Du        
   3861 ****       281.2500 314.5000 -71.0000 Du        
   3862 ****       281.2500 314.5000 -70.7500 Du        
   3863 ****       281.2500 314.7500 -81.2500 Du        
   3864 ****       281.2500 314.7500 -81.0000 Du        
   3865 ****       281.2500 314.7500 -80.7500 Du        
   3866 ****       281.2500 314.7500 -80.5000 Du        
   3867 ****       281.2500 314.7500 -80.2500 Du        
   3868 ****       281.2500 314.7500 -80.0000 Du        
   3869 ****       281.2500 314.7500 -79.7500 Du        
   3870 ****       281.2500 314.7500 -79.5000 Du        
   3871 ****       281.2500 314.7500 -79.2500 Du        
   3872 ****       281.2500 314.7500 -79.0000 Du        
   3873 ****       281.2500 314.7500 -78.7500 Du        
   3874 ****       281.2500 314.7500 -75.0000 Du        
   3875 ****       281.2500 314.7500 -74.7500 Du        
   3876 ****       281.2500 314.7500 -74.5000 Du        
   3877 ****       281.2500 314.7500 -74.2500 Du        
   3878 ****       281.2500 314.7500 -74.0000 Du        
   3879 ****       281.2500 314.7500 -73.7500 Du        
   3880 ****       281.2500 314.7500 -73.5000 Du        
   3881 ****       281.2500 314.7500 -73.2500 Du        
   3882 ****       281.2500 314.7500 -73.0000 Du        
   3883 ****       281.2500 314.7500 -72.7500 Du        
   3884 ****       281.2500 314.7500 -72.2500 Du        
   3885 ****       281.2500 314.7500 -72.0000 Du        
   3886 ****       281.2500 314.7500 -71.7500 Du        
   3887 ****       281.2500 314.7500 -71.2500 Du        
   3888 ****       281.2500 314.7500 -71.0000 Du        
   3889 ****       281.2500 314.7500 -70.7500 Du        
   3890 ****       281.2500 315.0000 -81.2500 Du        
   3891 ****       281.2500 315.0000 -81.0000 Du        
   3892 ****       281.2500 315.0000 -80.7500 Du        
   3893 ****       281.2500 315.0000 -80.5000 Du        
   3894 ****       281.2500 315.0000 -80.2500 Du        
   3895 ****       281.2500 315.0000 -80.0000 Du        
   3896 ****       281.2500 315.0000 -79.7500 Du        
   3897 ****       281.2500 315.0000 -79.5000 Du        
   3898 ****       281.2500 315.0000 -79.2500 Du        
   3899 ****       281.2500 315.0000 -79.0000 Du        
   3900 ****       281.2500 315.0000 -78.7500 Du        
   3901 ****       281.2500 315.0000 -78.5000 Du        
   3902 ****       281.2500 315.0000 -78.2500 Du        
   3903 ****       281.2500 315.0000 -75.0000 Du        
   3904 ****       281.2500 315.0000 -73.7500 Du        
   3905 ****       281.2500 315.0000 -73.2500 Du        
   3906 ****       281.2500 315.0000 -73.0000 Du        
   3907 ****       281.2500 315.0000 -72.7500 Du        
   3908 ****       281.2500 315.0000 -72.0000 Du        
   3909 ****       281.2500 315.0000 -71.7500 Du        
   3910 ****       281.2500 315.0000 -71.5000 Du        
   3911 ****       281.2500 315.0000 -71.2500 Du        
   3912 ****       281.2500 315.0000 -71.0000 Du        
   3913 ****       281.2500 315.0000 -70.7500 Du        
   3914 ****       281.2500 315.2500 -81.0000 Du        
   3915 ****       281.2500 315.2500 -80.7500 Du        
   3916 ****       281.2500 315.2500 -80.5000 Du        
   3917 ****       281.2500 315.2500 -80.2500 Du        
   3918 ****       281.2500 315.2500 -80.0000 Du        
   3919 ****       281.2500 315.2500 -79.7500 Du        
   3920 ****       281.2500 315.2500 -79.5000 Du        
   3921 ****       281.2500 315.2500 -79.2500 Du        
   3922 ****       281.2500 315.2500 -79.0000 Du        
   3923 ****       281.2500 315.2500 -78.7500 Du        
   3924 ****       281.2500 315.2500 -78.5000 Du        
   3925 ****       281.2500 315.2500 -78.2500 Du        
   3926 ****       281.2500 315.2500 -78.0000 Du        
   3927 ****       281.2500 315.2500 -77.7500 Du        
   3928 ****       281.2500 315.2500 -75.7500 Du        
   3929 ****       281.2500 315.2500 -71.2500 Du        
   3930 ****       281.2500 315.2500 -71.0000 Du        
   3931 ****       281.2500 315.7500 -70.7500 Du        
   3932 ****       281.2500 318.5000 -73.5000 Du        
   3933 ****       281.2500 318.5000 -73.2500 Du        
   3934 ****       281.2500 318.5000 -73.0000 Du        
   3935 ****       281.2500 318.7500 -73.7500 Du        
   3936 ****       281.2500 318.7500 -73.5000 Du        
   3937 ****       281.2500 318.7500 -73.2500 Du        
   3938 ****       281.2500 318.7500 -73.0000 Du        
   3939 ****       281.2500 319.0000 -73.7500 Du        
   3940 ****       281.2500 319.0000 -73.5000 Du        
   3941 ****       281.2500 319.0000 -73.2500 Du        
   3942 ****       281.2500 319.2500 -73.5000 Du        
   3943 ****       281.2500 319.2500 -73.2500 Du        
   3944 ****       281.2500 319.5000 -73.5000 Du        
   3945 ****       281.5000 314.0000 -80.2500 Du        
   3946 ****       281.5000 314.0000 -80.0000 Du        
   3947 ****       281.5000 314.0000 -79.7500 Du        
   3948 ****       281.5000 314.0000 -79.5000 Du        
   3949 ****       281.5000 314.0000 -74.0000 Du        
   3950 ****       281.5000 314.0000 -73.7500 Du        
   3951 ****       281.5000 314.2500 -80.5000 Du        
   3952 ****       281.5000 314.2500 -80.2500 Du        
   3953 ****       281.5000 314.2500 -80.0000 Du        
   3954 ****       281.5000 314.2500 -79.7500 Du        
   3955 ****       281.5000 314.2500 -79.5000 Du        
   3956 ****       281.5000 314.2500 -79.2500 Du        
   3957 ****       281.5000 314.2500 -74.0000 Du        
   3958 ****       281.5000 314.2500 -73.7500 Du        
   3959 ****       281.5000 314.2500 -73.5000 Du        
   3960 ****       281.5000 314.2500 -73.2500 Du        
   3961 ****       281.5000 314.5000 -80.7500 Du        
   3962 ****       281.5000 314.5000 -80.5000 Du        
   3963 ****       281.5000 314.5000 -80.2500 Du        
   3964 ****       281.5000 314.5000 -80.0000 Du        
   3965 ****       281.5000 314.5000 -79.7500 Du        
   3966 ****       281.5000 314.5000 -79.5000 Du        
   3967 ****       281.5000 314.5000 -79.2500 Du        
   3968 ****       281.5000 314.5000 -79.0000 Du        
   3969 ****       281.5000 314.5000 -74.0000 Du        
   3970 ****       281.5000 314.7500 -81.0000 Du        
   3971 ****       281.5000 314.7500 -80.7500 Du        
   3972 ****       281.5000 314.7500 -80.5000 Du        
   3973 ****       281.5000 314.7500 -80.2500 Du        
   3974 ****       281.5000 314.7500 -80.0000 Du        
   3975 ****       281.5000 314.7500 -79.7500 Du        
   3976 ****       281.5000 314.7500 -79.5000 Du        
   3977 ****       281.5000 314.7500 -79.2500 Du        
   3978 ****       281.5000 314.7500 -79.0000 Du        
   3979 ****       281.5000 314.7500 -78.7500 Du        
   3980 ****       281.5000 314.7500 -74.2500 Du        
   3981 ****       281.5000 315.0000 -81.2500 Du        
   3982 ****       281.5000 315.0000 -81.0000 Du        
   3983 ****       281.5000 315.0000 -80.7500 Du        
   3984 ****       281.5000 315.0000 -80.5000 Du        
   3985 ****       281.5000 315.0000 -80.2500 Du        
   3986 ****       281.5000 315.0000 -80.0000 Du        
   3987 ****       281.5000 315.0000 -79.7500 Du        
   3988 ****       281.5000 315.0000 -79.5000 Du        
   3989 ****       281.5000 315.0000 -79.2500 Du        
   3990 ****       281.5000 315.0000 -79.0000 Du        
   3991 ****       281.5000 315.0000 -78.7500 Du        
   3992 ****       281.5000 315.0000 -78.5000 Du        
   3993 ****       281.5000 315.0000 -78.2500 Du        
   3994 ****       281.5000 315.2500 -80.7500 Du        
   3995 ****       281.5000 315.2500 -80.5000 Du        
   3996 ****       281.5000 315.2500 -80.2500 Du        
   3997 ****       281.5000 315.2500 -80.0000 Du        
   3998 ****       281.5000 315.2500 -79.7500 Du        
   3999 ****       281.5000 315.2500 -79.5000 Du        
   4000 ****       281.5000 315.2500 -79.2500 Du        
   4001 ****       281.5000 315.2500 -79.0000 Du        
   4002 ****       281.5000 315.2500 -78.7500 Du        
   4003 ****       281.5000 315.2500 -78.5000 Du        
   4004 ****       281.5000 315.2500 -78.2500 Du        
   4005 ****       281.5000 315.2500 -78.0000 Du        
   4006 ****       281.5000 318.7500 -73.5000 Du        
   4007 ****       281.5000 318.7500 -73.2500 Du        
   4008 ****       281.5000 319.0000 -73.5000 Du        
   4009 ****       281.5000 319.0000 -73.2500 Du        
   4010 ****       281.5000 319.2500 -73.5000 Du        
   4011 ****       281.5000 319.5000 -73.5000 Du        
   4012 ****       281.7500 314.0000 -80.2500 Du        
   4013 ****       281.7500 314.0000 -80.0000 Du        
   4014 ****       281.7500 314.0000 -79.7500 Du        
   4015 ****       281.7500 314.0000 -79.5000 Du        
   4016 ****       281.7500 314.2500 -80.5000 Du        
   4017 ****       281.7500 314.2500 -80.2500 Du        
   4018 ****       281.7500 314.2500 -80.0000 Du        
   4019 ****       281.7500 314.2500 -79.7500 Du        
   4020 ****       281.7500 314.2500 -79.5000 Du        
   4021 ****       281.7500 314.2500 -79.2500 Du        
   4022 ****       281.7500 314.5000 -80.7500 Du        
   4023 ****       281.7500 314.5000 -80.5000 Du        
   4024 ****       281.7500 314.5000 -80.2500 Du        
   4025 ****       281.7500 314.5000 -80.0000 Du        
   4026 ****       281.7500 314.5000 -79.7500 Du        
   4027 ****       281.7500 314.5000 -79.5000 Du        
   4028 ****       281.7500 314.5000 -79.2500 Du        
   4029 ****       281.7500 314.5000 -79.0000 Du        
   4030 ****       281.7500 314.7500 -81.0000 Du        
   4031 ****       281.7500 314.7500 -80.7500 Du        
   4032 ****       281.7500 314.7500 -80.5000 Du        
   4033 ****       281.7500 314.7500 -80.2500 Du        
   4034 ****       281.7500 314.7500 -80.0000 Du        
   4035 ****       281.7500 314.7500 -79.7500 Du        
   4036 ****       281.7500 314.7500 -79.5000 Du        
   4037 ****       281.7500 314.7500 -79.2500 Du        
   4038 ****       281.7500 314.7500 -79.0000 Du        
   4039 ****       281.7500 314.7500 -78.7500 Du        
   4040 ****       281.7500 315.0000 -81.2500 Du        
   4041 ****       281.7500 315.0000 -81.0000 Du        
   4042 ****       281.7500 315.0000 -80.7500 Du        
   4043 ****       281.7500 315.0000 -80.5000 Du        
   4044 ****       281.7500 315.0000 -80.2500 Du        
   4045 ****       281.7500 315.0000 -80.0000 Du        
   4046 ****       281.7500 315.0000 -79.7500 Du        
   4047 ****       281.7500 315.0000 -79.5000 Du        
   4048 ****       281.7500 315.0000 -79.2500 Du        
   4049 ****       281.7500 315.0000 -79.0000 Du        
   4050 ****       281.7500 315.0000 -78.7500 Du        
   4051 ****       281.7500 315.0000 -78.5000 Du        
   4052 ****       281.7500 315.2500 -81.0000 Du        
   4053 ****       281.7500 315.2500 -80.7500 Du        
   4054 ****       281.7500 315.2500 -80.5000 Du        
   4055 ****       281.7500 315.2500 -80.2500 Du        
   4056 ****       281.7500 315.2500 -80.0000 Du        
   4057 ****       281.7500 315.2500 -79.7500 Du        
   4058 ****       281.7500 315.2500 -79.5000 Du        
   4059 ****       281.7500 315.2500 -79.2500 Du        
   4060 ****       281.7500 315.2500 -79.0000 Du        
   4061 ****       281.7500 315.2500 -78.7500 Du        
   4062 ****       281.7500 315.2500 -78.5000 Du        
   4063 ****       281.7500 315.2500 -78.2500 Du        
   4064 ****       281.7500 319.0000 -73.5000 Du        
   4065 ****       281.7500 319.0000 -73.2500 Du        
   4066 ****       281.7500 319.2500 -73.5000 Du        
   4067 ****       281.7500 319.2500 -73.2500 Du        
   4068 ****       281.7500 319.5000 -73.5000 Du        
   4069 ****       282.0000 314.0000 -80.2500 Du        
   4070 ****       282.0000 314.0000 -80.0000 Du        
   4071 ****       282.0000 314.0000 -79.7500 Du        
   4072 ****       282.0000 314.2500 -80.5000 Du        
   4073 ****       282.0000 314.2500 -80.2500 Du        
   4074 ****       282.0000 314.2500 -80.0000 Du        
   4075 ****       282.0000 314.2500 -79.7500 Du        
   4076 ****       282.0000 314.2500 -79.5000 Du        
   4077 ****       282.0000 314.5000 -80.5000 Du        
   4078 ****       282.0000 314.5000 -80.2500 Du        
   4079 ****       282.0000 314.5000 -80.0000 Du        
   4080 ****       282.0000 314.5000 -79.7500 Du        
   4081 ****       282.0000 314.5000 -79.5000 Du        
   4082 ****       282.0000 314.5000 -79.2500 Du        
   4083 ****       282.0000 314.7500 -80.7500 Du        
   4084 ****       282.0000 314.7500 -80.5000 Du        
   4085 ****       282.0000 314.7500 -80.2500 Du        
   4086 ****       282.0000 314.7500 -80.0000 Du        
   4087 ****       282.0000 314.7500 -79.7500 Du        
   4088 ****       282.0000 314.7500 -79.5000 Du        
   4089 ****       282.0000 314.7500 -79.2500 Du        
   4090 ****       282.0000 314.7500 -79.0000 Du        
   4091 ****       282.0000 314.7500 -78.7500 Du        
   4092 ****       282.0000 315.0000 -81.0000 Du        
   4093 ****       282.0000 315.0000 -80.7500 Du        
   4094 ****       282.0000 315.0000 -80.5000 Du        
   4095 ****       282.0000 315.0000 -80.2500 Du        
   4096 ****       282.0000 315.0000 -80.0000 Du        
   4097 ****       282.0000 315.0000 -79.7500 Du        
   4098 ****       282.0000 315.0000 -79.5000 Du        
   4099 ****       282.0000 315.0000 -79.2500 Du        
   4100 ****       282.0000 315.0000 -79.0000 Du        
   4101 ****       282.0000 315.0000 -78.7500 Du        
   4102 ****       282.0000 315.2500 -80.5000 Du        
   4103 ****       282.0000 315.2500 -80.2500 Du        
   4104 ****       282.0000 315.2500 -80.0000 Du        
   4105 ****       282.0000 315.2500 -79.7500 Du        
   4106 ****       282.0000 315.2500 -79.5000 Du        
   4107 ****       282.0000 315.2500 -79.2500 Du        
   4108 ****       282.0000 315.2500 -79.0000 Du        
   4109 ****       282.0000 315.2500 -78.7500 Du        
   4110 ****       282.0000 315.2500 -78.5000 Du        
   4111 ****       282.0000 315.7500 -70.0000 Du        
   4112 ****       282.0000 315.7500 -69.7500 Du        
   4113 ****       282.0000 316.0000 -70.2500 Du        
   4114 ****       282.0000 316.0000 -70.0000 Du        
   4115 ****       282.0000 316.0000 -69.7500 Du        
   4116 ****       282.0000 316.2500 -69.7500 Du        
   4117 ****       282.0000 319.5000 -73.5000 Du        
   4118 ****       282.2500 314.2500 -80.5000 Du        
   4119 ****       282.2500 314.2500 -80.2500 Du        
   4120 ****       282.2500 314.2500 -80.0000 Du        
   4121 ****       282.2500 314.2500 -79.7500 Du        
   4122 ****       282.2500 314.2500 -79.5000 Du        
   4123 ****       282.2500 314.5000 -80.5000 Du        
   4124 ****       282.2500 314.5000 -80.2500 Du        
   4125 ****       282.2500 314.5000 -80.0000 Du        
   4126 ****       282.2500 314.5000 -79.7500 Du        
   4127 ****       282.2500 314.5000 -79.5000 Du        
   4128 ****       282.2500 314.5000 -79.2500 Du        
   4129 ****       282.2500 314.7500 -80.5000 Du        
   4130 ****       282.2500 314.7500 -80.2500 Du        
   4131 ****       282.2500 314.7500 -80.0000 Du        
   4132 ****       282.2500 314.7500 -79.7500 Du        
   4133 ****       282.2500 314.7500 -79.5000 Du        
   4134 ****       282.2500 314.7500 -79.2500 Du        
   4135 ****       282.2500 314.7500 -79.0000 Du        
   4136 ****       282.2500 315.0000 -80.7500 Du        
   4137 ****       282.2500 315.0000 -80.5000 Du        
   4138 ****       282.2500 315.0000 -80.2500 Du        
   4139 ****       282.2500 315.0000 -80.0000 Du        
   4140 ****       282.2500 315.0000 -79.7500 Du        
   4141 ****       282.2500 315.0000 -79.5000 Du        
   4142 ****       282.2500 315.0000 -79.2500 Du        
   4143 ****       282.2500 315.0000 -79.0000 Du        
   4144 ****       282.2500 315.0000 -78.7500 Du        
   4145 ****       282.2500 315.2500 -80.5000 Du        
   4146 ****       282.2500 315.2500 -80.2500 Du        
   4147 ****       282.2500 315.2500 -80.0000 Du        
   4148 ****       282.2500 315.2500 -79.7500 Du        
   4149 ****       282.2500 315.2500 -79.5000 Du        
   4150 ****       282.2500 315.2500 -79.2500 Du        
   4151 ****       282.2500 315.2500 -79.0000 Du        
   4152 ****       282.2500 315.2500 -78.7500 Du        
   4153 ****       282.2500 315.7500 -69.7500 Du        
   4154 ****       282.2500 316.0000 -70.0000 Du        
   4155 ****       282.2500 316.0000 -69.7500 Du        
   4156 ****       282.2500 316.0000 -69.2500 Du        
   4157 ****       282.2500 316.2500 -70.2500 Du        
   4158 ****       282.2500 316.2500 -70.0000 Du        
   4159 ****       282.2500 316.2500 -69.7500 Du        
   4160 ****       282.2500 316.2500 -69.5000 Du        
   4161 ****       282.2500 316.2500 -69.2500 Du        
   4162 ****       282.2500 316.5000 -69.7500 Du        
   4163 ****       282.2500 316.5000 -69.5000 Du        
   4164 ****       282.2500 316.5000 -69.2500 Du        
   4165 ****       282.2500 321.2500 -74.0000 Du        
   4166 ****       282.5000 314.7500 -79.2500 Du        
   4167 ****       282.5000 315.0000 -79.2500 Du        
   4168 ****       282.5000 315.0000 -79.0000 Du        
   4169 ****       282.5000 315.2500 -79.2500 Du        
   4170 ****       282.5000 315.2500 -79.0000 Du        
   4171 ****       282.5000 315.2500 -78.7500 Du        
   4172 ****       282.5000 316.0000 -69.7500 Du        
   4173 ****       282.5000 316.2500 -69.7500 Du        
   4174 ****       282.5000 316.2500 -69.5000 Du        
   4175 ****       282.5000 316.2500 -69.2500 Du        
   4176 ****       282.5000 316.2500 -69.0000 Du        
   4177 ****       282.5000 316.5000 -69.7500 Du        
   4178 ****       282.5000 316.5000 -69.5000 Du        
   4179 ****       282.5000 316.5000 -69.2500 Du        
   4180 ****       282.5000 316.5000 -69.0000 Du        
   4181 ****       282.7500 315.0000 -79.2500 Du        
   4182 ****       282.7500 315.2500 -79.2500 Du        
   4183 ****       282.7500 316.0000 -69.0000 Du        
   4184 ****       282.7500 316.2500 -69.5000 Du        
   4185 ****       282.7500 316.2500 -69.2500 Du        
   4186 ****       282.7500 316.2500 -69.0000 Du        
   4187 ****       282.7500 316.5000 -69.7500 Du        
   4188 ****       282.7500 316.5000 -69.5000 Du        
   4189 ****       282.7500 316.5000 -69.2500 Du        
   4190 ****       282.7500 316.5000 -69.0000 Du        
   4191 ****       282.7500 321.2500 -74.0000 Du        
   4192 ****       282.7500 321.2500 -73.7500 Du        
