#       Name:                CT1002167954
#       Creating user name   hitesit
#       Creation time:       Sun Apr 16 02:29:31 2023


#       File generated by GOLD software.
#

@<TRIPOS>MOLECULE
CT1002167954|ligand_prepared|mol2|1|dock6
    29    30     1
SMALL
NO_CHARGES


@<TRIPOS>ATOM
      1 C1         279.2186 315.9180 -75.0066 C.3            1 RES1               0.0000
      2 C2         277.9611 316.3235 -75.8022 C.ar           1 RES1               0.0000
      3 C3         279.6877 317.1736 -74.2775 C.2            1 RES1               0.0000
      4 C4         278.7907 314.7844 -74.0811 C.2            1 RES1               0.0000
      5 C5         280.3776 315.4014 -75.8905 C.3            1 RES1               0.0000
      6 C6         276.7636 316.5924 -75.1462 C.ar           1 RES1               0.0000
      7 C7         277.9837 316.4352 -77.1899 C.ar           1 RES1               0.0000
      8 N8         279.4734 317.2404 -72.9323 N.am           1 RES1               0.0000
      9 O9         280.2020 318.1078 -74.8800 O.2            1 RES1               0.0000
     10 N10        278.8170 315.0137 -72.7303 N.am           1 RES1               0.0000
     11 O11        278.4152 313.7003 -74.5099 O.2            1 RES1               0.0000
     12 C12        281.5502 314.8432 -75.0995 C.3            1 RES1               0.0000
     13 C13        275.6305 316.9626 -75.8514 C.ar           1 RES1               0.0000
     14 C14        276.8493 316.8052 -77.8933 C.ar           1 RES1               0.0000
     15 C15        279.1096 316.2003 -72.1152 C.2            1 RES1               0.0000
     16 C16        275.6727 317.0696 -77.2253 C.ar           1 RES1               0.0000
     17 O17        279.0587 316.3435 -70.8970 O.2            1 RES1               0.0000
     18 H18        279.9933 314.6165 -76.5535 H              1 RES1               0.0000
     19 H19        280.7364 316.2255 -76.5195 H              1 RES1               0.0000
     20 H20        276.7107 316.5110 -74.0656 H              1 RES1               0.0000
     21 H21        278.8981 316.2309 -77.7366 H              1 RES1               0.0000
     22 H22        279.5947 318.1475 -72.4933 H              1 RES1               0.0000
     23 H23        278.5984 314.2268 -72.1276 H              1 RES1               0.0000
     24 H24        282.3352 314.4948 -75.7675 H              1 RES1               0.0000
     25 H25        281.9732 315.6047 -74.4476 H              1 RES1               0.0000
     26 H26        281.2345 314.0052 -74.4815 H              1 RES1               0.0000
     27 H27        274.7066 317.1683 -75.3211 H              1 RES1               0.0000
     28 H28        276.8869 316.8876 -78.9745 H              1 RES1               0.0000
     29 H29        274.7850 317.3600 -77.7775 H              1 RES1               0.0000
@<TRIPOS>BOND
    1    1    2 1     
    2    1    3 1     
    3    1    4 1     
    4    1    5 1     
    5    2    6 ar    
    6    2    7 ar    
    7    3    8 1     
    8    3    9 2     
    9    4   10 1     
   10    4   11 2     
   11    5   12 1     
   12    5   18 1     
   13    5   19 1     
   14    6   13 ar    
   15    6   20 1     
   16    7   14 ar    
   17    7   21 1     
   18    8   15 1     
   19    8   22 1     
   20   10   15 1     
   21   10   23 1     
   22   12   24 1     
   23   12   25 1     
   24   12   26 1     
   25   13   16 ar    
   26   13   27 1     
   27   14   16 ar    
   28   14   28 1     
   29   15   17 2     
   30   16   29 1     
@<TRIPOS>SUBSTRUCTURE
      1 RES1           1
@<TRIPOS>SET
DONOR_HYDROGENS      STATIC     ATOMS    <user>   **** ""
2 22 23
ATOM$RED        STATIC     ATOMS    COLORGROUP SYSTEM
2 22 23
@<TRIPOS>COMMENT
> <Gold.Version>
2022.3.0

> <Gold.Id.Protein>
unknown|7ts3_clean|pdb

> <Gold.Protein.RotatedTorsions>
[ 1460 1408 1409 1410 ] final   78.76 input   75.91 | X-H torsion
[ 1470 1416 1415 1414 ] final   71.32 input   60.00 | X-H torsion
[ 1524 1493 1494 1495 ] final   42.77 input   90.66 | X-H torsion
[ 3989 3946 3947 3948 ] final  -44.27 input  107.58 | X-H torsion
[ 6590 6548 6547 6545 ] final -136.96 input   60.02 | X-H torsion
[ 25689 25666 25667 25668 ] final -147.57 input   59.86 | X-H torsion
[ 1233 1187 1188 1189 ] final   45.15 input  121.09 | X-H torsion
[ 1309 1265 1266 1267 ] final -148.99 input  118.31 | X-H torsion
[ 1377 1331 1332 1333 ] final  121.40 input  114.28 | X-H torsion
[ 4211 4184 4183 4180 ] final   85.49 input   59.99 | X-H torsion
[ 4071 4017 4018 4019 ] final -105.54 input  119.49 | X-H torsion
[ 4251 4223 4224 4225 ] final -100.52 input  117.97 | X-H torsion
[ 23683 23650 23651 23652 ] final  141.32 input   58.12 | X-H torsion
[ 23751 23739 23740 23741 ] final  -10.70 input  -88.68 | X-H torsion
[ 4255 4228 4227 4224 ] final   90.73 input   59.96 | X-H torsion
[ 23779 23767 23768 23769 ] final  149.96 input  -24.14 | X-H torsion
[ 4400 4354 4353 4352 ] final  -89.33 input   60.02 | X-H torsion
[ 27271 1190 1189 1188 ] final  134.67 input   -0.00 | X-H torsion
[ 27274 1411 1410 1409 ] final   75.98 input   -0.00 | X-H torsion
[ 27277 3685 3684 3683 ] final   38.58 input    0.00 | X-H torsion
[ 27284 3949 3948 3947 ] final  113.06 input   -0.00 | X-H torsion
[ 27289 23653 23652 23651 ] final   79.28 input   -0.00 | X-H torsion
[ 27292 25669 25668 25667 ] final  -42.67 input    0.00 | X-H torsion
[ 27295 1133 1132 1131 ] final -132.99 input    0.00 | X-H torsion
[ 27300 1334 1333 1332 ] final -109.99 input   -0.00 | X-H torsion
[ 27306 6778 6777 6776 ] final  168.99 input    0.00 | X-H torsion
[ 27308 23601 23600 23599 ] final  178.40 input   -0.00 | X-H torsion
[ 27312 4182 4181 4180 ] final   66.51 input   -0.00 | X-H torsion
[ 27316 23770 23769 23768 ] final -146.15 input   -0.00 | X-H torsion

> <Gold.Protein.ActiveResidues>
 THR320  LEU321  HIS322  LEU323  LYS324  SER325  GLU365  PHE366  GLN369  TYR370 
 SER372  SER373  LYS375  TYR408  HIS412  ARG415  ASN416  TRP426  CYS673  ARG674 
 GLY675  GLY676  TYR703  LEU705  THR706  PRO707 

> <Gold.Protein.RotatedAtoms>
  278.4891  326.1870  -73.6746 H   0  0  0  0  0  0  0  0  0  0  0  0  # atno 1233 bound_to 1187
  276.3743  325.2258  -74.1083 H   0  0  0  0  0  0  0  0  0  0  0  0  # atno 1309 bound_to 1265
  277.4566  326.0459  -77.1658 H   0  0  0  0  0  0  0  0  0  0  0  0  # atno 1377 bound_to 1331
  276.4209  323.4703  -77.7374 H   0  0  0  0  0  0  0  0  0  0  0  0  # atno 1460 bound_to 1408
  280.4033  321.0791  -76.6855 H   0  0  0  0  0  0  0  0  0  0  0  0  # atno 1470 bound_to 1416
  281.7834  320.1784  -76.8570 H   0  0  0  0  0  0  0  0  0  0  0  0  # atno 1471 bound_to 1416
  281.3062  321.2025  -78.0704 H   0  0  0  0  0  0  0  0  0  0  0  0  # atno 1472 bound_to 1416
  274.0389  323.2208  -79.5075 H   0  0  0  0  0  0  0  0  0  0  0  0  # atno 1524 bound_to 1493
  279.6144  310.3106  -79.2044 H   0  0  0  0  0  0  0  0  0  0  0  0  # atno 3989 bound_to 3946
  278.5921  310.4898  -76.3366 H   0  0  0  0  0  0  0  0  0  0  0  0  # atno 4071 bound_to 4017
  284.8488  313.4129  -76.7620 H   0  0  0  0  0  0  0  0  0  0  0  0  # atno 4211 bound_to 4184
  283.1860  311.3313  -74.5881 H   0  0  0  0  0  0  0  0  0  0  0  0  # atno 4251 bound_to 4223
  281.0150  308.7110  -71.2659 H   0  0  0  0  0  0  0  0  0  0  0  0  # atno 4255 bound_to 4228
  286.3660  313.4016  -71.3219 H   0  0  0  0  0  0  0  0  0  0  0  0  # atno 4400 bound_to 4354
  286.7548  311.9710  -70.5807 H   0  0  0  0  0  0  0  0  0  0  0  0  # atno 4401 bound_to 4354
  287.3451  313.4002  -69.9843 H   0  0  0  0  0  0  0  0  0  0  0  0  # atno 4402 bound_to 4354
  276.5747  312.2029  -73.5076 H   0  0  0  0  0  0  0  0  0  0  0  0  # atno 6590 bound_to 6548
  281.9276  320.6080  -67.1134 H   0  0  0  0  0  0  0  0  0  0  0  0  # atno 23683 bound_to 23650
  280.8275  322.8847  -68.9756 H   0  0  0  0  0  0  0  0  0  0  0  0  # atno 23751 bound_to 23739
  279.7035  324.7397  -70.2687 H   0  0  0  0  0  0  0  0  0  0  0  0  # atno 23779 bound_to 23767
  269.8896  317.7221  -75.7282 H   0  0  0  0  0  0  0  0  0  0  0  0  # atno 25689 bound_to 25666
  275.6249  323.3116  -75.9122 LP  0  0  0  0  0  0  0  0  0  0  0  0  # atno 27271 bound_to 1190
  277.2607  322.9468  -76.3494 LP  0  0  0  0  0  0  0  0  0  0  0  0  # atno 27272 bound_to 1190
  276.4970  323.9039  -79.4296 LP  0  0  0  0  0  0  0  0  0  0  0  0  # atno 27273 bound_to 1408
  274.3388  319.7932  -78.0849 LP  0  0  0  0  0  0  0  0  0  0  0  0  # atno 27274 bound_to 1411
  273.7834  319.9266  -79.7200 LP  0  0  0  0  0  0  0  0  0  0  0  0  # atno 27275 bound_to 1411
  274.3353  322.0359  -78.2645 LP  0  0  0  0  0  0  0  0  0  0  0  0  # atno 27276 bound_to 1493
  276.9095  312.7355  -80.5339 LP  0  0  0  0  0  0  0  0  0  0  0  0  # atno 27277 bound_to 3685
  276.9640  311.1027  -79.9585 LP  0  0  0  0  0  0  0  0  0  0  0  0  # atno 27278 bound_to 3685
  278.2701  311.3628  -79.5549 LP  0  0  0  0  0  0  0  0  0  0  0  0  # atno 27283 bound_to 3946
  279.7784  311.0701  -74.6706 LP  0  0  0  0  0  0  0  0  0  0  0  0  # atno 27284 bound_to 3949
  281.1213  311.0502  -75.7642 LP  0  0  0  0  0  0  0  0  0  0  0  0  # atno 27285 bound_to 3949
  277.9036  311.4760  -74.1036 LP  0  0  0  0  0  0  0  0  0  0  0  0  # atno 27286 bound_to 6548
  277.9484  312.1877  -72.6346 LP  0  0  0  0  0  0  0  0  0  0  0  0  # atno 27287 bound_to 6548
  279.8703  321.5079  -71.4598 LP  0  0  0  0  0  0  0  0  0  0  0  0  # atno 27289 bound_to 23653
  281.4917  321.6654  -72.0482 LP  0  0  0  0  0  0  0  0  0  0  0  0  # atno 27290 bound_to 23653
  271.4777  317.1456  -76.1641 LP  0  0  0  0  0  0  0  0  0  0  0  0  # atno 27291 bound_to 25666
  272.5598  315.2689  -76.7005 LP  0  0  0  0  0  0  0  0  0  0  0  0  # atno 27292 bound_to 25669
  272.9962  314.7241  -75.1153 LP  0  0  0  0  0  0  0  0  0  0  0  0  # atno 27293 bound_to 25669
  278.4239  325.6437  -76.4077 LP  0  0  0  0  0  0  0  0  0  0  0  0  # atno 27295 bound_to 1133
  280.1266  325.7342  -76.7119 LP  0  0  0  0  0  0  0  0  0  0  0  0  # atno 27296 bound_to 1133
  279.9679  325.2847  -73.9190 LP  0  0  0  0  0  0  0  0  0  0  0  0  # atno 27297 bound_to 1187
  277.3695  325.7628  -75.4416 LP  0  0  0  0  0  0  0  0  0  0  0  0  # atno 27298 bound_to 1265
  275.7732  325.6469  -77.4110 LP  0  0  0  0  0  0  0  0  0  0  0  0  # atno 27299 bound_to 1331
  275.6531  323.7019  -81.2786 LP  0  0  0  0  0  0  0  0  0  0  0  0  # atno 27300 bound_to 1334
  277.3731  323.8636  -81.4033 LP  0  0  0  0  0  0  0  0  0  0  0  0  # atno 27301 bound_to 1334
  284.2528  313.0524  -75.2913 LP  0  0  0  0  0  0  0  0  0  0  0  0  # atno 27302 bound_to 4184
  283.4698  314.1128  -76.2552 LP  0  0  0  0  0  0  0  0  0  0  0  0  # atno 27303 bound_to 4184
  278.7197  309.3006  -77.6053 LP  0  0  0  0  0  0  0  0  0  0  0  0  # atno 27304 bound_to 4017
  282.1321  309.9385  -74.5946 LP  0  0  0  0  0  0  0  0  0  0  0  0  # atno 27305 bound_to 4223
  270.2290  315.0363  -70.0606 LP  0  0  0  0  0  0  0  0  0  0  0  0  # atno 27306 bound_to 6778
  271.7844  315.1610  -69.3088 LP  0  0  0  0  0  0  0  0  0  0  0  0  # atno 27307 bound_to 6778
  283.4257  319.3806  -69.3551 LP  0  0  0  0  0  0  0  0  0  0  0  0  # atno 27308 bound_to 23601
  284.7140  319.1320  -68.2245 LP  0  0  0  0  0  0  0  0  0  0  0  0  # atno 27309 bound_to 23601
  282.9856  321.6333  -68.0553 LP  0  0  0  0  0  0  0  0  0  0  0  0  # atno 27310 bound_to 23650
  282.3148  322.5199  -69.8148 LP  0  0  0  0  0  0  0  0  0  0  0  0  # atno 27311 bound_to 23739
  285.2712  312.0156  -74.1548 LP  0  0  0  0  0  0  0  0  0  0  0  0  # atno 27312 bound_to 4182
  285.2384  310.3958  -73.5424 LP  0  0  0  0  0  0  0  0  0  0  0  0  # atno 27313 bound_to 4182
  281.3611  308.6178  -72.8534 LP  0  0  0  0  0  0  0  0  0  0  0  0  # atno 27314 bound_to 4228
  279.8375  308.9442  -72.3648 LP  0  0  0  0  0  0  0  0  0  0  0  0  # atno 27315 bound_to 4228
  276.4706  322.3532  -68.2523 LP  0  0  0  0  0  0  0  0  0  0  0  0  # atno 27316 bound_to 23770
  278.1035  322.8290  -67.9249 LP  0  0  0  0  0  0  0  0  0  0  0  0  # atno 27317 bound_to 23770

> <Gold.Score>
     Fitness  S(hb_ext) S(vdw_ext)  S(hb_int)    S(int)      intcor
     31.61       0.41      22.70       0.00      -0.01      -0.76

> <Gold.Goldscore.Fitness>
31.6093

> <Gold.Goldscore.Internal.Vdw>
-0.3225

> <Gold.Goldscore.Internal.Torsion>
-0.4453

> <Gold.Goldscore.External.Vdw>
22.6978

> <Gold.Goldscore.Internal.HBond>
0.0000

> <Gold.Goldscore.External.HBond>
0.4113

> <Gold.Goldscore.Internal.Correction>
-0.7564

> <Gold.Goldscore.Hbonds>
donor molecule, donor type, donor heavy atom, donor atom, acceptor molecule, acceptor atom, score
      P1  H 23657 23691       L1    17  0.06
      L1  H    10    23       P1  6784  0.01

> <Gold.Goldscore.Internal.Vdw.Weighted>
-0.3225

> <Gold.Goldscore.Internal.Torsion.Weighted>
-0.4453

> <Gold.Goldscore.External.Vdw.Weighted>
31.2095

> <Gold.Goldscore.Internal.HBond.Weighted>
0.0000

> <Gold.Goldscore.External.HBond.Weighted>
0.4113

> <Gold.Goldscore.Internal.Correction.Weighted>
-0.7564

> <Gold.Rescore>
     Score     S(PLP)   S(hbond)     S(cho)   S(metal)  DE(clash)   DE(tors)     intcor
     33.39     -33.28       0.10       0.00       0.00       0.00       0.09       ----

> <Gold.PLP.Fitness>
33.3891

> <Gold.PLP.PLP>
-33.2782

> <Gold.PLP.part.hbond>
-3.4130

> <Gold.PLP.part.metal>
0.0000

> <Gold.PLP.part.buried>
-2.6328

> <Gold.PLP.part.nonpolar>
-28.0284

> <Gold.PLP.part.repulsive>
0.3958

> <Gold.PLP.ligand.clash>
0.0000

> <Gold.PLP.ligand.torsion>
0.0904

> <Gold.PLP.Chemscore.Hbond>
0.0972

> <Gold.PLP.Chemscore.CHOScore>
0.0000

> <Gold.PLP.Chemscore.Metal>
0.0000

> <Gold.Chemscore.Hbonds>
donor molecule, donor type, donor heavy atom, donor atom, acceptor molecule, acceptor atom, score
      P1  H 23657 23691       L1    17  0.38

> <Gold.PLP.Chemscore.Internal.Correction>
   9.000000E+99

