#       Name:                CT1002167954
#       Creating user name   hitesit
#       Creation time:       Sun Apr 16 02:29:28 2023


#       File generated by GOLD software.
#

@<TRIPOS>MOLECULE
CT1002167954|ligand_prepared|mol2|1|dock1
    29    30     1
SMALL
NO_CHARGES


@<TRIPOS>ATOM
      1 C1         278.7220 316.0326 -74.5202 C.3            1 RES1               0.0000
      2 C2         277.3154 316.4236 -75.0176 C.ar           1 RES1               0.0000
      3 C3         279.6314 316.0554 -75.7454 C.2            1 RES1               0.0000
      4 C4         279.0947 317.0524 -73.4498 C.2            1 RES1               0.0000
      5 C5         278.7908 314.6249 -73.8836 C.3            1 RES1               0.0000
      6 C6         277.1590 317.2026 -76.1601 C.ar           1 RES1               0.0000
      7 C7         276.1669 316.0112 -74.3473 C.ar           1 RES1               0.0000
      8 N8         280.5103 317.0917 -75.8607 N.am           1 RES1               0.0000
      9 O9         279.5510 315.1984 -76.6168 O.2            1 RES1               0.0000
     10 N10        280.1419 317.8984 -73.7058 N.am           1 RES1               0.0000
     11 O11        278.4805 317.1420 -72.3939 O.2            1 RES1               0.0000
     12 C12        280.2070 314.1005 -73.7068 C.3            1 RES1               0.0000
     13 C13        275.8999 317.5543 -76.6177 C.ar           1 RES1               0.0000
     14 C14        274.9087 316.3642 -74.8064 C.ar           1 RES1               0.0000
     15 C15        280.8469 317.9847 -74.8753 C.2            1 RES1               0.0000
     16 C16        274.7740 317.1350 -75.9415 C.ar           1 RES1               0.0000
     17 O17        281.7399 318.8090 -75.0495 O.2            1 RES1               0.0000
     18 H18        278.3010 314.6568 -72.9026 H              1 RES1               0.0000
     19 H19        278.2310 313.9240 -74.5152 H              1 RES1               0.0000
     20 H20        278.0335 317.5439 -76.7040 H              1 RES1               0.0000
     21 H21        276.2487 315.4050 -73.4515 H              1 RES1               0.0000
     22 H22        280.9587 317.2142 -76.7630 H              1 RES1               0.0000
     23 H23        280.4218 318.5214 -72.9549 H              1 RES1               0.0000
     24 H24        280.1982 313.1101 -73.2564 H              1 RES1               0.0000
     25 H25        280.7156 314.0319 -74.6662 H              1 RES1               0.0000
     26 H26        280.7851 314.7603 -73.0631 H              1 RES1               0.0000
     27 H27        275.7994 318.1622 -77.5107 H              1 RES1               0.0000
     28 H28        274.0253 316.0325 -74.2708 H              1 RES1               0.0000
     29 H29        273.7878 317.4103 -76.3004 H              1 RES1               0.0000
@<TRIPOS>BOND
    1    1    2 1     
    2    1    3 1     
    3    1    4 1     
    4    1    5 1     
    5    2    6 ar    
    6    2    7 ar    
    7    3    8 1     
    8    3    9 2     
    9    4   10 1     
   10    4   11 2     
   11    5   12 1     
   12    5   18 1     
   13    5   19 1     
   14    6   13 ar    
   15    6   20 1     
   16    7   14 ar    
   17    7   21 1     
   18    8   15 1     
   19    8   22 1     
   20   10   15 1     
   21   10   23 1     
   22   12   24 1     
   23   12   25 1     
   24   12   26 1     
   25   13   16 ar    
   26   13   27 1     
   27   14   16 ar    
   28   14   28 1     
   29   15   17 2     
   30   16   29 1     
@<TRIPOS>SUBSTRUCTURE
      1 RES1           1
@<TRIPOS>SET
DONOR_HYDROGENS      STATIC     ATOMS    <user>   **** ""
2 22 23
ATOM$RED        STATIC     ATOMS    COLORGROUP SYSTEM
2 22 23
@<TRIPOS>COMMENT
> <Gold.Version>
2022.3.0

> <Gold.Id.Protein>
unknown|7ts3_clean|pdb

> <Gold.Protein.RotatedTorsions>
[ 1460 1408 1409 1410 ] final  -98.31 input   75.91 | X-H torsion
[ 1470 1416 1415 1414 ] final -132.95 input   60.00 | X-H torsion
[ 1524 1493 1494 1495 ] final -106.83 input   90.66 | X-H torsion
[ 3989 3946 3947 3948 ] final   21.23 input  107.58 | X-H torsion
[ 6590 6548 6547 6545 ] final -142.78 input   60.02 | X-H torsion
[ 25689 25666 25667 25668 ] final -116.90 input   59.86 | X-H torsion
[ 1233 1187 1188 1189 ] final  172.56 input  121.09 | X-H torsion
[ 1309 1265 1266 1267 ] final   -3.75 input  118.31 | X-H torsion
[ 1377 1331 1332 1333 ] final   44.31 input  114.28 | X-H torsion
[ 4211 4184 4183 4180 ] final -146.16 input   59.99 | X-H torsion
[ 4071 4017 4018 4019 ] final -124.50 input  119.49 | X-H torsion
[ 4251 4223 4224 4225 ] final  163.09 input  117.97 | X-H torsion
[ 23683 23650 23651 23652 ] final  127.49 input   58.12 | X-H torsion
[ 23751 23739 23740 23741 ] final   77.15 input  -88.68 | X-H torsion
[ 4255 4228 4227 4224 ] final    2.53 input   59.96 | X-H torsion
[ 23779 23767 23768 23769 ] final   29.23 input  -24.14 | X-H torsion
[ 4400 4354 4353 4352 ] final   88.33 input   60.02 | X-H torsion
[ 27271 1190 1189 1188 ] final  162.80 input   -0.00 | X-H torsion
[ 27274 1411 1410 1409 ] final  -31.09 input   -0.00 | X-H torsion
[ 27277 3685 3684 3683 ] final   44.21 input    0.00 | X-H torsion
[ 27284 3949 3948 3947 ] final  -14.84 input   -0.00 | X-H torsion
[ 27289 23653 23652 23651 ] final  -14.71 input   -0.00 | X-H torsion
[ 27292 25669 25668 25667 ] final  -29.41 input    0.00 | X-H torsion
[ 27295 1133 1132 1131 ] final  -76.29 input    0.00 | X-H torsion
[ 27300 1334 1333 1332 ] final  166.08 input   -0.00 | X-H torsion
[ 27306 6778 6777 6776 ] final    5.16 input    0.00 | X-H torsion
[ 27308 23601 23600 23599 ] final  121.79 input   -0.00 | X-H torsion
[ 27312 4182 4181 4180 ] final  -78.87 input   -0.00 | X-H torsion
[ 27316 23770 23769 23768 ] final  177.90 input   -0.00 | X-H torsion

> <Gold.Protein.ActiveResidues>
 THR320  LEU321  HIS322  LEU323  LYS324  SER325  GLU365  PHE366  GLN369  TYR370 
 SER372  SER373  LYS375  TYR408  HIS412  ARG415  ASN416  TRP426  CYS673  ARG674 
 GLY675  GLY676  TYR703  LEU705  THR706  PRO707 

> <Gold.Protein.RotatedAtoms>
  279.7065  325.2831  -73.1888 H   0  0  0  0  0  0  0  0  0  0  0  0  # atno 1233 bound_to 1187
  277.2831  325.2554  -75.5327 H   0  0  0  0  0  0  0  0  0  0  0  0  # atno 1309 bound_to 1265
  276.9682  325.0607  -77.1010 H   0  0  0  0  0  0  0  0  0  0  0  0  # atno 1377 bound_to 1331
  276.4517  323.9100  -79.4525 H   0  0  0  0  0  0  0  0  0  0  0  0  # atno 1460 bound_to 1408
  281.9716  320.3407  -77.3890 H   0  0  0  0  0  0  0  0  0  0  0  0  # atno 1470 bound_to 1416
  280.8143  321.4334  -77.8491 H   0  0  0  0  0  0  0  0  0  0  0  0  # atno 1471 bound_to 1416
  280.7073  320.6851  -76.3736 H   0  0  0  0  0  0  0  0  0  0  0  0  # atno 1472 bound_to 1416
  274.3830  321.8045  -78.6561 H   0  0  0  0  0  0  0  0  0  0  0  0  # atno 1524 bound_to 1493
  278.7210  310.0901  -78.9845 H   0  0  0  0  0  0  0  0  0  0  0  0  # atno 3989 bound_to 3946
  278.3167  310.4043  -76.3495 H   0  0  0  0  0  0  0  0  0  0  0  0  # atno 4071 bound_to 4017
  283.4309  314.0707  -76.1308 H   0  0  0  0  0  0  0  0  0  0  0  0  # atno 4211 bound_to 4184
  281.8978  311.0774  -74.6548 H   0  0  0  0  0  0  0  0  0  0  0  0  # atno 4251 bound_to 4223
  281.6206  308.5703  -72.4112 H   0  0  0  0  0  0  0  0  0  0  0  0  # atno 4255 bound_to 4228
  287.2631  312.4138  -69.9503 H   0  0  0  0  0  0  0  0  0  0  0  0  # atno 4400 bound_to 4354
  286.9124  313.8767  -70.6459 H   0  0  0  0  0  0  0  0  0  0  0  0  # atno 4401 bound_to 4354
  286.2905  312.4825  -71.2909 H   0  0  0  0  0  0  0  0  0  0  0  0  # atno 4402 bound_to 4354
  276.5767  312.1602  -73.5927 H   0  0  0  0  0  0  0  0  0  0  0  0  # atno 6590 bound_to 6548
  281.8159  320.7884  -67.0903 H   0  0  0  0  0  0  0  0  0  0  0  0  # atno 23683 bound_to 23650
  281.1049  322.2058  -69.9548 H   0  0  0  0  0  0  0  0  0  0  0  0  # atno 23751 bound_to 23739
  279.1461  323.4611  -69.6316 H   0  0  0  0  0  0  0  0  0  0  0  0  # atno 23779 bound_to 23767
  270.1021  317.6311  -75.3252 H   0  0  0  0  0  0  0  0  0  0  0  0  # atno 25689 bound_to 25666
  275.6998  323.5593  -76.2442 LP  0  0  0  0  0  0  0  0  0  0  0  0  # atno 27271 bound_to 1190
  277.1858  322.6990  -76.0174 LP  0  0  0  0  0  0  0  0  0  0  0  0  # atno 27272 bound_to 1190
  276.4670  323.4755  -77.7589 LP  0  0  0  0  0  0  0  0  0  0  0  0  # atno 27273 bound_to 1408
  274.7256  319.6458  -79.4149 LP  0  0  0  0  0  0  0  0  0  0  0  0  # atno 27274 bound_to 1411
  273.3966  320.0739  -78.3900 LP  0  0  0  0  0  0  0  0  0  0  0  0  # atno 27275 bound_to 1411
  273.9938  323.4415  -79.1094 LP  0  0  0  0  0  0  0  0  0  0  0  0  # atno 27276 bound_to 1493
  276.8557  312.7517  -80.4701 LP  0  0  0  0  0  0  0  0  0  0  0  0  # atno 27277 bound_to 3685
  277.0178  311.0865  -80.0223 LP  0  0  0  0  0  0  0  0  0  0  0  0  # atno 27278 bound_to 3685
  279.1571  311.5817  -79.7731 LP  0  0  0  0  0  0  0  0  0  0  0  0  # atno 27283 bound_to 3946
  280.7793  311.7227  -75.6675 LP  0  0  0  0  0  0  0  0  0  0  0  0  # atno 27284 bound_to 3949
  280.1204  310.3976  -74.7673 LP  0  0  0  0  0  0  0  0  0  0  0  0  # atno 27285 bound_to 3949
  277.9822  311.4774  -74.0488 LP  0  0  0  0  0  0  0  0  0  0  0  0  # atno 27286 bound_to 6548
  277.8678  312.2293  -72.6038 LP  0  0  0  0  0  0  0  0  0  0  0  0  # atno 27287 bound_to 6548
  280.8595  320.7439  -71.6650 LP  0  0  0  0  0  0  0  0  0  0  0  0  # atno 27289 bound_to 23653
  280.5025  322.4294  -71.8430 LP  0  0  0  0  0  0  0  0  0  0  0  0  # atno 27290 bound_to 23653
  271.2681  317.2352  -76.5613 LP  0  0  0  0  0  0  0  0  0  0  0  0  # atno 27291 bound_to 25666
  272.5384  315.4454  -76.6087 LP  0  0  0  0  0  0  0  0  0  0  0  0  # atno 27292 bound_to 25669
  273.0176  314.5476  -75.2071 LP  0  0  0  0  0  0  0  0  0  0  0  0  # atno 27293 bound_to 25669
  278.7480  326.3748  -76.5997 LP  0  0  0  0  0  0  0  0  0  0  0  0  # atno 27295 bound_to 1133
  279.8025  325.0030  -76.5199 LP  0  0  0  0  0  0  0  0  0  0  0  0  # atno 27296 bound_to 1133
  278.7869  326.1616  -74.3902 LP  0  0  0  0  0  0  0  0  0  0  0  0  # atno 27297 bound_to 1187
  276.4839  325.7340  -74.0534 LP  0  0  0  0  0  0  0  0  0  0  0  0  # atno 27298 bound_to 1265
  276.2504  326.6095  -77.4743 LP  0  0  0  0  0  0  0  0  0  0  0  0  # atno 27299 bound_to 1331
  276.5133  322.9347  -81.1653 LP  0  0  0  0  0  0  0  0  0  0  0  0  # atno 27300 bound_to 1334
  276.5128  324.6308  -81.5166 LP  0  0  0  0  0  0  0  0  0  0  0  0  # atno 27301 bound_to 1334
  284.7820  313.5040  -76.8393 LP  0  0  0  0  0  0  0  0  0  0  0  0  # atno 27302 bound_to 4184
  284.3681  312.9989  -75.3426 LP  0  0  0  0  0  0  0  0  0  0  0  0  # atno 27303 bound_to 4184
  278.9924  309.3852  -77.5925 LP  0  0  0  0  0  0  0  0  0  0  0  0  # atno 27304 bound_to 4017
  283.3953  310.1874  -74.5292 LP  0  0  0  0  0  0  0  0  0  0  0  0  # atno 27305 bound_to 4223
  271.8584  315.1617  -69.5410 LP  0  0  0  0  0  0  0  0  0  0  0  0  # atno 27306 bound_to 6778
  270.1551  315.0356  -69.8285 LP  0  0  0  0  0  0  0  0  0  0  0  0  # atno 27307 bound_to 6778
  283.3452  318.7822  -68.7984 LP  0  0  0  0  0  0  0  0  0  0  0  0  # atno 27308 bound_to 23601
  284.7945  319.7304  -68.7812 LP  0  0  0  0  0  0  0  0  0  0  0  0  # atno 27309 bound_to 23601
  283.0943  321.4579  -68.0778 LP  0  0  0  0  0  0  0  0  0  0  0  0  # atno 27310 bound_to 23650
  282.0428  323.1856  -68.8547 LP  0  0  0  0  0  0  0  0  0  0  0  0  # atno 27311 bound_to 23739
  285.5007  310.3868  -73.9861 LP  0  0  0  0  0  0  0  0  0  0  0  0  # atno 27312 bound_to 4182
  285.0089  312.0246  -73.7111 LP  0  0  0  0  0  0  0  0  0  0  0  0  # atno 27313 bound_to 4182
  280.0775  308.8884  -72.8187 LP  0  0  0  0  0  0  0  0  0  0  0  0  # atno 27314 bound_to 4228
  280.5112  308.8153  -71.2461 LP  0  0  0  0  0  0  0  0  0  0  0  0  # atno 27315 bound_to 4228
  276.5006  322.4972  -67.7384 LP  0  0  0  0  0  0  0  0  0  0  0  0  # atno 27316 bound_to 23770
  278.0735  322.6850  -68.4388 LP  0  0  0  0  0  0  0  0  0  0  0  0  # atno 27317 bound_to 23770

> <Gold.Score>
     Fitness  S(hb_ext) S(vdw_ext)  S(hb_int)    S(int)      intcor
     38.40       5.74      24.43       0.00      -0.93      -0.79

> <Gold.Goldscore.Fitness>
38.4005

> <Gold.Goldscore.Internal.Vdw>
-1.0362

> <Gold.Goldscore.Internal.Torsion>
-0.6833

> <Gold.Goldscore.External.Vdw>
24.4293

> <Gold.Goldscore.Internal.HBond>
0.0000

> <Gold.Goldscore.External.HBond>
5.7447

> <Gold.Goldscore.Internal.Correction>
-0.7850

> <Gold.Goldscore.Hbonds>
donor molecule, donor type, donor heavy atom, donor atom, acceptor molecule, acceptor atom, score
      P1  H 23657 23691       L1    11  0.96

> <Gold.Goldscore.Internal.Vdw.Weighted>
-1.0362

> <Gold.Goldscore.Internal.Torsion.Weighted>
-0.6833

> <Gold.Goldscore.External.Vdw.Weighted>
33.5903

> <Gold.Goldscore.Internal.HBond.Weighted>
0.0000

> <Gold.Goldscore.External.HBond.Weighted>
5.7447

> <Gold.Goldscore.Internal.Correction.Weighted>
-0.7850

> <Gold.Rescore>
     Score     S(PLP)   S(hbond)     S(cho)   S(metal)  DE(clash)   DE(tors)     intcor
     33.53     -32.72       1.00       0.00       0.00       0.00       1.10       ----

> <Gold.PLP.Fitness>
33.5292

> <Gold.PLP.PLP>
-32.7219

> <Gold.PLP.part.hbond>
-1.2190

> <Gold.PLP.part.metal>
0.0000

> <Gold.PLP.part.buried>
-4.2530

> <Gold.PLP.part.nonpolar>
-26.8356

> <Gold.PLP.part.repulsive>
0.1671

> <Gold.PLP.ligand.clash>
0.0000

> <Gold.PLP.ligand.torsion>
1.0963

> <Gold.PLP.Chemscore.Hbond>
1.0000

> <Gold.PLP.Chemscore.CHOScore>
0.0000

> <Gold.PLP.Chemscore.Metal>
0.0000

> <Gold.Chemscore.Hbonds>
donor molecule, donor type, donor heavy atom, donor atom, acceptor molecule, acceptor atom, score
      P1  H 23657 23691       L1    11  1.00

> <Gold.PLP.Chemscore.Internal.Correction>
   9.000000E+99

