#       Name:                CT1002167954
#       Creating user name   hitesit
#       Creation time:       Sun Apr 16 02:29:33 2023


#       File generated by GOLD software.
#

@<TRIPOS>MOLECULE
CT1002167954|ligand_prepared|mol2|1|dock9
    29    30     1
SMALL
NO_CHARGES


@<TRIPOS>ATOM
      1 C1         281.0721 315.5330 -73.2254 C.3            1 RES1               0.0000
      2 C2         281.8090 316.8540 -73.5264 C.ar           1 RES1               0.0000
      3 C3         282.0934 314.6146 -72.5606 C.2            1 RES1               0.0000
      4 C4         279.8900 315.8973 -72.3341 C.2            1 RES1               0.0000
      5 C5         280.5206 314.8244 -74.4845 C.3            1 RES1               0.0000
      6 C6         281.9456 317.8292 -72.5429 C.ar           1 RES1               0.0000
      7 C7         282.3588 317.1104 -74.7796 C.ar           1 RES1               0.0000
      8 N8         281.9727 314.4018 -71.2190 N.am           1 RES1               0.0000
      9 O9         283.0139 314.1162 -73.1966 O.2            1 RES1               0.0000
     10 N10        279.8859 315.4244 -71.0480 N.am           1 RES1               0.0000
     11 O11        278.9703 316.6034 -72.7287 O.2            1 RES1               0.0000
     12 C12        279.5470 313.6975 -74.1769 C.3            1 RES1               0.0000
     13 C13        282.6103 319.0163 -72.8019 C.ar           1 RES1               0.0000
     14 C14        283.0229 318.2984 -75.0366 C.ar           1 RES1               0.0000
     15 C15        280.8885 314.7187 -70.4406 C.2            1 RES1               0.0000
     16 C16        283.1497 319.2516 -74.0486 C.ar           1 RES1               0.0000
     17 O17        280.8356 314.3752 -69.2632 O.2            1 RES1               0.0000
     18 H18        280.0143 315.5664 -75.1140 H              1 RES1               0.0000
     19 H19        281.3625 314.4168 -75.0577 H              1 RES1               0.0000
     20 H20        281.5255 317.6628 -71.5565 H              1 RES1               0.0000
     21 H21        282.2702 316.3754 -75.5724 H              1 RES1               0.0000
     22 H22        282.7615 313.9669 -70.7511 H              1 RES1               0.0000
     23 H23        279.0586 315.6161 -70.4918 H              1 RES1               0.0000
     24 H24        279.1905 313.2345 -75.0946 H              1 RES1               0.0000
     25 H25        280.0248 312.9290 -73.5730 H              1 RES1               0.0000
     26 H26        278.6846 314.0717 -73.6290 H              1 RES1               0.0000
     27 H27        282.7062 319.7638 -72.0214 H              1 RES1               0.0000
     28 H28        283.4454 318.4796 -76.0194 H              1 RES1               0.0000
     29 H29        283.6707 320.1815 -74.2512 H              1 RES1               0.0000
@<TRIPOS>BOND
    1    1    2 1     
    2    1    3 1     
    3    1    4 1     
    4    1    5 1     
    5    2    6 ar    
    6    2    7 ar    
    7    3    8 1     
    8    3    9 2     
    9    4   10 1     
   10    4   11 2     
   11    5   12 1     
   12    5   18 1     
   13    5   19 1     
   14    6   13 ar    
   15    6   20 1     
   16    7   14 ar    
   17    7   21 1     
   18    8   15 1     
   19    8   22 1     
   20   10   15 1     
   21   10   23 1     
   22   12   24 1     
   23   12   25 1     
   24   12   26 1     
   25   13   16 ar    
   26   13   27 1     
   27   14   16 ar    
   28   14   28 1     
   29   15   17 2     
   30   16   29 1     
@<TRIPOS>SUBSTRUCTURE
      1 RES1           1
@<TRIPOS>SET
DONOR_HYDROGENS      STATIC     ATOMS    <user>   **** ""
2 22 23
ATOM$RED        STATIC     ATOMS    COLORGROUP SYSTEM
2 22 23
@<TRIPOS>COMMENT
> <Gold.Version>
2022.3.0

> <Gold.Id.Protein>
unknown|7ts3_clean|pdb

> <Gold.Protein.RotatedTorsions>
[ 1460 1408 1409 1410 ] final  100.16 input   75.91 | X-H torsion
[ 1470 1416 1415 1414 ] final  132.84 input   60.00 | X-H torsion
[ 1524 1493 1494 1495 ] final -178.24 input   90.66 | X-H torsion
[ 3989 3946 3947 3948 ] final -173.72 input  107.58 | X-H torsion
[ 6590 6548 6547 6545 ] final   87.24 input   60.02 | X-H torsion
[ 25689 25666 25667 25668 ] final   50.28 input   59.86 | X-H torsion
[ 1233 1187 1188 1189 ] final   69.37 input  121.09 | X-H torsion
[ 1309 1265 1266 1267 ] final   55.61 input  118.31 | X-H torsion
[ 1377 1331 1332 1333 ] final  -21.60 input  114.28 | X-H torsion
[ 4211 4184 4183 4180 ] final   -5.71 input   59.99 | X-H torsion
[ 4071 4017 4018 4019 ] final -101.00 input  119.49 | X-H torsion
[ 4251 4223 4224 4225 ] final -101.24 input  117.97 | X-H torsion
[ 23683 23650 23651 23652 ] final  -90.23 input   58.12 | X-H torsion
[ 23751 23739 23740 23741 ] final   47.95 input  -88.68 | X-H torsion
[ 4255 4228 4227 4224 ] final  119.13 input   59.96 | X-H torsion
[ 23779 23767 23768 23769 ] final   74.33 input  -24.14 | X-H torsion
[ 4400 4354 4353 4352 ] final  -48.48 input   60.02 | X-H torsion
[ 27271 1190 1189 1188 ] final  102.11 input   -0.00 | X-H torsion
[ 27274 1411 1410 1409 ] final  -96.01 input   -0.00 | X-H torsion
[ 27277 3685 3684 3683 ] final -156.25 input    0.00 | X-H torsion
[ 27284 3949 3948 3947 ] final   84.17 input   -0.00 | X-H torsion
[ 27289 23653 23652 23651 ] final  -65.15 input   -0.00 | X-H torsion
[ 27292 25669 25668 25667 ] final   66.44 input    0.00 | X-H torsion
[ 27295 1133 1132 1131 ] final   86.72 input    0.00 | X-H torsion
[ 27300 1334 1333 1332 ] final -163.61 input   -0.00 | X-H torsion
[ 27306 6778 6777 6776 ] final  117.72 input    0.00 | X-H torsion
[ 27308 23601 23600 23599 ] final  136.16 input   -0.00 | X-H torsion
[ 27312 4182 4181 4180 ] final   71.30 input   -0.00 | X-H torsion
[ 27316 23770 23769 23768 ] final  -10.23 input   -0.00 | X-H torsion

> <Gold.Protein.ActiveResidues>
 THR320  LEU321  HIS322  LEU323  LYS324  SER325  GLU365  PHE366  GLN369  TYR370 
 SER372  SER373  LYS375  TYR408  HIS412  ARG415  ASN416  TRP426  CYS673  ARG674 
 GLY675  GLY676  TYR703  LEU705  THR706  PRO707 

> <Gold.Protein.RotatedAtoms>
  278.5641  326.0653  -73.3306 H   0  0  0  0  0  0  0  0  0  0  0  0  # atno 1233 bound_to 1187
  277.3309  326.0884  -75.2634 H   0  0  0  0  0  0  0  0  0  0  0  0  # atno 1309 bound_to 1265
  276.0325  325.1709  -77.2929 H   0  0  0  0  0  0  0  0  0  0  0  0  # atno 1377 bound_to 1331
  276.7391  323.4159  -77.8002 H   0  0  0  0  0  0  0  0  0  0  0  0  # atno 1460 bound_to 1408
  281.0438  320.4241  -76.3415 H   0  0  0  0  0  0  0  0  0  0  0  0  # atno 1470 bound_to 1416
  281.9178  320.5761  -77.7408 H   0  0  0  0  0  0  0  0  0  0  0  0  # atno 1471 bound_to 1416
  280.5309  321.4598  -77.5300 H   0  0  0  0  0  0  0  0  0  0  0  0  # atno 1472 bound_to 1416
  274.2489  322.5852  -78.0121 H   0  0  0  0  0  0  0  0  0  0  0  0  # atno 1524 bound_to 1493
  278.9322  311.6145  -79.7835 H   0  0  0  0  0  0  0  0  0  0  0  0  # atno 3989 bound_to 3946
  278.6601  310.5009  -76.3439 H   0  0  0  0  0  0  0  0  0  0  0  0  # atno 4071 bound_to 4017
  284.6262  312.9190  -75.5386 H   0  0  0  0  0  0  0  0  0  0  0  0  # atno 4211 bound_to 4184
  283.1770  311.3380  -74.5889 H   0  0  0  0  0  0  0  0  0  0  0  0  # atno 4251 bound_to 4223
  280.5662  308.8058  -71.2402 H   0  0  0  0  0  0  0  0  0  0  0  0  # atno 4255 bound_to 4228
  286.2541  312.7454  -71.3783 H   0  0  0  0  0  0  0  0  0  0  0  0  # atno 4400 bound_to 4354
  287.1407  312.2028  -70.0874 H   0  0  0  0  0  0  0  0  0  0  0  0  # atno 4401 bound_to 4354
  287.0711  313.8246  -70.4213 H   0  0  0  0  0  0  0  0  0  0  0  0  # atno 4402 bound_to 4354
  278.0994  311.4920  -73.9357 H   0  0  0  0  0  0  0  0  0  0  0  0  # atno 6590 bound_to 6548
  283.2084  320.9068  -68.0190 H   0  0  0  0  0  0  0  0  0  0  0  0  # atno 23683 bound_to 23650
  280.8071  322.3676  -69.6672 H   0  0  0  0  0  0  0  0  0  0  0  0  # atno 23751 bound_to 23739
  279.1958  323.7858  -70.2232 H   0  0  0  0  0  0  0  0  0  0  0  0  # atno 23779 bound_to 23767
  271.3929  317.1932  -76.4170 H   0  0  0  0  0  0  0  0  0  0  0  0  # atno 25689 bound_to 25666
  275.7783  322.9756  -75.5971 LP  0  0  0  0  0  0  0  0  0  0  0  0  # atno 27271 bound_to 1190
  277.1073  323.2828  -76.6645 LP  0  0  0  0  0  0  0  0  0  0  0  0  # atno 27272 bound_to 1190
  276.1870  323.9569  -79.3685 LP  0  0  0  0  0  0  0  0  0  0  0  0  # atno 27273 bound_to 1408
  273.8949  319.8919  -79.7518 LP  0  0  0  0  0  0  0  0  0  0  0  0  # atno 27274 bound_to 1411
  274.2274  319.8279  -78.0531 LP  0  0  0  0  0  0  0  0  0  0  0  0  # atno 27275 bound_to 1411
  274.1269  322.6667  -79.7486 LP  0  0  0  0  0  0  0  0  0  0  0  0  # atno 27276 bound_to 1493
  276.8222  311.1826  -79.8053 LP  0  0  0  0  0  0  0  0  0  0  0  0  # atno 27277 bound_to 3685
  277.0513  312.6556  -80.6871 LP  0  0  0  0  0  0  0  0  0  0  0  0  # atno 27278 bound_to 3685
  278.9474  310.0682  -78.9799 LP  0  0  0  0  0  0  0  0  0  0  0  0  # atno 27283 bound_to 3946
  279.8111  311.4782  -74.8085 LP  0  0  0  0  0  0  0  0  0  0  0  0  # atno 27284 bound_to 3949
  281.0886  310.6421  -75.6263 LP  0  0  0  0  0  0  0  0  0  0  0  0  # atno 27285 bound_to 3949
  277.7208  312.2938  -72.5707 LP  0  0  0  0  0  0  0  0  0  0  0  0  # atno 27286 bound_to 6548
  276.5967  312.0853  -73.7367 LP  0  0  0  0  0  0  0  0  0  0  0  0  # atno 27287 bound_to 6548
  281.4116  321.1560  -71.9294 LP  0  0  0  0  0  0  0  0  0  0  0  0  # atno 27289 bound_to 23653
  279.9504  322.0173  -71.5786 LP  0  0  0  0  0  0  0  0  0  0  0  0  # atno 27290 bound_to 23653
  269.9959  317.6669  -75.4851 LP  0  0  0  0  0  0  0  0  0  0  0  0  # atno 27291 bound_to 25666
  272.7373  315.6639  -75.3575 LP  0  0  0  0  0  0  0  0  0  0  0  0  # atno 27292 bound_to 25669
  272.8187  314.3291  -76.4583 LP  0  0  0  0  0  0  0  0  0  0  0  0  # atno 27293 bound_to 25669
  279.9759  325.1804  -76.5824 LP  0  0  0  0  0  0  0  0  0  0  0  0  # atno 27295 bound_to 1133
  278.5746  326.1975  -76.5372 LP  0  0  0  0  0  0  0  0  0  0  0  0  # atno 27296 bound_to 1133
  279.8951  325.4028  -74.2527 LP  0  0  0  0  0  0  0  0  0  0  0  0  # atno 27297 bound_to 1187
  276.4373  324.9222  -74.3159 LP  0  0  0  0  0  0  0  0  0  0  0  0  # atno 27298 bound_to 1265
  277.1647  326.5018  -77.2868 LP  0  0  0  0  0  0  0  0  0  0  0  0  # atno 27299 bound_to 1331
  276.0769  323.0551  -81.1671 LP  0  0  0  0  0  0  0  0  0  0  0  0  # atno 27300 bound_to 1334
  276.9493  324.5104  -81.5148 LP  0  0  0  0  0  0  0  0  0  0  0  0  # atno 27301 bound_to 1334
  283.3917  313.9397  -75.8264 LP  0  0  0  0  0  0  0  0  0  0  0  0  # atno 27302 bound_to 4184
  284.5549  313.7228  -76.9518 LP  0  0  0  0  0  0  0  0  0  0  0  0  # atno 27303 bound_to 4184
  278.6523  309.2895  -77.5980 LP  0  0  0  0  0  0  0  0  0  0  0  0  # atno 27304 bound_to 4017
  282.1409  309.9319  -74.5938 LP  0  0  0  0  0  0  0  0  0  0  0  0  # atno 27305 bound_to 4223
  270.8136  315.0685  -70.5284 LP  0  0  0  0  0  0  0  0  0  0  0  0  # atno 27306 bound_to 6778
  271.1999  315.1288  -68.8411 LP  0  0  0  0  0  0  0  0  0  0  0  0  # atno 27307 bound_to 6778
  283.2949  318.9116  -68.9648 LP  0  0  0  0  0  0  0  0  0  0  0  0  # atno 27308 bound_to 23601
  284.8448  319.6011  -68.6148 LP  0  0  0  0  0  0  0  0  0  0  0  0  # atno 27309 bound_to 23601
  281.7404  321.3428  -67.1748 LP  0  0  0  0  0  0  0  0  0  0  0  0  # atno 27310 bound_to 23650
  282.3348  323.0269  -69.1368 LP  0  0  0  0  0  0  0  0  0  0  0  0  # atno 27311 bound_to 23739
  285.2330  312.0352  -74.0965 LP  0  0  0  0  0  0  0  0  0  0  0  0  # atno 27312 bound_to 4182
  285.2766  310.3762  -73.6008 LP  0  0  0  0  0  0  0  0  0  0  0  0  # atno 27313 bound_to 4182
  281.6099  308.5699  -72.4663 LP  0  0  0  0  0  0  0  0  0  0  0  0  # atno 27314 bound_to 4228
  280.0406  308.8967  -72.7777 LP  0  0  0  0  0  0  0  0  0  0  0  0  # atno 27315 bound_to 4228
  278.0223  322.6451  -68.5430 LP  0  0  0  0  0  0  0  0  0  0  0  0  # atno 27316 bound_to 23770
  276.5518  322.5372  -67.6342 LP  0  0  0  0  0  0  0  0  0  0  0  0  # atno 27317 bound_to 23770

> <Gold.Score>
     Fitness  S(hb_ext) S(vdw_ext)  S(hb_int)    S(int)      intcor
     33.92      11.96      16.12       0.00      -0.21      -0.76

> <Gold.Goldscore.Fitness>
33.9200

> <Gold.Goldscore.Internal.Vdw>
-0.3555

> <Gold.Goldscore.Internal.Torsion>
-0.6075

> <Gold.Goldscore.External.Vdw>
16.1245

> <Gold.Goldscore.Internal.HBond>
0.0000

> <Gold.Goldscore.External.HBond>
11.9554

> <Gold.Goldscore.Internal.Correction>
-0.7564

> <Gold.Goldscore.Hbonds>
donor molecule, donor type, donor heavy atom, donor atom, acceptor molecule, acceptor atom, score
      P1  H  6990  7050       L1    17  1.00
      P1  H 23657 23691       L1    11  0.99

> <Gold.Goldscore.Internal.Vdw.Weighted>
-0.3555

> <Gold.Goldscore.Internal.Torsion.Weighted>
-0.6075

> <Gold.Goldscore.External.Vdw.Weighted>
22.1712

> <Gold.Goldscore.Internal.HBond.Weighted>
0.0000

> <Gold.Goldscore.External.HBond.Weighted>
11.9554

> <Gold.Goldscore.Internal.Correction.Weighted>
-0.7564

> <Gold.Rescore>
     Score     S(PLP)   S(hbond)     S(cho)   S(metal)  DE(clash)   DE(tors)     intcor
     28.21     -22.36       2.00       0.00       0.00       0.00       0.08       ----

> <Gold.PLP.Fitness>
28.2095

> <Gold.PLP.PLP>
-22.3597

> <Gold.PLP.part.hbond>
-2.0983

> <Gold.PLP.part.metal>
0.0000

> <Gold.PLP.part.buried>
-5.3925

> <Gold.PLP.part.nonpolar>
-15.2196

> <Gold.PLP.part.repulsive>
0.3340

> <Gold.PLP.ligand.clash>
0.0000

> <Gold.PLP.ligand.torsion>
0.0751

> <Gold.PLP.Chemscore.Hbond>
2.0000

> <Gold.PLP.Chemscore.CHOScore>
0.0000

> <Gold.PLP.Chemscore.Metal>
0.0000

> <Gold.Chemscore.Hbonds>
donor molecule, donor type, donor heavy atom, donor atom, acceptor molecule, acceptor atom, score
      P1  H  6990  7050       L1    17  1.00
      P1  H 23657 23691       L1    11  0.39

> <Gold.PLP.Chemscore.Internal.Correction>
   9.000000E+99

