#       Name:                CT1002167954
#       Creating user name   hitesit
#       Creation time:       Sun Apr 16 02:29:29 2023


#       File generated by GOLD software.
#

@<TRIPOS>MOLECULE
CT1002167954|ligand_prepared|mol2|1|dock2
    29    30     1
SMALL
NO_CHARGES


@<TRIPOS>ATOM
      1 C1         278.7946 316.6387 -74.8932 C.3            1 RES1               0.0000
      2 C2         277.8507 316.8537 -76.0938 C.ar           1 RES1               0.0000
      3 C3         278.1736 315.5261 -74.0538 C.2            1 RES1               0.0000
      4 C4         280.1578 316.2887 -75.4795 C.2            1 RES1               0.0000
      5 C5         278.9655 317.8902 -74.0008 C.3            1 RES1               0.0000
      6 C6         276.6895 317.6082 -75.9561 C.ar           1 RES1               0.0000
      7 C7         278.1286 316.3070 -77.3438 C.ar           1 RES1               0.0000
      8 N8         278.7658 314.2982 -74.0947 N.am           1 RES1               0.0000
      9 O9         277.1568 315.7128 -73.3970 O.2            1 RES1               0.0000
     10 N10        280.6527 315.0320 -75.2484 N.am           1 RES1               0.0000
     11 O11        280.8004 317.0843 -76.1536 O.2            1 RES1               0.0000
     12 C12        280.1112 317.7827 -73.0069 C.3            1 RES1               0.0000
     13 C13        275.8384 317.8114 -77.0297 C.ar           1 RES1               0.0000
     14 C14        277.2761 316.5112 -78.4161 C.ar           1 RES1               0.0000
     15 C15        280.0048 314.0107 -74.6085 C.2            1 RES1               0.0000
     16 C16        276.1313 317.2635 -78.2604 C.ar           1 RES1               0.0000
     17 O17        280.4933 312.8910 -74.4874 O.2            1 RES1               0.0000
     18 H18        279.1368 318.7619 -74.6442 H              1 RES1               0.0000
     19 H19        278.0332 318.0595 -73.4479 H              1 RES1               0.0000
     20 H20        276.4413 318.0452 -74.9946 H              1 RES1               0.0000
     21 H21        279.0230 315.7108 -77.4893 H              1 RES1               0.0000
     22 H22        278.2386 313.5220 -73.7076 H              1 RES1               0.0000
     23 H23        281.5911 314.8400 -75.5843 H              1 RES1               0.0000
     24 H24        280.1869 318.6867 -72.4062 H              1 RES1               0.0000
     25 H25        279.9608 316.9407 -72.3344 H              1 RES1               0.0000
     26 H26        281.0579 317.6389 -73.5236 H              1 RES1               0.0000
     27 H27        274.9380 318.4031 -76.9016 H              1 RES1               0.0000
     28 H28        277.5102 316.0776 -79.3827 H              1 RES1               0.0000
     29 H29        275.4646 317.4232 -79.1014 H              1 RES1               0.0000
@<TRIPOS>BOND
    1    1    2 1     
    2    1    3 1     
    3    1    4 1     
    4    1    5 1     
    5    2    6 ar    
    6    2    7 ar    
    7    3    8 1     
    8    3    9 2     
    9    4   10 1     
   10    4   11 2     
   11    5   12 1     
   12    5   18 1     
   13    5   19 1     
   14    6   13 ar    
   15    6   20 1     
   16    7   14 ar    
   17    7   21 1     
   18    8   15 1     
   19    8   22 1     
   20   10   15 1     
   21   10   23 1     
   22   12   24 1     
   23   12   25 1     
   24   12   26 1     
   25   13   16 ar    
   26   13   27 1     
   27   14   16 ar    
   28   14   28 1     
   29   15   17 2     
   30   16   29 1     
@<TRIPOS>SUBSTRUCTURE
      1 RES1           1
@<TRIPOS>SET
DONOR_HYDROGENS      STATIC     ATOMS    <user>   **** ""
2 22 23
ATOM$RED        STATIC     ATOMS    COLORGROUP SYSTEM
2 22 23
@<TRIPOS>COMMENT
> <Gold.Version>
2022.3.0

> <Gold.Id.Protein>
unknown|7ts3_clean|pdb

> <Gold.Protein.RotatedTorsions>
[ 1460 1408 1409 1410 ] final  -44.39 input   75.91 | X-H torsion
[ 1470 1416 1415 1414 ] final   -1.86 input   60.00 | X-H torsion
[ 1524 1493 1494 1495 ] final  -96.05 input   90.66 | X-H torsion
[ 3989 3946 3947 3948 ] final   44.74 input  107.58 | X-H torsion
[ 6590 6548 6547 6545 ] final -142.57 input   60.02 | X-H torsion
[ 25689 25666 25667 25668 ] final -100.35 input   59.86 | X-H torsion
[ 1233 1187 1188 1189 ] final  -30.47 input  121.09 | X-H torsion
[ 1309 1265 1266 1267 ] final   40.08 input  118.31 | X-H torsion
[ 1377 1331 1332 1333 ] final  118.04 input  114.28 | X-H torsion
[ 4211 4184 4183 4180 ] final  156.54 input   59.99 | X-H torsion
[ 4071 4017 4018 4019 ] final -123.18 input  119.49 | X-H torsion
[ 4251 4223 4224 4225 ] final  162.41 input  117.97 | X-H torsion
[ 23683 23650 23651 23652 ] final  -57.04 input   58.12 | X-H torsion
[ 23751 23739 23740 23741 ] final   50.39 input  -88.68 | X-H torsion
[ 4255 4228 4227 4224 ] final   72.51 input   59.96 | X-H torsion
[ 23779 23767 23768 23769 ] final -126.56 input  -24.14 | X-H torsion
[ 4400 4354 4353 4352 ] final    8.16 input   60.02 | X-H torsion
[ 27271 1190 1189 1188 ] final   26.77 input   -0.00 | X-H torsion
[ 27274 1411 1410 1409 ] final -129.36 input   -0.00 | X-H torsion
[ 27277 3685 3684 3683 ] final -140.81 input    0.00 | X-H torsion
[ 27284 3949 3948 3947 ] final  114.19 input   -0.00 | X-H torsion
[ 27289 23653 23652 23651 ] final -172.82 input   -0.00 | X-H torsion
[ 27292 25669 25668 25667 ] final -169.32 input    0.00 | X-H torsion
[ 27295 1133 1132 1131 ] final   44.68 input    0.00 | X-H torsion
[ 27300 1334 1333 1332 ] final -157.89 input   -0.00 | X-H torsion
[ 27306 6778 6777 6776 ] final  -11.85 input    0.00 | X-H torsion
[ 27308 23601 23600 23599 ] final   44.87 input   -0.00 | X-H torsion
[ 27312 4182 4181 4180 ] final   -1.58 input   -0.00 | X-H torsion
[ 27316 23770 23769 23768 ] final   60.86 input   -0.00 | X-H torsion

> <Gold.Protein.ActiveResidues>
 THR320  LEU321  HIS322  LEU323  LYS324  SER325  GLU365  PHE366  GLN369  TYR370 
 SER372  SER373  LYS375  TYR408  HIS412  ARG415  ASN416  TRP426  CYS673  ARG674 
 GLY675  GLY676  TYR703  LEU705  THR706  PRO707 

> <Gold.Protein.RotatedAtoms>
  279.0277  326.0283  -74.6074 H   0  0  0  0  0  0  0  0  0  0  0  0  # atno 1233 bound_to 1187
  277.3690  325.8977  -75.4026 H   0  0  0  0  0  0  0  0  0  0  0  0  # atno 1309 bound_to 1265
  277.4655  325.9958  -77.1562 H   0  0  0  0  0  0  0  0  0  0  0  0  # atno 1377 bound_to 1331
  275.7547  323.9621  -79.0569 H   0  0  0  0  0  0  0  0  0  0  0  0  # atno 1460 bound_to 1408
  280.6803  321.4606  -77.7242 H   0  0  0  0  0  0  0  0  0  0  0  0  # atno 1470 bound_to 1416
  280.8443  320.5664  -76.3391 H   0  0  0  0  0  0  0  0  0  0  0  0  # atno 1471 bound_to 1416
  281.9691  320.4325  -77.5497 H   0  0  0  0  0  0  0  0  0  0  0  0  # atno 1472 bound_to 1416
  274.3810  321.7757  -78.8179 H   0  0  0  0  0  0  0  0  0  0  0  0  # atno 1524 bound_to 1493
  278.4033  310.2462  -79.0253 H   0  0  0  0  0  0  0  0  0  0  0  0  # atno 3989 bound_to 3946
  278.3352  310.4123  -76.3463 H   0  0  0  0  0  0  0  0  0  0  0  0  # atno 4071 bound_to 4017
  283.9801  314.0634  -76.8411 H   0  0  0  0  0  0  0  0  0  0  0  0  # atno 4211 bound_to 4184
  281.8924  311.0683  -74.6548 H   0  0  0  0  0  0  0  0  0  0  0  0  # atno 4251 bound_to 4223
  281.2742  308.6549  -71.3983 H   0  0  0  0  0  0  0  0  0  0  0  0  # atno 4255 bound_to 4228
  286.5433  312.0438  -70.8797 H   0  0  0  0  0  0  0  0  0  0  0  0  # atno 4400 bound_to 4354
  287.3910  313.0479  -69.8697 H   0  0  0  0  0  0  0  0  0  0  0  0  # atno 4401 bound_to 4354
  286.5318  313.6812  -71.1375 H   0  0  0  0  0  0  0  0  0  0  0  0  # atno 4402 bound_to 4354
  276.5765  312.1618  -73.5896 H   0  0  0  0  0  0  0  0  0  0  0  0  # atno 6590 bound_to 6548
  283.1336  321.4003  -68.1043 H   0  0  0  0  0  0  0  0  0  0  0  0  # atno 23683 bound_to 23650
  280.8252  322.3501  -69.6950 H   0  0  0  0  0  0  0  0  0  0  0  0  # atno 23751 bound_to 23739
  280.0142  324.8695  -69.1435 H   0  0  0  0  0  0  0  0  0  0  0  0  # atno 23779 bound_to 23767
  270.2913  317.5569  -75.1744 H   0  0  0  0  0  0  0  0  0  0  0  0  # atno 25689 bound_to 25666
  276.7381  322.5296  -75.5800 LP  0  0  0  0  0  0  0  0  0  0  0  0  # atno 27271 bound_to 1190
  276.1475  323.7287  -76.6816 LP  0  0  0  0  0  0  0  0  0  0  0  0  # atno 27272 bound_to 1190
  277.1460  323.4248  -78.1443 LP  0  0  0  0  0  0  0  0  0  0  0  0  # atno 27273 bound_to 1408
  273.4762  320.0247  -79.5194 LP  0  0  0  0  0  0  0  0  0  0  0  0  # atno 27274 bound_to 1411
  274.6461  319.6950  -78.2855 LP  0  0  0  0  0  0  0  0  0  0  0  0  # atno 27275 bound_to 1411
  273.9957  323.4701  -78.9489 LP  0  0  0  0  0  0  0  0  0  0  0  0  # atno 27276 bound_to 1493
  276.9698  311.1006  -79.9653 LP  0  0  0  0  0  0  0  0  0  0  0  0  # atno 27277 bound_to 3685
  276.9036  312.7376  -80.5271 LP  0  0  0  0  0  0  0  0  0  0  0  0  # atno 27278 bound_to 3685
  279.4725  311.4267  -79.7326 LP  0  0  0  0  0  0  0  0  0  0  0  0  # atno 27283 bound_to 3946
  279.7806  311.0533  -74.6678 LP  0  0  0  0  0  0  0  0  0  0  0  0  # atno 27284 bound_to 3949
  281.1191  311.0670  -75.7670 LP  0  0  0  0  0  0  0  0  0  0  0  0  # atno 27285 bound_to 3949
  277.9794  311.4772  -74.0509 LP  0  0  0  0  0  0  0  0  0  0  0  0  # atno 27286 bound_to 6548
  277.8708  312.2279  -72.6047 LP  0  0  0  0  0  0  0  0  0  0  0  0  # atno 27287 bound_to 6548
  280.8137  322.4200  -71.9488 LP  0  0  0  0  0  0  0  0  0  0  0  0  # atno 27289 bound_to 23653
  280.5483  320.7534  -71.5591 LP  0  0  0  0  0  0  0  0  0  0  0  0  # atno 27290 bound_to 23653
  271.0817  317.3084  -76.7100 LP  0  0  0  0  0  0  0  0  0  0  0  0  # atno 27291 bound_to 25666
  273.0034  314.1915  -75.6818 LP  0  0  0  0  0  0  0  0  0  0  0  0  # atno 27292 bound_to 25669
  272.5526  315.8015  -76.1340 LP  0  0  0  0  0  0  0  0  0  0  0  0  # atno 27293 bound_to 25669
  280.1230  325.7688  -76.7177 LP  0  0  0  0  0  0  0  0  0  0  0  0  # atno 27295 bound_to 1133
  278.4275  325.6091  -76.4019 LP  0  0  0  0  0  0  0  0  0  0  0  0  # atno 27296 bound_to 1133
  279.4454  325.4387  -73.0141 LP  0  0  0  0  0  0  0  0  0  0  0  0  # atno 27297 bound_to 1187
  276.4002  325.1080  -74.1802 LP  0  0  0  0  0  0  0  0  0  0  0  0  # atno 27298 bound_to 1265
  275.7645  325.6959  -77.4204 LP  0  0  0  0  0  0  0  0  0  0  0  0  # atno 27299 bound_to 1331
  276.0045  323.1021  -81.1730 LP  0  0  0  0  0  0  0  0  0  0  0  0  # atno 27300 bound_to 1334
  277.0216  324.4633  -81.5089 LP  0  0  0  0  0  0  0  0  0  0  0  0  # atno 27301 bound_to 1334
  284.9682  312.9908  -76.1187 LP  0  0  0  0  0  0  0  0  0  0  0  0  # atno 27302 bound_to 4184
  283.6290  313.5194  -75.3481 LP  0  0  0  0  0  0  0  0  0  0  0  0  # atno 27303 bound_to 4184
  278.9742  309.3774  -77.5957 LP  0  0  0  0  0  0  0  0  0  0  0  0  # atno 27304 bound_to 4017
  283.4006  310.1964  -74.5293 LP  0  0  0  0  0  0  0  0  0  0  0  0  # atno 27305 bound_to 4223
  271.7789  315.1608  -69.2975 LP  0  0  0  0  0  0  0  0  0  0  0  0  # atno 27306 bound_to 6778
  270.2346  315.0365  -70.0720 LP  0  0  0  0  0  0  0  0  0  0  0  0  # atno 27307 bound_to 6778
  284.1920  318.6996  -68.1378 LP  0  0  0  0  0  0  0  0  0  0  0  0  # atno 27308 bound_to 23601
  283.9477  319.8131  -69.4418 LP  0  0  0  0  0  0  0  0  0  0  0  0  # atno 27309 bound_to 23601
  281.8130  320.8629  -67.0919 LP  0  0  0  0  0  0  0  0  0  0  0  0  # atno 27310 bound_to 23650
  282.3170  323.0441  -69.1095 LP  0  0  0  0  0  0  0  0  0  0  0  0  # atno 27311 bound_to 23739
  285.6844  311.2590  -74.5987 LP  0  0  0  0  0  0  0  0  0  0  0  0  # atno 27312 bound_to 4182
  284.8252  311.1524  -73.0985 LP  0  0  0  0  0  0  0  0  0  0  0  0  # atno 27313 bound_to 4182
  281.1171  308.6673  -73.0180 LP  0  0  0  0  0  0  0  0  0  0  0  0  # atno 27314 bound_to 4228
  279.8204  308.9512  -72.0669 LP  0  0  0  0  0  0  0  0  0  0  0  0  # atno 27315 bound_to 4228
  277.9173  322.8794  -67.5693 LP  0  0  0  0  0  0  0  0  0  0  0  0  # atno 27316 bound_to 23770
  276.6568  322.3028  -68.6079 LP  0  0  0  0  0  0  0  0  0  0  0  0  # atno 27317 bound_to 23770

> <Gold.Score>
     Fitness  S(hb_ext) S(vdw_ext)  S(hb_int)    S(int)      intcor
     41.31       7.41      25.34       0.00      -0.93      -0.79

> <Gold.Goldscore.Fitness>
41.3126

> <Gold.Goldscore.Internal.Vdw>
-1.1110

> <Gold.Goldscore.Internal.Torsion>
-0.6083

> <Gold.Goldscore.External.Vdw>
25.3387

> <Gold.Goldscore.Internal.HBond>
0.0000

> <Gold.Goldscore.External.HBond>
7.4062

> <Gold.Goldscore.Internal.Correction>
-0.7850

> <Gold.Goldscore.Hbonds>
donor molecule, donor type, donor heavy atom, donor atom, acceptor molecule, acceptor atom, score
      P1  H 23660 23695       L1     9  1.00
      P1  H  4223  4251       L1    17  0.03
      L1  H     8    22       P1  6548  0.50
      L1  H    10    23       P1  4184  0.17

> <Gold.Goldscore.Internal.Vdw.Weighted>
-1.1110

> <Gold.Goldscore.Internal.Torsion.Weighted>
-0.6083

> <Gold.Goldscore.External.Vdw.Weighted>
34.8407

> <Gold.Goldscore.Internal.HBond.Weighted>
0.0000

> <Gold.Goldscore.External.HBond.Weighted>
7.4062

> <Gold.Goldscore.Internal.Correction.Weighted>
-0.7850

> <Gold.Rescore>
     Score     S(PLP)   S(hbond)     S(cho)   S(metal)  DE(clash)   DE(tors)     intcor
     34.04     -32.46       1.26       0.00       0.00       0.14       1.03       ----

> <Gold.PLP.Fitness>
34.0385

> <Gold.PLP.PLP>
-32.4585

> <Gold.PLP.part.hbond>
-2.5063

> <Gold.PLP.part.metal>
0.0000

> <Gold.PLP.part.buried>
-4.2678

> <Gold.PLP.part.nonpolar>
-29.9652

> <Gold.PLP.part.repulsive>
3.4821

> <Gold.PLP.ligand.clash>
0.1392

> <Gold.PLP.ligand.torsion>
1.0348

> <Gold.PLP.Chemscore.Hbond>
1.2629

> <Gold.PLP.Chemscore.CHOScore>
0.0000

> <Gold.PLP.Chemscore.Metal>
0.0000

> <Gold.Chemscore.Hbonds>
donor molecule, donor type, donor heavy atom, donor atom, acceptor molecule, acceptor atom, score
      P1  H 23660 23695       L1     9  0.86
      P1  H  4223  4251       L1    17  0.36

> <Gold.PLP.Chemscore.Internal.Correction>
   9.000000E+99

