#       Name:                CT1002167954
#       Creating user name   hitesit
#       Creation time:       Sun Apr 16 02:29:33 2023


#       File generated by GOLD software.
#

@<TRIPOS>MOLECULE
CT1002167954|ligand_prepared|mol2|1|dock10
    29    30     1
SMALL
NO_CHARGES


@<TRIPOS>ATOM
      1 C1         278.1393 316.8435 -75.2353 C.3            1 RES1               0.0000
      2 C2         278.4419 316.3623 -76.6691 C.ar           1 RES1               0.0000
      3 C3         276.8755 317.6937 -75.3265 C.2            1 RES1               0.0000
      4 C4         277.9833 315.5860 -74.3873 C.2            1 RES1               0.0000
      5 C5         279.2652 317.7022 -74.6137 C.3            1 RES1               0.0000
      6 C6         279.6514 315.7420 -76.9679 C.ar           1 RES1               0.0000
      7 C7         277.5222 316.5290 -77.7010 C.ar           1 RES1               0.0000
      8 N8         275.7162 317.1555 -74.8510 N.am           1 RES1               0.0000
      9 O9         276.8882 318.8039 -75.8439 O.2            1 RES1               0.0000
     10 N10        276.7501 315.3220 -73.8512 N.am           1 RES1               0.0000
     11 O11        278.9129 314.8127 -74.1923 O.2            1 RES1               0.0000
     12 C12        279.0193 318.0770 -73.1607 C.3            1 RES1               0.0000
     13 C13        279.9301 315.3016 -78.2511 C.ar           1 RES1               0.0000
     14 C14        277.8030 316.0881 -78.9836 C.ar           1 RES1               0.0000
     15 C15        275.6020 316.0336 -74.0700 C.2            1 RES1               0.0000
     16 C16        279.0061 315.4739 -79.2596 C.ar           1 RES1               0.0000
     17 O17        274.5188 315.7023 -73.5966 O.2            1 RES1               0.0000
     18 H18        280.2097 317.1482 -74.6805 H              1 RES1               0.0000
     19 H19        279.3737 318.6218 -75.2020 H              1 RES1               0.0000
     20 H20        280.3917 315.6000 -76.1877 H              1 RES1               0.0000
     21 H21        276.5697 317.0105 -77.5073 H              1 RES1               0.0000
     22 H22        274.8545 317.6311 -75.0990 H              1 RES1               0.0000
     23 H23        276.6817 314.5210 -73.2316 H              1 RES1               0.0000
     24 H24        279.8388 318.6789 -72.7736 H              1 RES1               0.0000
     25 H25        278.1005 318.6511 -73.0606 H              1 RES1               0.0000
     26 H26        278.9316 317.1862 -72.5422 H              1 RES1               0.0000
     27 H27        280.8789 314.8201 -78.4634 H              1 RES1               0.0000
     28 H28        277.0731 316.2263 -79.7744 H              1 RES1               0.0000
     29 H29        279.2245 315.1285 -80.2647 H              1 RES1               0.0000
@<TRIPOS>BOND
    1    1    2 1     
    2    1    3 1     
    3    1    4 1     
    4    1    5 1     
    5    2    6 ar    
    6    2    7 ar    
    7    3    8 1     
    8    3    9 2     
    9    4   10 1     
   10    4   11 2     
   11    5   12 1     
   12    5   18 1     
   13    5   19 1     
   14    6   13 ar    
   15    6   20 1     
   16    7   14 ar    
   17    7   21 1     
   18    8   15 1     
   19    8   22 1     
   20   10   15 1     
   21   10   23 1     
   22   12   24 1     
   23   12   25 1     
   24   12   26 1     
   25   13   16 ar    
   26   13   27 1     
   27   14   16 ar    
   28   14   28 1     
   29   15   17 2     
   30   16   29 1     
@<TRIPOS>SUBSTRUCTURE
      1 RES1           1
@<TRIPOS>SET
DONOR_HYDROGENS      STATIC     ATOMS    <user>   **** ""
2 22 23
ATOM$RED        STATIC     ATOMS    COLORGROUP SYSTEM
2 22 23
@<TRIPOS>COMMENT
> <Gold.Version>
2022.3.0

> <Gold.Id.Protein>
unknown|7ts3_clean|pdb

> <Gold.Protein.RotatedTorsions>
[ 1460 1408 1409 1410 ] final  111.83 input   75.91 | X-H torsion
[ 1470 1416 1415 1414 ] final  114.93 input   60.00 | X-H torsion
[ 1524 1493 1494 1495 ] final   52.31 input   90.66 | X-H torsion
[ 3989 3946 3947 3948 ] final   29.30 input  107.58 | X-H torsion
[ 6590 6548 6547 6545 ] final   -2.83 input   60.02 | X-H torsion
[ 25689 25666 25667 25668 ] final   76.33 input   59.86 | X-H torsion
[ 1233 1187 1188 1189 ] final  -53.50 input  121.09 | X-H torsion
[ 1309 1265 1266 1267 ] final  119.63 input  118.31 | X-H torsion
[ 1377 1331 1332 1333 ] final  -26.76 input  114.28 | X-H torsion
[ 4211 4184 4183 4180 ] final  -33.41 input   59.99 | X-H torsion
[ 4071 4017 4018 4019 ] final  154.91 input  119.49 | X-H torsion
[ 4251 4223 4224 4225 ] final  164.71 input  117.97 | X-H torsion
[ 23683 23650 23651 23652 ] final   80.17 input   58.12 | X-H torsion
[ 23751 23739 23740 23741 ] final    3.63 input  -88.68 | X-H torsion
[ 4255 4228 4227 4224 ] final  -34.00 input   59.96 | X-H torsion
[ 23779 23767 23768 23769 ] final -100.10 input  -24.14 | X-H torsion
[ 4400 4354 4353 4352 ] final  -32.99 input   60.02 | X-H torsion
[ 27271 1190 1189 1188 ] final -119.86 input   -0.00 | X-H torsion
[ 27274 1411 1410 1409 ] final  -30.53 input   -0.00 | X-H torsion
[ 27277 3685 3684 3683 ] final -125.67 input    0.00 | X-H torsion
[ 27284 3949 3948 3947 ] final  -41.62 input   -0.00 | X-H torsion
[ 27289 23653 23652 23651 ] final  -38.20 input   -0.00 | X-H torsion
[ 27292 25669 25668 25667 ] final   32.72 input    0.00 | X-H torsion
[ 27295 1133 1132 1131 ] final   41.95 input    0.00 | X-H torsion
[ 27300 1334 1333 1332 ] final  -63.55 input   -0.00 | X-H torsion
[ 27306 6778 6777 6776 ] final  110.73 input    0.00 | X-H torsion
[ 27308 23601 23600 23599 ] final  117.47 input   -0.00 | X-H torsion
[ 27312 4182 4181 4180 ] final   85.62 input   -0.00 | X-H torsion
[ 27316 23770 23769 23768 ] final  104.01 input   -0.00 | X-H torsion

> <Gold.Protein.ActiveResidues>
 THR320  LEU321  HIS322  LEU323  LYS324  SER325  GLU365  PHE366  GLN369  TYR370 
 SER372  SER373  LYS375  TYR408  HIS412  ARG415  ASN416  TRP426  CYS673  ARG674 
 GLY675  GLY676  TYR703  LEU705  THR706  PRO707 

> <Gold.Protein.RotatedAtoms>
  279.3248  325.8467  -74.6747 H   0  0  0  0  0  0  0  0  0  0  0  0  # atno 1233 bound_to 1187
  276.8905  326.3254  -74.4691 H   0  0  0  0  0  0  0  0  0  0  0  0  # atno 1309 bound_to 1265
  275.9761  325.2237  -77.3117 H   0  0  0  0  0  0  0  0  0  0  0  0  # atno 1377 bound_to 1331
  276.8990  323.4015  -77.8818 H   0  0  0  0  0  0  0  0  0  0  0  0  # atno 1460 bound_to 1408
  280.8035  320.6000  -76.3458 H   0  0  0  0  0  0  0  0  0  0  0  0  # atno 1470 bound_to 1416
  281.9721  320.4042  -77.5038 H   0  0  0  0  0  0  0  0  0  0  0  0  # atno 1471 bound_to 1416
  280.7170  321.4558  -77.7629 H   0  0  0  0  0  0  0  0  0  0  0  0  # atno 1472 bound_to 1416
  274.0244  323.3149  -79.3974 H   0  0  0  0  0  0  0  0  0  0  0  0  # atno 1524 bound_to 1493
  278.6049  310.1307  -78.9911 H   0  0  0  0  0  0  0  0  0  0  0  0  # atno 3989 bound_to 3946
  277.8192  309.6382  -77.0195 H   0  0  0  0  0  0  0  0  0  0  0  0  # atno 4071 bound_to 4017
  284.2663  313.0462  -75.3036 H   0  0  0  0  0  0  0  0  0  0  0  0  # atno 4211 bound_to 4184
  281.9108  311.0986  -74.6549 H   0  0  0  0  0  0  0  0  0  0  0  0  # atno 4251 bound_to 4223
  281.2993  308.6323  -72.8984 H   0  0  0  0  0  0  0  0  0  0  0  0  # atno 4255 bound_to 4228
  286.2855  312.5018  -71.2995 H   0  0  0  0  0  0  0  0  0  0  0  0  # atno 4400 bound_to 4354
  287.2550  312.3954  -69.9595 H   0  0  0  0  0  0  0  0  0  0  0  0  # atno 4401 bound_to 4354
  286.9255  313.8756  -70.6280 H   0  0  0  0  0  0  0  0  0  0  0  0  # atno 4402 bound_to 4354
  278.1172  312.0748  -72.7452 H   0  0  0  0  0  0  0  0  0  0  0  0  # atno 6590 bound_to 6548
  281.7373  321.4822  -67.2273 H   0  0  0  0  0  0  0  0  0  0  0  0  # atno 23683 bound_to 23650
  280.7405  322.7547  -69.1303 H   0  0  0  0  0  0  0  0  0  0  0  0  # atno 23751 bound_to 23739
  279.9339  324.6053  -68.8489 H   0  0  0  0  0  0  0  0  0  0  0  0  # atno 23779 bound_to 23767
  271.1313  317.2981  -76.6954 H   0  0  0  0  0  0  0  0  0  0  0  0  # atno 25689 bound_to 25666
  276.6164  323.6310  -76.8149 LP  0  0  0  0  0  0  0  0  0  0  0  0  # atno 27271 bound_to 1190
  276.2692  322.6274  -75.4466 LP  0  0  0  0  0  0  0  0  0  0  0  0  # atno 27272 bound_to 1190
  276.0313  323.9709  -79.2890 LP  0  0  0  0  0  0  0  0  0  0  0  0  # atno 27273 bound_to 1408
  274.7305  319.6445  -79.4080 LP  0  0  0  0  0  0  0  0  0  0  0  0  # atno 27274 bound_to 1411
  273.3918  320.0752  -78.3969 LP  0  0  0  0  0  0  0  0  0  0  0  0  # atno 27275 bound_to 1411
  274.3497  321.9425  -78.3738 LP  0  0  0  0  0  0  0  0  0  0  0  0  # atno 27276 bound_to 1493
  277.1123  311.0775  -80.1420 LP  0  0  0  0  0  0  0  0  0  0  0  0  # atno 27277 bound_to 3685
  276.7611  312.7607  -80.3504 LP  0  0  0  0  0  0  0  0  0  0  0  0  # atno 27278 bound_to 3685
  279.2723  311.5414  -79.7666 LP  0  0  0  0  0  0  0  0  0  0  0  0  # atno 27283 bound_to 3946
  281.0118  311.4136  -75.7735 LP  0  0  0  0  0  0  0  0  0  0  0  0  # atno 27284 bound_to 3949
  279.8879  310.7067  -74.6612 LP  0  0  0  0  0  0  0  0  0  0  0  0  # atno 27285 bound_to 3949
  276.6033  312.2994  -73.2994 LP  0  0  0  0  0  0  0  0  0  0  0  0  # atno 27286 bound_to 6548
  277.6963  311.4932  -74.2060 LP  0  0  0  0  0  0  0  0  0  0  0  0  # atno 27287 bound_to 6548
  281.1637  320.8687  -71.7924 LP  0  0  0  0  0  0  0  0  0  0  0  0  # atno 27289 bound_to 23653
  280.1983  322.3047  -71.7156 LP  0  0  0  0  0  0  0  0  0  0  0  0  # atno 27290 bound_to 23653
  270.2537  317.5635  -75.2108 LP  0  0  0  0  0  0  0  0  0  0  0  0  # atno 27291 bound_to 25666
  272.6081  315.8400  -75.8099 LP  0  0  0  0  0  0  0  0  0  0  0  0  # atno 27292 bound_to 25669
  272.9479  314.1529  -76.0059 LP  0  0  0  0  0  0  0  0  0  0  0  0  # atno 27293 bound_to 25669
  280.1170  325.8090  -76.7243 LP  0  0  0  0  0  0  0  0  0  0  0  0  # atno 27295 bound_to 1133
  278.4335  325.5689  -76.3953 LP  0  0  0  0  0  0  0  0  0  0  0  0  # atno 27296 bound_to 1133
  279.1571  325.6148  -72.9488 LP  0  0  0  0  0  0  0  0  0  0  0  0  # atno 27297 bound_to 1187
  276.8665  324.6913  -75.0899 LP  0  0  0  0  0  0  0  0  0  0  0  0  # atno 27298 bound_to 1265
  277.2199  326.4502  -77.2683 LP  0  0  0  0  0  0  0  0  0  0  0  0  # atno 27299 bound_to 1331
  275.8540  324.3388  -81.4212 LP  0  0  0  0  0  0  0  0  0  0  0  0  # atno 27300 bound_to 1334
  277.1722  323.2267  -81.2607 LP  0  0  0  0  0  0  0  0  0  0  0  0  # atno 27301 bound_to 1334
  283.4632  314.1086  -76.2388 LP  0  0  0  0  0  0  0  0  0  0  0  0  # atno 27302 bound_to 4184
  284.8458  313.4258  -76.7762 LP  0  0  0  0  0  0  0  0  0  0  0  0  # atno 27303 bound_to 4184
  279.4853  310.1442  -76.9288 LP  0  0  0  0  0  0  0  0  0  0  0  0  # atno 27304 bound_to 4017
  283.3826  310.1667  -74.5291 LP  0  0  0  0  0  0  0  0  0  0  0  0  # atno 27305 bound_to 4223
  270.9175  315.0755  -70.5458 LP  0  0  0  0  0  0  0  0  0  0  0  0  # atno 27306 bound_to 6778
  271.0960  315.1218  -68.8236 LP  0  0  0  0  0  0  0  0  0  0  0  0  # atno 27307 bound_to 6778
  283.3694  318.7488  -68.7478 LP  0  0  0  0  0  0  0  0  0  0  0  0  # atno 27308 bound_to 23601
  284.7703  319.7638  -68.8318 LP  0  0  0  0  0  0  0  0  0  0  0  0  # atno 27309 bound_to 23601
  283.1707  320.7833  -67.9446 LP  0  0  0  0  0  0  0  0  0  0  0  0  # atno 27310 bound_to 23650
  282.4001  322.6474  -69.6631 LP  0  0  0  0  0  0  0  0  0  0  0  0  # atno 27311 bound_to 23739
  285.1208  312.0588  -73.9135 LP  0  0  0  0  0  0  0  0  0  0  0  0  # atno 27312 bound_to 4182
  285.3888  310.3526  -73.7837 LP  0  0  0  0  0  0  0  0  0  0  0  0  # atno 27313 bound_to 4182
  279.8241  308.9479  -72.2881 LP  0  0  0  0  0  0  0  0  0  0  0  0  # atno 27314 bound_to 4228
  281.0881  308.6933  -71.2860 LP  0  0  0  0  0  0  0  0  0  0  0  0  # atno 27315 bound_to 4228
  277.3631  322.8300  -67.2596 LP  0  0  0  0  0  0  0  0  0  0  0  0  # atno 27316 bound_to 23770
  277.2110  322.3523  -68.9176 LP  0  0  0  0  0  0  0  0  0  0  0  0  # atno 27317 bound_to 23770

> <Gold.Score>
     Fitness  S(hb_ext) S(vdw_ext)  S(hb_int)    S(int)      intcor
     34.34       2.25      24.96       0.00      -2.23      -0.76

> <Gold.Goldscore.Fitness>
34.3387

> <Gold.Goldscore.Internal.Vdw>
-2.5790

> <Gold.Goldscore.Internal.Torsion>
-0.4045

> <Gold.Goldscore.External.Vdw>
24.9584

> <Gold.Goldscore.Internal.HBond>
0.0000

> <Gold.Goldscore.External.HBond>
2.2479

> <Gold.Goldscore.Internal.Correction>
-0.7564

> <Gold.Goldscore.Hbonds>
donor molecule, donor type, donor heavy atom, donor atom, acceptor molecule, acceptor atom, score
      P1  H  3953  3995       L1    17  0.12
      P1  H  7079  7108       L1    17  1.00

> <Gold.Goldscore.Internal.Vdw.Weighted>
-2.5790

> <Gold.Goldscore.Internal.Torsion.Weighted>
-0.4045

> <Gold.Goldscore.External.Vdw.Weighted>
34.3179

> <Gold.Goldscore.Internal.HBond.Weighted>
0.0000

> <Gold.Goldscore.External.HBond.Weighted>
2.2479

> <Gold.Goldscore.Internal.Correction.Weighted>
-0.7564

> <Gold.Rescore>
     Score     S(PLP)   S(hbond)     S(cho)   S(metal)  DE(clash)   DE(tors)     intcor
     29.82     -29.04       0.91       0.00       0.00       1.05       0.45       ----

> <Gold.PLP.Fitness>
29.8201

> <Gold.PLP.PLP>
-29.0357

> <Gold.PLP.part.hbond>
-2.4544

> <Gold.PLP.part.metal>
0.0000

> <Gold.PLP.part.buried>
0.3008

> <Gold.PLP.part.nonpolar>
-29.9562

> <Gold.PLP.part.repulsive>
1.6999

> <Gold.PLP.ligand.clash>
1.0462

> <Gold.PLP.ligand.torsion>
0.4502

> <Gold.PLP.Chemscore.Hbond>
0.9103

> <Gold.PLP.Chemscore.CHOScore>
0.0000

> <Gold.PLP.Chemscore.Metal>
0.0000

> <Gold.Chemscore.Hbonds>
donor molecule, donor type, donor heavy atom, donor atom, acceptor molecule, acceptor atom, score
      P1  H  3953  3995       L1    17  0.42
      P1  H  7079  7108       L1    17  0.88

> <Gold.PLP.Chemscore.Internal.Correction>
   9.000000E+99

