#       Name:                CT1002167954
#       Creating user name   hitesit
#       Creation time:       Sun Apr 16 02:29:32 2023


#       File generated by GOLD software.
#

@<TRIPOS>MOLECULE
CT1002167954|ligand_prepared|mol2|1|dock7
    29    30     1
SMALL
NO_CHARGES


@<TRIPOS>ATOM
      1 C1         279.5688 315.1831 -74.4387 C.3            1 RES1               0.0000
      2 C2         279.3923 315.4302 -75.9509 C.ar           1 RES1               0.0000
      3 C3         280.0757 313.7511 -74.2949 C.2            1 RES1               0.0000
      4 C4         280.5480 316.2422 -73.9448 C.2            1 RES1               0.0000
      5 C5         278.2610 315.3252 -73.6256 C.3            1 RES1               0.0000
      6 C6         280.4036 315.0954 -76.8464 C.ar           1 RES1               0.0000
      7 C7         278.2250 315.9887 -76.4647 C.ar           1 RES1               0.0000
      8 N8         281.3872 313.5753 -73.9650 N.am           1 RES1               0.0000
      9 O9         279.3457 312.7906 -74.5064 O.2            1 RES1               0.0000
     10 N10        281.7688 315.8233 -73.4846 N.am           1 RES1               0.0000
     11 O11        280.2797 317.4372 -73.9655 O.2            1 RES1               0.0000
     12 C12        278.4049 314.9422 -72.1612 C.3            1 RES1               0.0000
     13 C13        280.2524 315.3084 -78.2065 C.ar           1 RES1               0.0000
     14 C14        278.0759 316.2011 -77.8253 C.ar           1 RES1               0.0000
     15 C15        282.2445 314.5404 -73.5010 C.2            1 RES1               0.0000
     16 C16        279.0884 315.8609 -78.6969 C.ar           1 RES1               0.0000
     17 O17        283.3747 314.2496 -73.1201 O.2            1 RES1               0.0000
     18 H18        277.9187 316.3657 -73.6865 H              1 RES1               0.0000
     19 H19        277.4907 314.6916 -74.0823 H              1 RES1               0.0000
     20 H20        281.3277 314.6618 -76.4787 H              1 RES1               0.0000
     21 H21        277.4156 316.2650 -75.7976 H              1 RES1               0.0000
     22 H22        281.7656 312.6397 -74.0733 H              1 RES1               0.0000
     23 H23        282.3795 316.5335 -73.0935 H              1 RES1               0.0000
     24 H24        277.4589 315.0601 -71.6369 H              1 RES1               0.0000
     25 H25        278.7199 313.9054 -72.0628 H              1 RES1               0.0000
     26 H26        279.1454 315.5696 -71.6694 H              1 RES1               0.0000
     27 H27        281.0528 315.0402 -78.8882 H              1 RES1               0.0000
     28 H28        277.1583 316.6367 -78.2068 H              1 RES1               0.0000
     29 H29        278.9700 316.0273 -79.7625 H              1 RES1               0.0000
@<TRIPOS>BOND
    1    1    2 1     
    2    1    3 1     
    3    1    4 1     
    4    1    5 1     
    5    2    6 ar    
    6    2    7 ar    
    7    3    8 1     
    8    3    9 2     
    9    4   10 1     
   10    4   11 2     
   11    5   12 1     
   12    5   18 1     
   13    5   19 1     
   14    6   13 ar    
   15    6   20 1     
   16    7   14 ar    
   17    7   21 1     
   18    8   15 1     
   19    8   22 1     
   20   10   15 1     
   21   10   23 1     
   22   12   24 1     
   23   12   25 1     
   24   12   26 1     
   25   13   16 ar    
   26   13   27 1     
   27   14   16 ar    
   28   14   28 1     
   29   15   17 2     
   30   16   29 1     
@<TRIPOS>SUBSTRUCTURE
      1 RES1           1
@<TRIPOS>SET
DONOR_HYDROGENS      STATIC     ATOMS    <user>   **** ""
2 22 23
ATOM$RED        STATIC     ATOMS    COLORGROUP SYSTEM
2 22 23
@<TRIPOS>COMMENT
> <Gold.Version>
2022.3.0

> <Gold.Id.Protein>
unknown|7ts3_clean|pdb

> <Gold.Protein.RotatedTorsions>
[ 1460 1408 1409 1410 ] final  -65.90 input   75.91 | X-H torsion
[ 1470 1416 1415 1414 ] final -151.11 input   60.00 | X-H torsion
[ 1524 1493 1494 1495 ] final -108.75 input   90.66 | X-H torsion
[ 3989 3946 3947 3948 ] final  -76.82 input  107.58 | X-H torsion
[ 6590 6548 6547 6545 ] final -171.30 input   60.02 | X-H torsion
[ 25689 25666 25667 25668 ] final   94.80 input   59.86 | X-H torsion
[ 1233 1187 1188 1189 ] final   59.92 input  121.09 | X-H torsion
[ 1309 1265 1266 1267 ] final  -55.11 input  118.31 | X-H torsion
[ 1377 1331 1332 1333 ] final -169.27 input  114.28 | X-H torsion
[ 4211 4184 4183 4180 ] final  137.96 input   59.99 | X-H torsion
[ 4071 4017 4018 4019 ] final -168.95 input  119.49 | X-H torsion
[ 4251 4223 4224 4225 ] final   21.98 input  117.97 | X-H torsion
[ 23683 23650 23651 23652 ] final  107.18 input   58.12 | X-H torsion
[ 23751 23739 23740 23741 ] final   65.34 input  -88.68 | X-H torsion
[ 4255 4228 4227 4224 ] final  -40.35 input   59.96 | X-H torsion
[ 23779 23767 23768 23769 ] final  -89.13 input  -24.14 | X-H torsion
[ 4400 4354 4353 4352 ] final   38.71 input   60.02 | X-H torsion
[ 27271 1190 1189 1188 ] final   -6.42 input   -0.00 | X-H torsion
[ 27274 1411 1410 1409 ] final   20.91 input   -0.00 | X-H torsion
[ 27277 3685 3684 3683 ] final -166.92 input    0.00 | X-H torsion
[ 27284 3949 3948 3947 ] final -168.75 input   -0.00 | X-H torsion
[ 27289 23653 23652 23651 ] final   91.54 input   -0.00 | X-H torsion
[ 27292 25669 25668 25667 ] final -142.17 input    0.00 | X-H torsion
[ 27295 1133 1132 1131 ] final  -41.57 input    0.00 | X-H torsion
[ 27300 1334 1333 1332 ] final -159.39 input   -0.00 | X-H torsion
[ 27306 6778 6777 6776 ] final -111.24 input    0.00 | X-H torsion
[ 27308 23601 23600 23599 ] final   86.70 input   -0.00 | X-H torsion
[ 27312 4182 4181 4180 ] final  -87.94 input   -0.00 | X-H torsion
[ 27316 23770 23769 23768 ] final  -32.82 input   -0.00 | X-H torsion

> <Gold.Protein.ActiveResidues>
 THR320  LEU321  HIS322  LEU323  LYS324  SER325  GLU365  PHE366  GLN369  TYR370 
 SER372  SER373  LYS375  TYR408  HIS412  ARG415  ASN416  TRP426  CYS673  ARG674 
 GLY675  GLY676  TYR703  LEU705  THR706  PRO707 

> <Gold.Protein.RotatedAtoms>
  278.5196  326.1214  -73.4581 H   0  0  0  0  0  0  0  0  0  0  0  0  # atno 1233 bound_to 1187
  276.9044  324.6989  -75.1644 H   0  0  0  0  0  0  0  0  0  0  0  0  # atno 1309 bound_to 1265
  276.7405  326.7099  -77.4043 H   0  0  0  0  0  0  0  0  0  0  0  0  # atno 1377 bound_to 1331
  275.9887  323.9708  -79.2902 H   0  0  0  0  0  0  0  0  0  0  0  0  # atno 1460 bound_to 1408
  281.9122  320.2299  -77.1145 H   0  0  0  0  0  0  0  0  0  0  0  0  # atno 1470 bound_to 1416
  281.0592  321.3408  -77.9995 H   0  0  0  0  0  0  0  0  0  0  0  0  # atno 1471 bound_to 1416
  280.5216  320.8887  -76.4978 H   0  0  0  0  0  0  0  0  0  0  0  0  # atno 1472 bound_to 1416
  274.3826  321.8127  -78.6279 H   0  0  0  0  0  0  0  0  0  0  0  0  # atno 1524 bound_to 1493
  279.8027  310.7045  -79.4270 H   0  0  0  0  0  0  0  0  0  0  0  0  # atno 3989 bound_to 3946
  277.8596  310.0163  -76.6312 H   0  0  0  0  0  0  0  0  0  0  0  0  # atno 4071 bound_to 4017
  284.2357  313.9388  -76.9435 H   0  0  0  0  0  0  0  0  0  0  0  0  # atno 4211 bound_to 4184
  282.9596  309.8025  -74.5409 H   0  0  0  0  0  0  0  0  0  0  0  0  # atno 4251 bound_to 4223
  281.2158  308.6492  -72.9574 H   0  0  0  0  0  0  0  0  0  0  0  0  # atno 4255 bound_to 4228
  286.8341  311.9802  -70.4728 H   0  0  0  0  0  0  0  0  0  0  0  0  # atno 4400 bound_to 4354
  287.3085  313.5111  -70.0507 H   0  0  0  0  0  0  0  0  0  0  0  0  # atno 4401 bound_to 4354
  286.3234  313.2816  -71.3635 H   0  0  0  0  0  0  0  0  0  0  0  0  # atno 4402 bound_to 4354
  276.7168  311.9293  -73.9668 H   0  0  0  0  0  0  0  0  0  0  0  0  # atno 6590 bound_to 6548
  281.7208  321.0855  -67.1094 H   0  0  0  0  0  0  0  0  0  0  0  0  # atno 23683 bound_to 23650
  280.9648  322.2578  -69.8520 H   0  0  0  0  0  0  0  0  0  0  0  0  # atno 23751 bound_to 23739
  279.8771  324.4687  -68.7680 H   0  0  0  0  0  0  0  0  0  0  0  0  # atno 23779 bound_to 23767
  270.8876  317.3909  -76.8028 H   0  0  0  0  0  0  0  0  0  0  0  0  # atno 25689 bound_to 25666
  277.1082  322.6285  -75.8930 LP  0  0  0  0  0  0  0  0  0  0  0  0  # atno 27271 bound_to 1190
  275.7774  323.6299  -76.3686 LP  0  0  0  0  0  0  0  0  0  0  0  0  # atno 27272 bound_to 1190
  276.9180  323.4163  -77.9169 LP  0  0  0  0  0  0  0  0  0  0  0  0  # atno 27273 bound_to 1408
  274.8600  319.6213  -78.6680 LP  0  0  0  0  0  0  0  0  0  0  0  0  # atno 27274 bound_to 1411
  273.2623  320.0984  -79.1369 LP  0  0  0  0  0  0  0  0  0  0  0  0  # atno 27275 bound_to 1411
  273.9942  323.4334  -79.1374 LP  0  0  0  0  0  0  0  0  0  0  0  0  # atno 27276 bound_to 1493
  276.7243  311.2709  -79.7126 LP  0  0  0  0  0  0  0  0  0  0  0  0  # atno 27277 bound_to 3685
  277.1491  312.5673  -80.7798 LP  0  0  0  0  0  0  0  0  0  0  0  0  # atno 27278 bound_to 3685
  278.0832  310.9717  -79.3338 LP  0  0  0  0  0  0  0  0  0  0  0  0  # atno 27283 bound_to 3946
  280.4155  310.2328  -74.9639 LP  0  0  0  0  0  0  0  0  0  0  0  0  # atno 27284 bound_to 3949
  280.4842  311.8875  -75.4709 LP  0  0  0  0  0  0  0  0  0  0  0  0  # atno 27285 bound_to 3949
  278.2778  311.5536  -73.6988 LP  0  0  0  0  0  0  0  0  0  0  0  0  # atno 27286 bound_to 6548
  277.4312  312.3854  -72.5772 LP  0  0  0  0  0  0  0  0  0  0  0  0  # atno 27287 bound_to 6548
  279.8628  321.6903  -71.4898 LP  0  0  0  0  0  0  0  0  0  0  0  0  # atno 27289 bound_to 23653
  281.4992  321.4830  -72.0181 LP  0  0  0  0  0  0  0  0  0  0  0  0  # atno 27290 bound_to 23653
  270.4939  317.4720  -75.1049 LP  0  0  0  0  0  0  0  0  0  0  0  0  # atno 27291 bound_to 25666
  272.9310  314.1618  -76.0808 LP  0  0  0  0  0  0  0  0  0  0  0  0  # atno 27292 bound_to 25669
  272.6250  315.8312  -75.7350 LP  0  0  0  0  0  0  0  0  0  0  0  0  # atno 27293 bound_to 25669
  279.2248  326.5402  -76.7112 LP  0  0  0  0  0  0  0  0  0  0  0  0  # atno 27295 bound_to 1133
  279.3257  324.8377  -76.4084 LP  0  0  0  0  0  0  0  0  0  0  0  0  # atno 27296 bound_to 1133
  279.9383  325.3483  -74.1290 LP  0  0  0  0  0  0  0  0  0  0  0  0  # atno 27297 bound_to 1187
  276.8529  326.2763  -74.4123 LP  0  0  0  0  0  0  0  0  0  0  0  0  # atno 27298 bound_to 1265
  276.4730  324.9980  -77.1779 LP  0  0  0  0  0  0  0  0  0  0  0  0  # atno 27299 bound_to 1331
  276.0230  323.0891  -81.1713 LP  0  0  0  0  0  0  0  0  0  0  0  0  # atno 27300 bound_to 1334
  277.0031  324.4763  -81.5106 LP  0  0  0  0  0  0  0  0  0  0  0  0  # atno 27301 bound_to 1334
  284.8632  312.9177  -75.8426 LP  0  0  0  0  0  0  0  0  0  0  0  0  # atno 27302 bound_to 4184
  283.4766  313.7180  -75.5210 LP  0  0  0  0  0  0  0  0  0  0  0  0  # atno 27303 bound_to 4184
  279.4452  309.7696  -77.3134 LP  0  0  0  0  0  0  0  0  0  0  0  0  # atno 27304 bound_to 4017
  282.3541  311.4377  -74.6409 LP  0  0  0  0  0  0  0  0  0  0  0  0  # atno 27305 bound_to 4223
  270.4985  315.0764  -68.9839 LP  0  0  0  0  0  0  0  0  0  0  0  0  # atno 27306 bound_to 6778
  271.5150  315.1209  -70.3856 LP  0  0  0  0  0  0  0  0  0  0  0  0  # atno 27307 bound_to 6778
  283.6458  318.6032  -68.4109 LP  0  0  0  0  0  0  0  0  0  0  0  0  # atno 27308 bound_to 23601
  284.4939  319.9095  -69.1687 LP  0  0  0  0  0  0  0  0  0  0  0  0  # atno 27309 bound_to 23601
  283.1867  321.1690  -68.0592 LP  0  0  0  0  0  0  0  0  0  0  0  0  # atno 27310 bound_to 23650
  282.1802  323.1346  -68.9555 LP  0  0  0  0  0  0  0  0  0  0  0  0  # atno 27311 bound_to 23739
  285.4369  310.3592  -73.8680 LP  0  0  0  0  0  0  0  0  0  0  0  0  # atno 27312 bound_to 4182
  285.0727  312.0521  -73.8293 LP  0  0  0  0  0  0  0  0  0  0  0  0  # atno 27313 bound_to 4182
  279.8160  308.9508  -72.1841 LP  0  0  0  0  0  0  0  0  0  0  0  0  # atno 27314 bound_to 4228
  281.1802  308.6734  -71.3306 LP  0  0  0  0  0  0  0  0  0  0  0  0  # atno 27315 bound_to 4228
  277.8068  322.5310  -68.7787 LP  0  0  0  0  0  0  0  0  0  0  0  0  # atno 27316 bound_to 23770
  276.7673  322.6512  -67.3985 LP  0  0  0  0  0  0  0  0  0  0  0  0  # atno 27317 bound_to 23770

> <Gold.Score>
     Fitness  S(hb_ext) S(vdw_ext)  S(hb_int)    S(int)      intcor
     36.19       3.95      23.52       0.00      -0.10      -0.76

> <Gold.Goldscore.Fitness>
36.1922

> <Gold.Goldscore.Internal.Vdw>
-0.4269

> <Gold.Goldscore.Internal.Torsion>
-0.4263

> <Gold.Goldscore.External.Vdw>
23.5192

> <Gold.Goldscore.Internal.HBond>
0.0000

> <Gold.Goldscore.External.HBond>
3.9501

> <Gold.Goldscore.Internal.Correction>
-0.7564

> <Gold.Goldscore.Hbonds>
donor molecule, donor type, donor heavy atom, donor atom, acceptor molecule, acceptor atom, score
      L1  H     8    22       P1  4223  0.66

> <Gold.Goldscore.Internal.Vdw.Weighted>
-0.4269

> <Gold.Goldscore.Internal.Torsion.Weighted>
-0.4263

> <Gold.Goldscore.External.Vdw.Weighted>
32.3389

> <Gold.Goldscore.Internal.HBond.Weighted>
0.0000

> <Gold.Goldscore.External.HBond.Weighted>
3.9501

> <Gold.Goldscore.Internal.Correction.Weighted>
-0.7564

> <Gold.Rescore>
     Score     S(PLP)   S(hbond)     S(cho)   S(metal)  DE(clash)   DE(tors)     intcor
     30.78     -31.71       0.00       0.00       0.00       0.00       0.46       ----

> <Gold.PLP.Fitness>
30.7839

> <Gold.PLP.PLP>
-31.7102

> <Gold.PLP.part.hbond>
-1.5147

> <Gold.PLP.part.metal>
0.0000

> <Gold.PLP.part.buried>
-6.1492

> <Gold.PLP.part.nonpolar>
-24.5904

> <Gold.PLP.part.repulsive>
0.8408

> <Gold.PLP.ligand.clash>
0.0000

> <Gold.PLP.ligand.torsion>
0.4631

> <Gold.PLP.Chemscore.Hbond>
0.0000

> <Gold.PLP.Chemscore.CHOScore>
0.0000

> <Gold.PLP.Chemscore.Metal>
0.0000

> <Gold.Chemscore.Hbonds>
donor molecule, donor type, donor heavy atom, donor atom, acceptor molecule, acceptor atom, score
      L1  H     8    22       P1  4223  0.25

> <Gold.PLP.Chemscore.Internal.Correction>
   9.000000E+99

