#       Name:                CT1002167954
#       Creating user name   hitesit
#       Creation time:       Sun Apr 16 02:29:30 2023


#       File generated by GOLD software.
#

@<TRIPOS>MOLECULE
CT1002167954|ligand_prepared|mol2|1|dock3
    29    30     1
SMALL
NO_CHARGES


@<TRIPOS>ATOM
      1 C1         278.8926 315.2558 -73.7561 C.3            1 RES1               0.0000
      2 C2         277.9352 315.8578 -74.8047 C.ar           1 RES1               0.0000
      3 C3         279.9308 314.4531 -74.5346 C.2            1 RES1               0.0000
      4 C4         279.4710 316.4340 -72.9802 C.2            1 RES1               0.0000
      5 C5         278.1992 314.3125 -72.7456 C.3            1 RES1               0.0000
      6 C6         276.5699 315.9454 -74.5501 C.ar           1 RES1               0.0000
      7 C7         278.4020 316.3312 -76.0281 C.ar           1 RES1               0.0000
      8 N8         281.1852 314.9776 -74.6409 N.am           1 RES1               0.0000
      9 O9         279.6427 313.3951 -75.0804 O.2            1 RES1               0.0000
     10 N10        280.8137 316.6820 -73.0960 N.am           1 RES1               0.0000
     11 O11        278.7731 317.1599 -72.2829 O.2            1 RES1               0.0000
     12 C12        279.1667 313.4644 -71.9351 C.3            1 RES1               0.0000
     13 C13        275.7029 316.4894 -75.4832 C.ar           1 RES1               0.0000
     14 C14        277.5333 316.8746 -76.9600 C.ar           1 RES1               0.0000
     15 C15        281.6915 316.0259 -73.9153 C.2            1 RES1               0.0000
     16 C16        276.1840 316.9547 -76.6885 C.ar           1 RES1               0.0000
     17 O17        282.8742 316.3424 -74.0055 O.2            1 RES1               0.0000
     18 H18        277.5957 314.9158 -72.0563 H              1 RES1               0.0000
     19 H19        277.5194 313.6475 -73.2924 H              1 RES1               0.0000
     20 H20        276.1726 315.5822 -73.6081 H              1 RES1               0.0000
     21 H21        279.4595 316.2774 -76.2637 H              1 RES1               0.0000
     22 H22        281.8041 314.5510 -75.3230 H              1 RES1               0.0000
     23 H23        281.1941 317.4245 -72.5177 H              1 RES1               0.0000
     24 H24        278.6284 312.8212 -71.2420 H              1 RES1               0.0000
     25 H25        279.7660 312.8329 -72.5876 H              1 RES1               0.0000
     26 H26        279.8418 314.0937 -71.3588 H              1 RES1               0.0000
     27 H27        274.6417 316.5489 -75.2653 H              1 RES1               0.0000
     28 H28        277.9162 317.2390 -77.9075 H              1 RES1               0.0000
     29 H29        275.5047 317.3812 -77.4192 H              1 RES1               0.0000
@<TRIPOS>BOND
    1    1    2 1     
    2    1    3 1     
    3    1    4 1     
    4    1    5 1     
    5    2    6 ar    
    6    2    7 ar    
    7    3    8 1     
    8    3    9 2     
    9    4   10 1     
   10    4   11 2     
   11    5   12 1     
   12    5   18 1     
   13    5   19 1     
   14    6   13 ar    
   15    6   20 1     
   16    7   14 ar    
   17    7   21 1     
   18    8   15 1     
   19    8   22 1     
   20   10   15 1     
   21   10   23 1     
   22   12   24 1     
   23   12   25 1     
   24   12   26 1     
   25   13   16 ar    
   26   13   27 1     
   27   14   16 ar    
   28   14   28 1     
   29   15   17 2     
   30   16   29 1     
@<TRIPOS>SUBSTRUCTURE
      1 RES1           1
@<TRIPOS>SET
DONOR_HYDROGENS      STATIC     ATOMS    <user>   **** ""
2 22 23
ATOM$RED        STATIC     ATOMS    COLORGROUP SYSTEM
2 22 23
@<TRIPOS>COMMENT
> <Gold.Version>
2022.3.0

> <Gold.Id.Protein>
unknown|7ts3_clean|pdb

> <Gold.Protein.RotatedTorsions>
[ 1460 1408 1409 1410 ] final -133.93 input   75.91 | X-H torsion
[ 1470 1416 1415 1414 ] final  170.26 input   60.00 | X-H torsion
[ 1524 1493 1494 1495 ] final   82.98 input   90.66 | X-H torsion
[ 3989 3946 3947 3948 ] final  123.29 input  107.58 | X-H torsion
[ 6590 6548 6547 6545 ] final  110.99 input   60.02 | X-H torsion
[ 25689 25666 25667 25668 ] final -121.15 input   59.86 | X-H torsion
[ 1233 1187 1188 1189 ] final   51.84 input  121.09 | X-H torsion
[ 1309 1265 1266 1267 ] final  -43.77 input  118.31 | X-H torsion
[ 1377 1331 1332 1333 ] final -154.62 input  114.28 | X-H torsion
[ 4211 4184 4183 4180 ] final   70.21 input   59.99 | X-H torsion
[ 4071 4017 4018 4019 ] final   26.72 input  119.49 | X-H torsion
[ 4251 4223 4224 4225 ] final -159.92 input  117.97 | X-H torsion
[ 23683 23650 23651 23652 ] final -120.50 input   58.12 | X-H torsion
[ 23751 23739 23740 23741 ] final   46.01 input  -88.68 | X-H torsion
[ 4255 4228 4227 4224 ] final  -53.57 input   59.96 | X-H torsion
[ 23779 23767 23768 23769 ] final   48.83 input  -24.14 | X-H torsion
[ 4400 4354 4353 4352 ] final  -87.84 input   60.02 | X-H torsion
[ 27271 1190 1189 1188 ] final -123.92 input   -0.00 | X-H torsion
[ 27274 1411 1410 1409 ] final -145.93 input   -0.00 | X-H torsion
[ 27277 3685 3684 3683 ] final  -72.08 input    0.00 | X-H torsion
[ 27284 3949 3948 3947 ] final  145.79 input   -0.00 | X-H torsion
[ 27289 23653 23652 23651 ] final   -0.32 input   -0.00 | X-H torsion
[ 27292 25669 25668 25667 ] final -124.22 input    0.00 | X-H torsion
[ 27295 1133 1132 1131 ] final   -6.38 input    0.00 | X-H torsion
[ 27300 1334 1333 1332 ] final   53.92 input   -0.00 | X-H torsion
[ 27306 6778 6777 6776 ] final   57.23 input    0.00 | X-H torsion
[ 27308 23601 23600 23599 ] final  114.78 input   -0.00 | X-H torsion
[ 27312 4182 4181 4180 ] final -128.71 input   -0.00 | X-H torsion
[ 27316 23770 23769 23768 ] final  151.02 input   -0.00 | X-H torsion

> <Gold.Protein.ActiveResidues>
 THR320  LEU321  HIS322  LEU323  LYS324  SER325  GLU365  PHE366  GLN369  TYR370 
 SER372  SER373  LYS375  TYR408  HIS412  ARG415  ASN416  TRP426  CYS673  ARG674 
 GLY675  GLY676  TYR703  LEU705  THR706  PRO707 

> <Gold.Protein.RotatedAtoms>
  278.4968  326.1609  -73.5746 H   0  0  0  0  0  0  0  0  0  0  0  0  # atno 1233 bound_to 1187
  277.0020  324.7789  -75.2855 H   0  0  0  0  0  0  0  0  0  0  0  0  # atno 1309 bound_to 1265
  276.5189  326.7097  -77.4456 H   0  0  0  0  0  0  0  0  0  0  0  0  # atno 1377 bound_to 1331
  276.9572  323.7640  -79.3234 H   0  0  0  0  0  0  0  0  0  0  0  0  # atno 1460 bound_to 1408
  281.5551  320.1959  -76.5932 H   0  0  0  0  0  0  0  0  0  0  0  0  # atno 1470 bound_to 1416
  281.5831  320.9893  -78.0474 H   0  0  0  0  0  0  0  0  0  0  0  0  # atno 1471 bound_to 1416
  280.3544  321.2745  -76.9714 H   0  0  0  0  0  0  0  0  0  0  0  0  # atno 1472 bound_to 1416
  274.0110  323.4789  -78.9651 H   0  0  0  0  0  0  0  0  0  0  0  0  # atno 1524 bound_to 1493
  278.1612  311.2211  -79.4907 H   0  0  0  0  0  0  0  0  0  0  0  0  # atno 3989 bound_to 3946
  279.3315  309.6219  -77.4618 H   0  0  0  0  0  0  0  0  0  0  0  0  # atno 4071 bound_to 4017
  284.9439  313.2566  -76.5931 H   0  0  0  0  0  0  0  0  0  0  0  0  # atno 4211 bound_to 4184
  282.3211  311.4430  -74.6441 H   0  0  0  0  0  0  0  0  0  0  0  0  # atno 4251 bound_to 4223
  281.0243  308.6885  -73.0482 H   0  0  0  0  0  0  0  0  0  0  0  0  # atno 4255 bound_to 4228
  286.3573  313.3799  -71.3306 H   0  0  0  0  0  0  0  0  0  0  0  0  # atno 4400 bound_to 4354
  286.7695  311.9713  -70.5607 H   0  0  0  0  0  0  0  0  0  0  0  0  # atno 4401 bound_to 4354
  287.3391  313.4215  -69.9957 H   0  0  0  0  0  0  0  0  0  0  0  0  # atno 4402 bound_to 4354
  277.7868  311.4830  -74.1609 H   0  0  0  0  0  0  0  0  0  0  0  0  # atno 6590 bound_to 6548
  283.0628  320.5152  -67.8194 H   0  0  0  0  0  0  0  0  0  0  0  0  # atno 23683 bound_to 23650
  280.7937  322.3820  -69.6447 H   0  0  0  0  0  0  0  0  0  0  0  0  # atno 23751 bound_to 23739
  279.1346  323.5525  -69.9175 H   0  0  0  0  0  0  0  0  0  0  0  0  # atno 23779 bound_to 23767
  270.0609  317.6478  -75.3728 H   0  0  0  0  0  0  0  0  0  0  0  0  # atno 25689 bound_to 25666
  276.5593  323.6530  -76.8106 LP  0  0  0  0  0  0  0  0  0  0  0  0  # atno 27271 bound_to 1190
  276.3263  322.6054  -75.4510 LP  0  0  0  0  0  0  0  0  0  0  0  0  # atno 27272 bound_to 1190
  275.9745  323.6178  -77.8846 LP  0  0  0  0  0  0  0  0  0  0  0  0  # atno 27273 bound_to 1408
  273.3332  320.0727  -79.3206 LP  0  0  0  0  0  0  0  0  0  0  0  0  # atno 27274 bound_to 1411
  274.7891  319.6470  -78.4844 LP  0  0  0  0  0  0  0  0  0  0  0  0  # atno 27275 bound_to 1411
  274.3630  321.7798  -78.8028 LP  0  0  0  0  0  0  0  0  0  0  0  0  # atno 27276 bound_to 1493
  277.4613  311.4384  -80.7400 LP  0  0  0  0  0  0  0  0  0  0  0  0  # atno 27277 bound_to 3685
  276.4122  312.3998  -79.7525 LP  0  0  0  0  0  0  0  0  0  0  0  0  # atno 27278 bound_to 3685
  279.7128  310.4588  -79.2706 LP  0  0  0  0  0  0  0  0  0  0  0  0  # atno 27283 bound_to 3946
  279.9419  310.6104  -74.6792 LP  0  0  0  0  0  0  0  0  0  0  0  0  # atno 27284 bound_to 3949
  280.9578  311.5099  -75.7556 LP  0  0  0  0  0  0  0  0  0  0  0  0  # atno 27285 bound_to 3949
  278.0503  312.1272  -72.6895 LP  0  0  0  0  0  0  0  0  0  0  0  0  # atno 27286 bound_to 6548
  276.5819  312.2610  -73.3912 LP  0  0  0  0  0  0  0  0  0  0  0  0  # atno 27287 bound_to 6548
  280.6551  320.7362  -71.5929 LP  0  0  0  0  0  0  0  0  0  0  0  0  # atno 27289 bound_to 23653
  280.7070  322.4372  -71.9150 LP  0  0  0  0  0  0  0  0  0  0  0  0  # atno 27290 bound_to 23653
  271.3087  317.2188  -76.5144 LP  0  0  0  0  0  0  0  0  0  0  0  0  # atno 27291 bound_to 25666
  272.8633  314.2445  -76.3289 LP  0  0  0  0  0  0  0  0  0  0  0  0  # atno 27292 bound_to 25669
  272.6927  315.7485  -75.4869 LP  0  0  0  0  0  0  0  0  0  0  0  0  # atno 27293 bound_to 25669
  279.7255  326.3985  -76.7690 LP  0  0  0  0  0  0  0  0  0  0  0  0  # atno 27295 bound_to 1133
  278.8250  324.9794  -76.3506 LP  0  0  0  0  0  0  0  0  0  0  0  0  # atno 27296 bound_to 1133
  279.9604  325.3100  -74.0159 LP  0  0  0  0  0  0  0  0  0  0  0  0  # atno 27297 bound_to 1187
  276.7579  326.1983  -74.2944 LP  0  0  0  0  0  0  0  0  0  0  0  0  # atno 27298 bound_to 1265
  276.6895  324.9982  -77.1375 LP  0  0  0  0  0  0  0  0  0  0  0  0  # atno 27299 bound_to 1331
  277.3139  324.0945  -81.4480 LP  0  0  0  0  0  0  0  0  0  0  0  0  # atno 27300 bound_to 1334
  275.7122  323.4709  -81.2339 LP  0  0  0  0  0  0  0  0  0  0  0  0  # atno 27301 bound_to 1334
  284.0399  313.1755  -75.2423 LP  0  0  0  0  0  0  0  0  0  0  0  0  # atno 27302 bound_to 4184
  283.5869  314.1471  -76.4742 LP  0  0  0  0  0  0  0  0  0  0  0  0  # atno 27303 bound_to 4184
  277.9872  310.1603  -76.4906 LP  0  0  0  0  0  0  0  0  0  0  0  0  # atno 27304 bound_to 4017
  282.9802  309.8289  -74.5397 LP  0  0  0  0  0  0  0  0  0  0  0  0  # atno 27305 bound_to 4223
  271.6443  315.1323  -70.2698 LP  0  0  0  0  0  0  0  0  0  0  0  0  # atno 27306 bound_to 6778
  270.3691  315.0650  -69.0996 LP  0  0  0  0  0  0  0  0  0  0  0  0  # atno 27307 bound_to 6778
  283.3864  318.7295  -68.7164 LP  0  0  0  0  0  0  0  0  0  0  0  0  # atno 27308 bound_to 23601
  284.7533  319.7832  -68.8632 LP  0  0  0  0  0  0  0  0  0  0  0  0  # atno 27309 bound_to 23601
  281.8819  321.7236  -67.3689 LP  0  0  0  0  0  0  0  0  0  0  0  0  # atno 27310 bound_to 23650
  282.3479  323.0129  -69.1588 LP  0  0  0  0  0  0  0  0  0  0  0  0  # atno 27311 bound_to 23739
  285.1192  310.4946  -73.3733 LP  0  0  0  0  0  0  0  0  0  0  0  0  # atno 27312 bound_to 4182
  285.3904  311.9168  -74.3239 LP  0  0  0  0  0  0  0  0  0  0  0  0  # atno 27313 bound_to 4182
  279.8354  308.9492  -71.9679 LP  0  0  0  0  0  0  0  0  0  0  0  0  # atno 27314 bound_to 4228
  281.3537  308.6354  -71.4554 LP  0  0  0  0  0  0  0  0  0  0  0  0  # atno 27315 bound_to 4228
  276.7240  322.6321  -67.4318 LP  0  0  0  0  0  0  0  0  0  0  0  0  # atno 27316 bound_to 23770
  277.8501  322.5502  -68.7453 LP  0  0  0  0  0  0  0  0  0  0  0  0  # atno 27317 bound_to 23770

> <Gold.Score>
     Fitness  S(hb_ext) S(vdw_ext)  S(hb_int)    S(int)      intcor
     37.09       6.54      22.74       0.00      -0.72      -0.78

> <Gold.Goldscore.Fitness>
37.0923

> <Gold.Goldscore.Internal.Vdw>
-0.8160

> <Gold.Goldscore.Internal.Torsion>
-0.6775

> <Gold.Goldscore.External.Vdw>
22.7417

> <Gold.Goldscore.Internal.HBond>
0.0000

> <Gold.Goldscore.External.HBond>
6.5390

> <Gold.Goldscore.Internal.Correction>
-0.7769

> <Gold.Goldscore.Hbonds>
donor molecule, donor type, donor heavy atom, donor atom, acceptor molecule, acceptor atom, score
      P1  H 23657 23691       L1    11  1.00
      L1  H     8    22       P1  4184  0.27

> <Gold.Goldscore.Internal.Vdw.Weighted>
-0.8160

> <Gold.Goldscore.Internal.Torsion.Weighted>
-0.6775

> <Gold.Goldscore.External.Vdw.Weighted>
31.2699

> <Gold.Goldscore.Internal.HBond.Weighted>
0.0000

> <Gold.Goldscore.External.HBond.Weighted>
6.5390

> <Gold.Goldscore.Internal.Correction.Weighted>
-0.7769

> <Gold.Rescore>
     Score     S(PLP)   S(hbond)     S(cho)   S(metal)  DE(clash)   DE(tors)     intcor
     28.97     -28.47       0.66       0.00       0.00       0.00       0.74       ----

> <Gold.PLP.Fitness>
28.9700

> <Gold.PLP.PLP>
-28.4735

> <Gold.PLP.part.hbond>
-1.0000

> <Gold.PLP.part.metal>
0.0000

> <Gold.PLP.part.buried>
-2.9535

> <Gold.PLP.part.nonpolar>
-25.3809

> <Gold.PLP.part.repulsive>
0.1849

> <Gold.PLP.ligand.clash>
0.0000

> <Gold.PLP.ligand.torsion>
0.7358

> <Gold.PLP.Chemscore.Hbond>
0.6560

> <Gold.PLP.Chemscore.CHOScore>
0.0000

> <Gold.PLP.Chemscore.Metal>
0.0000

> <Gold.Chemscore.Hbonds>
donor molecule, donor type, donor heavy atom, donor atom, acceptor molecule, acceptor atom, score
      P1  H 23657 23691       L1    11  1.00

> <Gold.PLP.Chemscore.Internal.Correction>
   9.000000E+99

