#       Name:                CT1002167954
#       Creating user name   hitesit
#       Creation time:       Sun Apr 16 20:27:17 2023


#       File generated by GOLD software.
#

@<TRIPOS>MOLECULE
CT1002167954|ligand_prepared|mol2|1|dock4
    29    30     1
SMALL
NO_CHARGES


@<TRIPOS>ATOM
      1 C1         226.6567  44.3051  13.4521 C.3            1 RES1               0.0000
      2 C2         227.0096  45.4424  14.4323 C.ar           1 RES1               0.0000
      3 C3         225.7771  43.3288  14.2275 C.2            1 RES1               0.0000
      4 C4         225.9596  44.9643  12.2670 C.2            1 RES1               0.0000
      5 C5         227.8877  43.5379  12.9159 C.3            1 RES1               0.0000
      6 C6         228.1512  45.3663  15.2245 C.ar           1 RES1               0.0000
      7 C7         226.2062  46.5731  14.5532 C.ar           1 RES1               0.0000
      8 N8         224.4446  43.3117  13.9377 N.am           1 RES1               0.0000
      9 O9         226.2390  42.6129  15.1075 O.2            1 RES1               0.0000
     10 N10        224.6394  44.6669  12.0521 N.am           1 RES1               0.0000
     11 O11        226.5373  45.7513  11.5273 O.2            1 RES1               0.0000
     12 C12        227.5957  42.6931  11.6858 C.3            1 RES1               0.0000
     13 C13        228.4795  46.3850  16.1037 C.ar           1 RES1               0.0000
     14 C14        226.5362  47.5906  15.4333 C.ar           1 RES1               0.0000
     15 C15        223.8420  43.8943  12.8518 C.2            1 RES1               0.0000
     16 C16        227.6725  47.4978  16.2084 C.ar           1 RES1               0.0000
     17 O17        222.6490  43.7174  12.6223 O.2            1 RES1               0.0000
     18 H18        228.6745  44.2613  12.6688 H              1 RES1               0.0000
     19 H19        228.2702  42.8848  13.7100 H              1 RES1               0.0000
     20 H20        228.7970  44.4971  15.1577 H              1 RES1               0.0000
     21 H21        225.3068  46.6671  13.9542 H              1 RES1               0.0000
     22 H22        223.8402  42.8204  14.5886 H              1 RES1               0.0000
     23 H23        224.2114  45.0575  11.2188 H              1 RES1               0.0000
     24 H24        228.4926  42.1763  11.3510 H              1 RES1               0.0000
     25 H25        226.8351  41.9459  11.9027 H              1 RES1               0.0000
     26 H26        227.2370  43.3142  10.8676 H              1 RES1               0.0000
     27 H27        229.3742  46.3065  16.7125 H              1 RES1               0.0000
     28 H28        225.8978  48.4643  15.5128 H              1 RES1               0.0000
     29 H29        227.9301  48.2958  16.8969 H              1 RES1               0.0000
@<TRIPOS>BOND
    1    1    2 1     
    2    1    3 1     
    3    1    4 1     
    4    1    5 1     
    5    2    6 ar    
    6    2    7 ar    
    7    3    8 1     
    8    3    9 2     
    9    4   10 1     
   10    4   11 2     
   11    5   12 1     
   12    5   18 1     
   13    5   19 1     
   14    6   13 ar    
   15    6   20 1     
   16    7   14 ar    
   17    7   21 1     
   18    8   15 1     
   19    8   22 1     
   20   10   15 1     
   21   10   23 1     
   22   12   24 1     
   23   12   25 1     
   24   12   26 1     
   25   13   16 ar    
   26   13   27 1     
   27   14   16 ar    
   28   14   28 1     
   29   15   17 2     
   30   16   29 1     
@<TRIPOS>SUBSTRUCTURE
      1 RES1           1
@<TRIPOS>SET
DONOR_HYDROGENS      STATIC     ATOMS    <user>   **** ""
2 22 23
ATOM$RED        STATIC     ATOMS    COLORGROUP SYSTEM
2 22 23
@<TRIPOS>COMMENT
> <Gold.Version>
2022.3.0

> <Gold.Id.Protein>
unknown|4v3u_clean|pdb

> <Gold.Protein.RotatedTorsions>
[ 6579 6563 6564 6565 ] final  178.18 input  113.83 | X-H torsion
[ 6671 6647 6648 6649 ] final  171.93 input  129.80 | X-H torsion
[ 8031 8015 8016 8017 ] final  -12.28 input   49.80 | X-H torsion
[ 8111 8093 8094 8095 ] final -103.37 input   98.11 | X-H torsion
[ 8171 8157 8158 8159 ] final  -62.61 input   64.44 | X-H torsion
[ 8251 8229 8230 8231 ] final -114.48 input   84.12 | X-H torsion
[ 9544 9530 9529 9527 ] final  116.03 input   60.01 | X-H torsion
[ 8327 8303 8304 8305 ] final  107.64 input  100.38 | X-H torsion
[ 10191 10175 10176 10177 ] final -153.62 input   40.16 | X-H torsion
[ 7947 7929 7930 7931 ] final   92.99 input   72.92 | X-H torsion
[ 7891 7879 7880 7881 ] final  -11.12 input   93.72 | X-H torsion
[ 7895 7884 7883 7880 ] final  111.78 input   60.02 | X-H torsion
[ 6811 6793 6794 6795 ] final   62.76 input  121.38 | X-H torsion
[ 27200 6326 6325 6324 ] final  -49.99 input    0.00 | X-H torsion
[ 27203 6566 6565 6564 ] final   59.80 input   -0.00 | X-H torsion
[ 27206 7882 7881 7880 ] final  122.09 input   -0.00 | X-H torsion
[ 27208 7932 7931 7930 ] final   96.59 input    0.00 | X-H torsion
[ 27211 8018 8017 8016 ] final -123.62 input    0.00 | X-H torsion
[ 27214 8096 8095 8094 ] final  -28.98 input   -0.00 | X-H torsion
[ 27217 8160 8159 8158 ] final  143.65 input    0.00 | X-H torsion
[ 27222 10090 10089 10088 ] final  132.25 input    0.00 | X-H torsion
[ 27224 10178 10177 10176 ] final   14.99 input   -0.00 | X-H torsion
[ 27229 7724 7723 7722 ] final -146.25 input    0.00 | X-H torsion
[ 27231 7802 7801 7800 ] final  115.76 input    0.00 | X-H torsion

> <Gold.Protein.ActiveResidues>
 ASP403  THR404  ILE407  TYR408  ALA410  LYS411  TRP414  GLN425  TRP426  SER427 
 LYS428  LEU429  GLN430  VAL431  PHE432  ASP433  TYR453  SER462  ALA463  ILE464 

> <Gold.Protein.RotatedAtoms>
  217.2963   42.0904   17.8210 H   0  0  0  0  0  0  0  0  0  0  0  0  # atno 6579 bound_to 6563
  219.8465   43.1968   20.2939 H   0  0  0  0  0  0  0  0  0  0  0  0  # atno 6671 bound_to 6647
  221.6408   38.3524   20.6349 H   0  0  0  0  0  0  0  0  0  0  0  0  # atno 6811 bound_to 6793
  230.0530   39.1429   18.9283 H   0  0  0  0  0  0  0  0  0  0  0  0  # atno 7891 bound_to 7879
  230.9324   43.3035   19.7439 H   0  0  0  0  0  0  0  0  0  0  0  0  # atno 7895 bound_to 7884
  230.4821   40.1600   17.5795 H   0  0  0  0  0  0  0  0  0  0  0  0  # atno 7947 bound_to 7929
  227.5760   41.2157   14.7694 H   0  0  0  0  0  0  0  0  0  0  0  0  # atno 8031 bound_to 8015
  225.8268   40.2286   13.2557 H   0  0  0  0  0  0  0  0  0  0  0  0  # atno 8111 bound_to 8093
  222.5827   40.2091   11.2790 H   0  0  0  0  0  0  0  0  0  0  0  0  # atno 8171 bound_to 8157
  219.8444   40.1141   11.0405 H   0  0  0  0  0  0  0  0  0  0  0  0  # atno 8251 bound_to 8229
  216.4547   41.1326   10.4783 H   0  0  0  0  0  0  0  0  0  0  0  0  # atno 8327 bound_to 8303
  226.8595   41.7808    8.5830 H   0  0  0  0  0  0  0  0  0  0  0  0  # atno 9544 bound_to 9530
  223.6083   35.1927   11.4449 H   0  0  0  0  0  0  0  0  0  0  0  0  # atno 10191 bound_to 10175
  215.7567   43.2896   18.0334 LP  0  0  0  0  0  0  0  0  0  0  0  0  # atno 27200 bound_to 6326
  217.1062   44.3483   17.7926 LP  0  0  0  0  0  0  0  0  0  0  0  0  # atno 27201 bound_to 6326
  217.6304   41.6440   19.4780 LP  0  0  0  0  0  0  0  0  0  0  0  0  # atno 27202 bound_to 6563
  221.7988   40.5974   18.8945 LP  0  0  0  0  0  0  0  0  0  0  0  0  # atno 27203 bound_to 6566
  220.9097   39.8007   20.1495 LP  0  0  0  0  0  0  0  0  0  0  0  0  # atno 27204 bound_to 6566
  219.5622   41.4979   19.9992 LP  0  0  0  0  0  0  0  0  0  0  0  0  # atno 27205 bound_to 6647
  228.9715   43.2691   17.3978 LP  0  0  0  0  0  0  0  0  0  0  0  0  # atno 27206 bound_to 7882
  227.4945   42.5902   17.9958 LP  0  0  0  0  0  0  0  0  0  0  0  0  # atno 27207 bound_to 7882
  229.4761   38.2631   14.8072 LP  0  0  0  0  0  0  0  0  0  0  0  0  # atno 27208 bound_to 7932
  229.7295   39.3262   13.4635 LP  0  0  0  0  0  0  0  0  0  0  0  0  # atno 27209 bound_to 7932
  228.1884   39.9597   15.8237 LP  0  0  0  0  0  0  0  0  0  0  0  0  # atno 27210 bound_to 8015
  223.9915   41.0335   14.1655 LP  0  0  0  0  0  0  0  0  0  0  0  0  # atno 27211 bound_to 8018
  225.4740   41.7938   14.6389 LP  0  0  0  0  0  0  0  0  0  0  0  0  # atno 27212 bound_to 8018
  225.8773   38.8859   12.1432 LP  0  0  0  0  0  0  0  0  0  0  0  0  # atno 27213 bound_to 8093
  223.6615   37.9353   11.2250 LP  0  0  0  0  0  0  0  0  0  0  0  0  # atno 27214 bound_to 8096
  222.3610   38.0022   12.3671 LP  0  0  0  0  0  0  0  0  0  0  0  0  # atno 27215 bound_to 8096
  222.5594   41.1505   12.7508 LP  0  0  0  0  0  0  0  0  0  0  0  0  # atno 27216 bound_to 8157
  219.2032   41.8450   10.3714 LP  0  0  0  0  0  0  0  0  0  0  0  0  # atno 27217 bound_to 8160
  219.3318   42.0991   12.0798 LP  0  0  0  0  0  0  0  0  0  0  0  0  # atno 27218 bound_to 8160
  219.5166   38.3984   11.0346 LP  0  0  0  0  0  0  0  0  0  0  0  0  # atno 27219 bound_to 8229
  227.7204   42.5304    7.4234 LP  0  0  0  0  0  0  0  0  0  0  0  0  # atno 27220 bound_to 9530
  228.2580   41.1288    8.0662 LP  0  0  0  0  0  0  0  0  0  0  0  0  # atno 27221 bound_to 9530
  226.5169   38.0856   10.1456 LP  0  0  0  0  0  0  0  0  0  0  0  0  # atno 27222 bound_to 10090
  227.5225   38.2537   11.5457 LP  0  0  0  0  0  0  0  0  0  0  0  0  # atno 27223 bound_to 10090
  220.9975   37.2548   11.1707 LP  0  0  0  0  0  0  0  0  0  0  0  0  # atno 27224 bound_to 10178
  219.3018   37.0705   10.8699 LP  0  0  0  0  0  0  0  0  0  0  0  0  # atno 27225 bound_to 10178
  216.6388   39.3921   10.3990 LP  0  0  0  0  0  0  0  0  0  0  0  0  # atno 27226 bound_to 8303
  222.5896   36.5981   11.2159 LP  0  0  0  0  0  0  0  0  0  0  0  0  # atno 27227 bound_to 10175
  229.0240   41.0953   17.8222 LP  0  0  0  0  0  0  0  0  0  0  0  0  # atno 27228 bound_to 7929
  230.3208   38.7263   17.7075 LP  0  0  0  0  0  0  0  0  0  0  0  0  # atno 27229 bound_to 7724
  231.1309   37.8355   16.4625 LP  0  0  0  0  0  0  0  0  0  0  0  0  # atno 27230 bound_to 7724
  227.2296   38.9292   19.7189 LP  0  0  0  0  0  0  0  0  0  0  0  0  # atno 27231 bound_to 7802
  227.7260   38.1381   18.2602 LP  0  0  0  0  0  0  0  0  0  0  0  0  # atno 27232 bound_to 7802
  229.9696   39.3494   20.6570 LP  0  0  0  0  0  0  0  0  0  0  0  0  # atno 27233 bound_to 7879
  231.2297   41.7524   19.3524 LP  0  0  0  0  0  0  0  0  0  0  0  0  # atno 27234 bound_to 7884
  231.5673   42.2977   20.8541 LP  0  0  0  0  0  0  0  0  0  0  0  0  # atno 27235 bound_to 7884

> <Gold.Score>
     Fitness  S(hb_ext) S(vdw_ext)  S(hb_int)    S(int)      intcor
     22.82       0.10      17.04       0.00      -0.71      -0.77

> <Gold.Goldscore.Fitness>
22.8173

> <Gold.Goldscore.Internal.Vdw>
-0.7319

> <Gold.Goldscore.Internal.Torsion>
-0.7477

> <Gold.Goldscore.External.Vdw>
17.0375

> <Gold.Goldscore.Internal.HBond>
0.0000

> <Gold.Goldscore.External.HBond>
0.1017

> <Gold.Goldscore.Internal.Correction>
-0.7686

> <Gold.Goldscore.Hbonds>
donor molecule, donor type, donor heavy atom, donor atom, acceptor molecule, acceptor atom, score
      P1  H  8015  8031       L1     9  0.03
      P1  H  8093  8111       L1     9  0.02

> <Gold.Goldscore.Internal.Vdw.Weighted>
-0.7319

> <Gold.Goldscore.Internal.Torsion.Weighted>
-0.7477

> <Gold.Goldscore.External.Vdw.Weighted>
23.4265

> <Gold.Goldscore.Internal.HBond.Weighted>
0.0000

> <Gold.Goldscore.External.HBond.Weighted>
0.1017

> <Gold.Goldscore.Internal.Correction.Weighted>
-0.7686

> <Gold.Rescore>
     Score     S(PLP)   S(hbond)     S(cho)   S(metal)  DE(clash)   DE(tors)     intcor
     18.43     -18.09       0.98       0.00       0.00       0.00       1.30       ----

> <Gold.PLP.Fitness>
18.4303

> <Gold.PLP.PLP>
-18.0888

> <Gold.PLP.part.hbond>
-3.5482

> <Gold.PLP.part.metal>
0.0000

> <Gold.PLP.part.buried>
-3.2451

> <Gold.PLP.part.nonpolar>
-14.3281

> <Gold.PLP.part.repulsive>
3.4250

> <Gold.PLP.ligand.clash>
0.0000

> <Gold.PLP.ligand.torsion>
1.2999

> <Gold.PLP.Chemscore.Hbond>
0.9805

> <Gold.PLP.Chemscore.CHOScore>
0.0000

> <Gold.PLP.Chemscore.Metal>
0.0000

> <Gold.Chemscore.Hbonds>
donor molecule, donor type, donor heavy atom, donor atom, acceptor molecule, acceptor atom, score
      P1  H  8015  8031       L1     9  0.54

> <Gold.PLP.Chemscore.Internal.Correction>
   9.000000E+99

