#       Name:                CT1002167954
#       Creating user name   hitesit
#       Creation time:       Sun Apr 16 20:27:15 2023


#       File generated by GOLD software.
#

@<TRIPOS>MOLECULE
CT1002167954|ligand_prepared|mol2|1|dock1
    29    30     1
SMALL
NO_CHARGES


@<TRIPOS>ATOM
      1 C1         223.8809  45.5398  12.5971 C.3            1 RES1               0.0000
      2 C2         225.0834  45.1423  11.7170 C.ar           1 RES1               0.0000
      3 C3         222.6790  44.7743  12.0515 C.2            1 RES1               0.0000
      4 C4         224.2578  45.1689  14.0272 C.2            1 RES1               0.0000
      5 C5         223.5560  47.0514  12.5655 C.3            1 RES1               0.0000
      6 C6         225.3040  45.7685  10.4939 C.ar           1 RES1               0.0000
      7 C7         225.9807  44.1550  12.1152 C.ar           1 RES1               0.0000
      8 N8         222.2195  43.7170  12.7802 N.am           1 RES1               0.0000
      9 O9         222.1670  45.0692  10.9786 O.2            1 RES1               0.0000
     10 N10        223.5387  44.1792  14.6446 N.am           1 RES1               0.0000
     11 O11        225.1818  45.7132  14.6190 O.2            1 RES1               0.0000
     12 C12        222.5598  47.4868  13.6285 C.3            1 RES1               0.0000
     13 C13        226.3841  45.4223   9.6990 C.ar           1 RES1               0.0000
     14 C14        227.0601  43.8101  11.3186 C.ar           1 RES1               0.0000
     15 C15        222.5566  43.4153  14.0752 C.2            1 RES1               0.0000
     16 C16        227.2630  44.4433  10.1109 C.ar           1 RES1               0.0000
     17 O17        221.9931  42.5065  14.6782 O.2            1 RES1               0.0000
     18 H18        224.4869  47.6156  12.7017 H              1 RES1               0.0000
     19 H19        223.1517  47.3051  11.5778 H              1 RES1               0.0000
     20 H20        224.6216  46.5395  10.1520 H              1 RES1               0.0000
     21 H21        225.8402  43.6426  13.0609 H              1 RES1               0.0000
     22 H22        221.5647  43.0930  12.3197 H              1 RES1               0.0000
     23 H23        223.7555  43.9950  15.6190 H              1 RES1               0.0000
     24 H24        222.3672  48.5556  13.5621 H              1 RES1               0.0000
     25 H25        221.6134  46.9638  13.5076 H              1 RES1               0.0000
     26 H26        222.9406  47.2724  14.6250 H              1 RES1               0.0000
     27 H27        226.5386  45.9227   8.7487 H              1 RES1               0.0000
     28 H28        227.7489  43.0386  11.6465 H              1 RES1               0.0000
     29 H29        228.1093  44.1726   9.4882 H              1 RES1               0.0000
@<TRIPOS>BOND
    1    1    2 1     
    2    1    3 1     
    3    1    4 1     
    4    1    5 1     
    5    2    6 ar    
    6    2    7 ar    
    7    3    8 1     
    8    3    9 2     
    9    4   10 1     
   10    4   11 2     
   11    5   12 1     
   12    5   18 1     
   13    5   19 1     
   14    6   13 ar    
   15    6   20 1     
   16    7   14 ar    
   17    7   21 1     
   18    8   15 1     
   19    8   22 1     
   20   10   15 1     
   21   10   23 1     
   22   12   24 1     
   23   12   25 1     
   24   12   26 1     
   25   13   16 ar    
   26   13   27 1     
   27   14   16 ar    
   28   14   28 1     
   29   15   17 2     
   30   16   29 1     
@<TRIPOS>SUBSTRUCTURE
      1 RES1           1
@<TRIPOS>SET
DONOR_HYDROGENS      STATIC     ATOMS    <user>   **** ""
2 22 23
ATOM$RED        STATIC     ATOMS    COLORGROUP SYSTEM
2 22 23
@<TRIPOS>COMMENT
> <Gold.Version>
2022.3.0

> <Gold.Id.Protein>
unknown|4v3u_clean|pdb

> <Gold.Protein.RotatedTorsions>
[ 6579 6563 6564 6565 ] final  166.34 input  113.83 | X-H torsion
[ 6671 6647 6648 6649 ] final  -52.10 input  129.80 | X-H torsion
[ 8031 8015 8016 8017 ] final  -97.39 input   49.80 | X-H torsion
[ 8111 8093 8094 8095 ] final  -49.21 input   98.11 | X-H torsion
[ 8171 8157 8158 8159 ] final  118.68 input   64.44 | X-H torsion
[ 8251 8229 8230 8231 ] final   81.72 input   84.12 | X-H torsion
[ 9544 9530 9529 9527 ] final   46.07 input   60.01 | X-H torsion
[ 8327 8303 8304 8305 ] final   59.32 input  100.38 | X-H torsion
[ 10191 10175 10176 10177 ] final  -29.90 input   40.16 | X-H torsion
[ 7947 7929 7930 7931 ] final  -76.37 input   72.92 | X-H torsion
[ 7891 7879 7880 7881 ] final   27.48 input   93.72 | X-H torsion
[ 7895 7884 7883 7880 ] final   -5.77 input   60.02 | X-H torsion
[ 6811 6793 6794 6795 ] final  -19.50 input  121.38 | X-H torsion
[ 27200 6326 6325 6324 ] final  -93.27 input    0.00 | X-H torsion
[ 27203 6566 6565 6564 ] final   -2.07 input   -0.00 | X-H torsion
[ 27206 7882 7881 7880 ] final  117.02 input   -0.00 | X-H torsion
[ 27208 7932 7931 7930 ] final -156.60 input    0.00 | X-H torsion
[ 27211 8018 8017 8016 ] final  -28.62 input    0.00 | X-H torsion
[ 27214 8096 8095 8094 ] final  -53.80 input   -0.00 | X-H torsion
[ 27217 8160 8159 8158 ] final    1.84 input    0.00 | X-H torsion
[ 27222 10090 10089 10088 ] final -162.93 input    0.00 | X-H torsion
[ 27224 10178 10177 10176 ] final -107.90 input   -0.00 | X-H torsion
[ 27229 7724 7723 7722 ] final  116.38 input    0.00 | X-H torsion
[ 27231 7802 7801 7800 ] final -135.61 input    0.00 | X-H torsion

> <Gold.Protein.ActiveResidues>
 ASP403  THR404  ILE407  TYR408  ALA410  LYS411  TRP414  GLN425  TRP426  SER427 
 LYS428  LEU429  GLN430  VAL431  PHE432  ASP433  TYR453  SER462  ALA463  ILE464 

> <Gold.Protein.RotatedAtoms>
  217.3129   42.2613   17.8836 H   0  0  0  0  0  0  0  0  0  0  0  0  # atno 6579 bound_to 6563
  220.1560   41.6707   19.7823 H   0  0  0  0  0  0  0  0  0  0  0  0  # atno 6671 bound_to 6647
  221.8100   37.2145   20.4408 H   0  0  0  0  0  0  0  0  0  0  0  0  # atno 6811 bound_to 6793
  230.5233   39.4266   19.1098 H   0  0  0  0  0  0  0  0  0  0  0  0  # atno 7891 bound_to 7879
  231.2123   41.7825   19.3307 H   0  0  0  0  0  0  0  0  0  0  0  0  # atno 7895 bound_to 7884
  228.9255   40.9705   17.7794 H   0  0  0  0  0  0  0  0  0  0  0  0  # atno 7947 bound_to 7929
  228.4585   40.4076   14.6449 H   0  0  0  0  0  0  0  0  0  0  0  0  # atno 8031 bound_to 8015
  225.3316   39.6178   13.3998 H   0  0  0  0  0  0  0  0  0  0  0  0  # atno 8111 bound_to 8093
  222.5647   41.1446   12.7776 H   0  0  0  0  0  0  0  0  0  0  0  0  # atno 8171 bound_to 8157
  219.6772   38.3854   10.8475 H   0  0  0  0  0  0  0  0  0  0  0  0  # atno 8251 bound_to 8229
  216.1961   40.8321    9.8642 H   0  0  0  0  0  0  0  0  0  0  0  0  # atno 8327 bound_to 8303
  227.0633   42.5564    7.8695 H   0  0  0  0  0  0  0  0  0  0  0  0  # atno 9544 bound_to 9530
  222.6740   36.0974   10.5637 H   0  0  0  0  0  0  0  0  0  0  0  0  # atno 10191 bound_to 10175
  216.0236   43.4608   18.5878 LP  0  0  0  0  0  0  0  0  0  0  0  0  # atno 27200 bound_to 6326
  216.8394   44.1771   17.2382 LP  0  0  0  0  0  0  0  0  0  0  0  0  # atno 27201 bound_to 6326
  217.6143   41.4776   19.4171 LP  0  0  0  0  0  0  0  0  0  0  0  0  # atno 27202 bound_to 6563
  221.1548   40.0143   18.6998 LP  0  0  0  0  0  0  0  0  0  0  0  0  # atno 27203 bound_to 6566
  221.5537   40.3838   20.3443 LP  0  0  0  0  0  0  0  0  0  0  0  0  # atno 27204 bound_to 6566
  219.2598   42.9889   20.4990 LP  0  0  0  0  0  0  0  0  0  0  0  0  # atno 27205 bound_to 6647
  228.9836   43.2963   17.4684 LP  0  0  0  0  0  0  0  0  0  0  0  0  # atno 27206 bound_to 7882
  227.4823   42.5631   17.9252 LP  0  0  0  0  0  0  0  0  0  0  0  0  # atno 27207 bound_to 7882
  228.8967   38.7408   13.6368 LP  0  0  0  0  0  0  0  0  0  0  0  0  # atno 27208 bound_to 7932
  230.3088   38.8485   14.6340 LP  0  0  0  0  0  0  0  0  0  0  0  0  # atno 27209 bound_to 7932
  227.3341   40.7419   15.9443 LP  0  0  0  0  0  0  0  0  0  0  0  0  # atno 27210 bound_to 8015
  224.7776   41.0190   15.1718 LP  0  0  0  0  0  0  0  0  0  0  0  0  # atno 27211 bound_to 8018
  224.6878   41.8083   13.6326 LP  0  0  0  0  0  0  0  0  0  0  0  0  # atno 27212 bound_to 8018
  226.3659   39.4885   12.0010 LP  0  0  0  0  0  0  0  0  0  0  0  0  # atno 27213 bound_to 8093
  223.3630   37.9651   11.0047 LP  0  0  0  0  0  0  0  0  0  0  0  0  # atno 27214 bound_to 8096
  222.6595   37.9724   12.5874 LP  0  0  0  0  0  0  0  0  0  0  0  0  # atno 27215 bound_to 8096
  222.5770   40.2356   11.2854 LP  0  0  0  0  0  0  0  0  0  0  0  0  # atno 27216 bound_to 8157
  219.8281   42.2230   11.8361 LP  0  0  0  0  0  0  0  0  0  0  0  0  # atno 27217 bound_to 8160
  218.7069   41.7211   10.6151 LP  0  0  0  0  0  0  0  0  0  0  0  0  # atno 27218 bound_to 8160
  219.6804   40.0912   11.2236 LP  0  0  0  0  0  0  0  0  0  0  0  0  # atno 27219 bound_to 8229
  228.4094   41.7051    7.5361 LP  0  0  0  0  0  0  0  0  0  0  0  0  # atno 27220 bound_to 9530
  227.3638   41.1730    8.6720 LP  0  0  0  0  0  0  0  0  0  0  0  0  # atno 27221 bound_to 9530
  226.1757   38.0646   11.0087 LP  0  0  0  0  0  0  0  0  0  0  0  0  # atno 27222 bound_to 10090
  227.8637   38.2747   10.6827 LP  0  0  0  0  0  0  0  0  0  0  0  0  # atno 27223 bound_to 10090
  219.5551   37.1853   11.6495 LP  0  0  0  0  0  0  0  0  0  0  0  0  # atno 27224 bound_to 10178
  220.7442   37.1400   10.3910 LP  0  0  0  0  0  0  0  0  0  0  0  0  # atno 27225 bound_to 10178
  216.8875   39.6812   10.9897 LP  0  0  0  0  0  0  0  0  0  0  0  0  # atno 27226 bound_to 8303
  223.4915   35.7248   12.0664 LP  0  0  0  0  0  0  0  0  0  0  0  0  # atno 27227 bound_to 10175
  230.5370   40.3075   17.6279 LP  0  0  0  0  0  0  0  0  0  0  0  0  # atno 27228 bound_to 7929
  230.1979   37.5944   17.0780 LP  0  0  0  0  0  0  0  0  0  0  0  0  # atno 27229 bound_to 7724
  231.2538   38.9673   17.0920 LP  0  0  0  0  0  0  0  0  0  0  0  0  # atno 27230 bound_to 7724
  227.6685   39.1373   18.3985 LP  0  0  0  0  0  0  0  0  0  0  0  0  # atno 27231 bound_to 7802
  227.2871   37.9301   19.5805 LP  0  0  0  0  0  0  0  0  0  0  0  0  # atno 27232 bound_to 7802
  229.5033   39.0681   20.4770 LP  0  0  0  0  0  0  0  0  0  0  0  0  # atno 27233 bound_to 7879
  231.5744   42.2594   20.8437 LP  0  0  0  0  0  0  0  0  0  0  0  0  # atno 27234 bound_to 7884
  230.9406   43.3230   19.7789 LP  0  0  0  0  0  0  0  0  0  0  0  0  # atno 27235 bound_to 7884

> <Gold.Score>
     Fitness  S(hb_ext) S(vdw_ext)  S(hb_int)    S(int)      intcor
     21.14       1.07      15.20       0.00      -0.82      -0.77

> <Gold.Goldscore.Fitness>
21.1445

> <Gold.Goldscore.Internal.Vdw>
-1.0236

> <Gold.Goldscore.Internal.Torsion>
-0.5639

> <Gold.Goldscore.External.Vdw>
15.1955

> <Gold.Goldscore.Internal.HBond>
0.0000

> <Gold.Goldscore.External.HBond>
1.0696

> <Gold.Goldscore.Internal.Correction>
-0.7686

> <Gold.Goldscore.Hbonds>
donor molecule, donor type, donor heavy atom, donor atom, acceptor molecule, acceptor atom, score
      P1  H  8100  8117       L1     9  0.06
      P1  H  8157  8171       L1    17  0.07
      L1  H     8    22       P1  8160  0.41

> <Gold.Goldscore.Internal.Vdw.Weighted>
-1.0236

> <Gold.Goldscore.Internal.Torsion.Weighted>
-0.5639

> <Gold.Goldscore.External.Vdw.Weighted>
20.8939

> <Gold.Goldscore.Internal.HBond.Weighted>
0.0000

> <Gold.Goldscore.External.HBond.Weighted>
1.0696

> <Gold.Goldscore.Internal.Correction.Weighted>
-0.7686

> <Gold.Rescore>
     Score     S(PLP)   S(hbond)     S(cho)   S(metal)  DE(clash)   DE(tors)     intcor
     12.92      -9.70       1.56       0.00       0.00       1.44       0.00       ----

> <Gold.PLP.Fitness>
12.9232

> <Gold.PLP.PLP>
-9.6962

> <Gold.PLP.part.hbond>
-1.5721

> <Gold.PLP.part.metal>
0.0000

> <Gold.PLP.part.buried>
-3.8562

> <Gold.PLP.part.nonpolar>
-6.5106

> <Gold.PLP.part.repulsive>
0.8201

> <Gold.PLP.ligand.clash>
1.4436

> <Gold.PLP.ligand.torsion>
0.0047

> <Gold.PLP.Chemscore.Hbond>
1.5600

> <Gold.PLP.Chemscore.CHOScore>
0.0000

> <Gold.PLP.Chemscore.Metal>
0.0000

> <Gold.Chemscore.Hbonds>
donor molecule, donor type, donor heavy atom, donor atom, acceptor molecule, acceptor atom, score
      P1  H  8100  8117       L1     9  0.70
      P1  H  8157  8171       L1    17  0.05

> <Gold.PLP.Chemscore.Internal.Correction>
   9.000000E+99

