#       Name:                CT1002167954
#       Creating user name   hitesit
#       Creation time:       Sun Apr 16 20:27:16 2023


#       File generated by GOLD software.
#

@<TRIPOS>MOLECULE
CT1002167954|ligand_prepared|mol2|1|dock2
    29    30     1
SMALL
NO_CHARGES


@<TRIPOS>ATOM
      1 C1         228.0268  44.1919  12.2420 C.3            1 RES1               0.0000
      2 C2         226.8038  44.5453  13.1128 C.ar           1 RES1               0.0000
      3 C3         228.6780  42.9745  12.8918 C.2            1 RES1               0.0000
      4 C4         227.4909  43.9356  10.8378 C.2            1 RES1               0.0000
      5 C5         229.0782  45.3225  12.1531 C.3            1 RES1               0.0000
      6 C6         225.7682  43.6316  13.2841 C.ar           1 RES1               0.0000
      7 C7         226.6985  45.7777  13.7520 C.ar           1 RES1               0.0000
      8 N8         228.5221  41.7691  12.2733 N.am           1 RES1               0.0000
      9 O9         229.2857  43.0643  13.9515 O.2            1 RES1               0.0000
     10 N10        227.5944  42.6658  10.3330 N.am           1 RES1               0.0000
     11 O11        226.9650  44.8178  10.1705 O.2            1 RES1               0.0000
     12 C12        230.2988  44.9608  11.3216 C.3            1 RES1               0.0000
     13 C13        224.6685  43.9376  14.0686 C.ar           1 RES1               0.0000
     14 C14        225.5978  46.0818  14.5359 C.ar           1 RES1               0.0000
     15 C15        228.0578  41.5640  10.9989 C.2            1 RES1               0.0000
     16 C16        224.5827  45.1626  14.6952 C.ar           1 RES1               0.0000
     17 O17        228.0690  40.4441  10.4962 O.2            1 RES1               0.0000
     18 H18        228.6050  46.2113  11.7176 H              1 RES1               0.0000
     19 H19        229.4060  45.5804  13.1677 H              1 RES1               0.0000
     20 H20        225.8170  42.6635  12.7968 H              1 RES1               0.0000
     21 H21        227.4846  46.5167  13.6401 H              1 RES1               0.0000
     22 H22        228.7738  40.9438  12.8079 H              1 RES1               0.0000
     23 H23        227.2986  42.5294   9.3716 H              1 RES1               0.0000
     24 H24        231.0043  45.7884  11.2919 H              1 RES1               0.0000
     25 H25        230.8085  44.0958  11.7408 H              1 RES1               0.0000
     26 H26        230.0123  44.7228  10.2993 H              1 RES1               0.0000
     27 H27        223.8717  43.2113  14.1897 H              1 RES1               0.0000
     28 H28        225.5342  47.0473  15.0267 H              1 RES1               0.0000
     29 H29        223.7213  45.4019  15.3100 H              1 RES1               0.0000
@<TRIPOS>BOND
    1    1    2 1     
    2    1    3 1     
    3    1    4 1     
    4    1    5 1     
    5    2    6 ar    
    6    2    7 ar    
    7    3    8 1     
    8    3    9 2     
    9    4   10 1     
   10    4   11 2     
   11    5   12 1     
   12    5   18 1     
   13    5   19 1     
   14    6   13 ar    
   15    6   20 1     
   16    7   14 ar    
   17    7   21 1     
   18    8   15 1     
   19    8   22 1     
   20   10   15 1     
   21   10   23 1     
   22   12   24 1     
   23   12   25 1     
   24   12   26 1     
   25   13   16 ar    
   26   13   27 1     
   27   14   16 ar    
   28   14   28 1     
   29   15   17 2     
   30   16   29 1     
@<TRIPOS>SUBSTRUCTURE
      1 RES1           1
@<TRIPOS>SET
DONOR_HYDROGENS      STATIC     ATOMS    <user>   **** ""
2 22 23
ATOM$RED        STATIC     ATOMS    COLORGROUP SYSTEM
2 22 23
@<TRIPOS>COMMENT
> <Gold.Version>
2022.3.0

> <Gold.Id.Protein>
unknown|4v3u_clean|pdb

> <Gold.Protein.RotatedTorsions>
[ 6579 6563 6564 6565 ] final  109.48 input  113.83 | X-H torsion
[ 6671 6647 6648 6649 ] final   19.95 input  129.80 | X-H torsion
[ 8031 8015 8016 8017 ] final   15.60 input   49.80 | X-H torsion
[ 8111 8093 8094 8095 ] final   75.17 input   98.11 | X-H torsion
[ 8171 8157 8158 8159 ] final  144.63 input   64.44 | X-H torsion
[ 8251 8229 8230 8231 ] final   89.16 input   84.12 | X-H torsion
[ 9544 9530 9529 9527 ] final -166.89 input   60.01 | X-H torsion
[ 8327 8303 8304 8305 ] final -113.00 input  100.38 | X-H torsion
[ 10191 10175 10176 10177 ] final  159.67 input   40.16 | X-H torsion
[ 7947 7929 7930 7931 ] final  135.34 input   72.92 | X-H torsion
[ 7891 7879 7880 7881 ] final -118.82 input   93.72 | X-H torsion
[ 7895 7884 7883 7880 ] final -101.22 input   60.02 | X-H torsion
[ 6811 6793 6794 6795 ] final   82.21 input  121.38 | X-H torsion
[ 27200 6326 6325 6324 ] final  126.70 input    0.00 | X-H torsion
[ 27203 6566 6565 6564 ] final  171.52 input   -0.00 | X-H torsion
[ 27206 7882 7881 7880 ] final -160.43 input   -0.00 | X-H torsion
[ 27208 7932 7931 7930 ] final -109.47 input    0.00 | X-H torsion
[ 27211 8018 8017 8016 ] final -141.64 input    0.00 | X-H torsion
[ 27214 8096 8095 8094 ] final   19.27 input   -0.00 | X-H torsion
[ 27217 8160 8159 8158 ] final   43.63 input    0.00 | X-H torsion
[ 27222 10090 10089 10088 ] final   -5.46 input    0.00 | X-H torsion
[ 27224 10178 10177 10176 ] final  104.71 input   -0.00 | X-H torsion
[ 27229 7724 7723 7722 ] final  112.97 input    0.00 | X-H torsion
[ 27231 7802 7801 7800 ] final  -96.87 input    0.00 | X-H torsion

> <Gold.Protein.ActiveResidues>
 ASP403  THR404  ILE407  TYR408  ALA410  LYS411  TRP414  GLN425  TRP426  SER427 
 LYS428  LEU429  GLN430  VAL431  PHE432  ASP433  TYR453  SER462  ALA463  ILE464 

> <Gold.Protein.RotatedAtoms>
  217.4661   42.7441   18.5579 H   0  0  0  0  0  0  0  0  0  0  0  0  # atno 6579 bound_to 6563
  219.2024   41.6103   20.1926 H   0  0  0  0  0  0  0  0  0  0  0  0  # atno 6671 bound_to 6647
  221.6618   38.5820   20.4437 H   0  0  0  0  0  0  0  0  0  0  0  0  # atno 6811 bound_to 6793
  229.2727   38.8677   20.0742 H   0  0  0  0  0  0  0  0  0  0  0  0  # atno 7891 bound_to 7879
  231.6055   41.9098   20.6528 H   0  0  0  0  0  0  0  0  0  0  0  0  # atno 7895 bound_to 7884
  230.6191   40.7688   17.7251 H   0  0  0  0  0  0  0  0  0  0  0  0  # atno 7947 bound_to 7929
  227.3282   41.2435   15.1179 H   0  0  0  0  0  0  0  0  0  0  0  0  # atno 8031 bound_to 8015
  225.8681   38.8628   12.1527 H   0  0  0  0  0  0  0  0  0  0  0  0  # atno 8111 bound_to 8093
  222.7365   40.8028   12.8829 H   0  0  0  0  0  0  0  0  0  0  0  0  # atno 8171 bound_to 8157
  219.7540   38.4108   10.7664 H   0  0  0  0  0  0  0  0  0  0  0  0  # atno 8251 bound_to 8229
  216.8446   39.5722   10.9441 H   0  0  0  0  0  0  0  0  0  0  0  0  # atno 8327 bound_to 8303
  227.7426   41.0221    8.5084 H   0  0  0  0  0  0  0  0  0  0  0  0  # atno 9544 bound_to 9530
  223.5408   35.5874   12.0267 H   0  0  0  0  0  0  0  0  0  0  0  0  # atno 10191 bound_to 10175
  217.0981   44.3451   17.7433 LP  0  0  0  0  0  0  0  0  0  0  0  0  # atno 27200 bound_to 6326
  215.7649   43.2928   18.0826 LP  0  0  0  0  0  0  0  0  0  0  0  0  # atno 27201 bound_to 6326
  217.4651   41.0076   18.7606 LP  0  0  0  0  0  0  0  0  0  0  0  0  # atno 27202 bound_to 6563
  221.6207   40.4442   20.3087 LP  0  0  0  0  0  0  0  0  0  0  0  0  # atno 27203 bound_to 6566
  221.0878   39.9539   18.7353 LP  0  0  0  0  0  0  0  0  0  0  0  0  # atno 27204 bound_to 6566
  220.1915   43.0479   20.0981 LP  0  0  0  0  0  0  0  0  0  0  0  0  # atno 27205 bound_to 6647
  228.2272   42.6887   16.8650 LP  0  0  0  0  0  0  0  0  0  0  0  0  # atno 27206 bound_to 7882
  228.2388   43.1707   18.5286 LP  0  0  0  0  0  0  0  0  0  0  0  0  # atno 27207 bound_to 7882
  229.3758   39.1769   13.3922 LP  0  0  0  0  0  0  0  0  0  0  0  0  # atno 27208 bound_to 7932
  229.8298   38.4124   14.8786 LP  0  0  0  0  0  0  0  0  0  0  0  0  # atno 27209 bound_to 7932
  228.4283   39.9327   15.4864 LP  0  0  0  0  0  0  0  0  0  0  0  0  # atno 27210 bound_to 8015
  224.0339   41.1850   13.9446 LP  0  0  0  0  0  0  0  0  0  0  0  0  # atno 27211 bound_to 8018
  225.4315   41.6423   14.8598 LP  0  0  0  0  0  0  0  0  0  0  0  0  # atno 27212 bound_to 8018
  225.8367   40.2334   13.2314 LP  0  0  0  0  0  0  0  0  0  0  0  0  # atno 27213 bound_to 8093
  223.8680   37.8989   11.9011 LP  0  0  0  0  0  0  0  0  0  0  0  0  # atno 27214 bound_to 8096
  222.1544   38.0385   11.6910 LP  0  0  0  0  0  0  0  0  0  0  0  0  # atno 27215 bound_to 8096
  222.4090   40.5699   11.1824 LP  0  0  0  0  0  0  0  0  0  0  0  0  # atno 27216 bound_to 8157
  220.0911   42.2348   11.2774 LP  0  0  0  0  0  0  0  0  0  0  0  0  # atno 27217 bound_to 8160
  218.4439   41.7093   11.1738 LP  0  0  0  0  0  0  0  0  0  0  0  0  # atno 27218 bound_to 8160
  219.6051   40.0664   11.3030 LP  0  0  0  0  0  0  0  0  0  0  0  0  # atno 27219 bound_to 8229
  226.8465   42.3415    8.1854 LP  0  0  0  0  0  0  0  0  0  0  0  0  # atno 27220 bound_to 9530
  228.2427   42.0817    7.3792 LP  0  0  0  0  0  0  0  0  0  0  0  0  # atno 27221 bound_to 9530
  227.8602   38.2834   11.0209 LP  0  0  0  0  0  0  0  0  0  0  0  0  # atno 27222 bound_to 10090
  226.1793   38.0560   10.6704 LP  0  0  0  0  0  0  0  0  0  0  0  0  # atno 27223 bound_to 10090
  220.3135   37.0765   10.1742 LP  0  0  0  0  0  0  0  0  0  0  0  0  # atno 27224 bound_to 10178
  219.9858   37.2488   11.8663 LP  0  0  0  0  0  0  0  0  0  0  0  0  # atno 27225 bound_to 10178
  216.2636   40.8933    9.9509 LP  0  0  0  0  0  0  0  0  0  0  0  0  # atno 27226 bound_to 8303
  222.6548   36.2171   10.6542 LP  0  0  0  0  0  0  0  0  0  0  0  0  # atno 27227 bound_to 10175
  228.8908   40.5036   17.6807 LP  0  0  0  0  0  0  0  0  0  0  0  0  # atno 27228 bound_to 7929
  230.2272   37.5742   17.0407 LP  0  0  0  0  0  0  0  0  0  0  0  0  # atno 27229 bound_to 7724
  231.2246   38.9875   17.1293 LP  0  0  0  0  0  0  0  0  0  0  0  0  # atno 27230 bound_to 7724
  227.7502   38.6160   18.1716 LP  0  0  0  0  0  0  0  0  0  0  0  0  # atno 27231 bound_to 7802
  227.2054   38.4514   19.8075 LP  0  0  0  0  0  0  0  0  0  0  0  0  # atno 27232 bound_to 7802
  230.7433   39.6223   19.5208 LP  0  0  0  0  0  0  0  0  0  0  0  0  # atno 27233 bound_to 7879
  231.0543   43.3598   20.1615 LP  0  0  0  0  0  0  0  0  0  0  0  0  # atno 27234 bound_to 7884
  231.0645   42.0944   19.1294 LP  0  0  0  0  0  0  0  0  0  0  0  0  # atno 27235 bound_to 7884

> <Gold.Score>
     Fitness  S(hb_ext) S(vdw_ext)  S(hb_int)    S(int)      intcor
     23.94       2.73      15.48       0.00      -0.07      -0.77

> <Gold.Goldscore.Fitness>
23.9353

> <Gold.Goldscore.Internal.Vdw>
-0.4700

> <Gold.Goldscore.Internal.Torsion>
-0.3709

> <Gold.Goldscore.External.Vdw>
15.4756

> <Gold.Goldscore.Internal.HBond>
0.0000

> <Gold.Goldscore.External.HBond>
2.7285

> <Gold.Goldscore.Internal.Correction>
-0.7686

> <Gold.Goldscore.Hbonds>
donor molecule, donor type, donor heavy atom, donor atom, acceptor molecule, acceptor atom, score
      P1  H  9530  9544       L1    17  0.54
      L1  H     8    22       P1  7932  0.79
      L1  H    10    23       P1  9530  0.03

> <Gold.Goldscore.Internal.Vdw.Weighted>
-0.4700

> <Gold.Goldscore.Internal.Torsion.Weighted>
-0.3709

> <Gold.Goldscore.External.Vdw.Weighted>
21.2789

> <Gold.Goldscore.Internal.HBond.Weighted>
0.0000

> <Gold.Goldscore.External.HBond.Weighted>
2.7285

> <Gold.Goldscore.Internal.Correction.Weighted>
-0.7686

> <Gold.Rescore>
     Score     S(PLP)   S(hbond)     S(cho)   S(metal)  DE(clash)   DE(tors)     intcor
     15.60     -16.53       0.00       0.00       0.00       0.00       0.46       ----

> <Gold.PLP.Fitness>
15.6018

> <Gold.PLP.PLP>
-16.5281

> <Gold.PLP.part.hbond>
-1.5339

> <Gold.PLP.part.metal>
0.0000

> <Gold.PLP.part.buried>
-5.1909

> <Gold.PLP.part.nonpolar>
-10.1376

> <Gold.PLP.part.repulsive>
0.2765

> <Gold.PLP.ligand.clash>
0.0000

> <Gold.PLP.ligand.torsion>
0.4631

> <Gold.PLP.Chemscore.Hbond>
0.0000

> <Gold.PLP.Chemscore.CHOScore>
0.0000

> <Gold.PLP.Chemscore.Metal>
0.0000

> <Gold.Chemscore.Hbonds>
donor molecule, donor type, donor heavy atom, donor atom, acceptor molecule, acceptor atom, score
      P1  H  9530  9544       L1    17  0.90

> <Gold.PLP.Chemscore.Internal.Correction>
   9.000000E+99

