#       Name:                CT1002167954
#       Creating user name   hitesit
#       Creation time:       Sun Apr 16 20:27:19 2023


#       File generated by GOLD software.
#

@<TRIPOS>MOLECULE
CT1002167954|ligand_prepared|mol2|1|dock8
    29    30     1
SMALL
NO_CHARGES


@<TRIPOS>ATOM
      1 C1         227.9445  45.0891  13.2216 C.3            1 RES1               0.0000
      2 C2         227.1749  46.0468  12.2892 C.ar           1 RES1               0.0000
      3 C3         226.9137  44.1097  13.7752 C.2            1 RES1               0.0000
      4 C4         229.0251  44.4375  12.3660 C.2            1 RES1               0.0000
      5 C5         228.6375  45.7964  14.4095 C.3            1 RES1               0.0000
      6 C6         225.9954  45.6399  11.6727 C.ar           1 RES1               0.0000
      7 C7         227.6296  47.3387  12.0385 C.ar           1 RES1               0.0000
      8 N8         226.9261  42.8364  13.2870 N.am           1 RES1               0.0000
      9 O9         226.0773  44.4599  14.5986 O.2            1 RES1               0.0000
     10 N10        228.9389  43.0886  12.1402 N.am           1 RES1               0.0000
     11 O11        229.9413  45.0827  11.8715 O.2            1 RES1               0.0000
     12 C12        229.1917  44.8401  15.4538 C.3            1 RES1               0.0000
     13 C13        225.2944  46.4944  10.8381 C.ar           1 RES1               0.0000
     14 C14        226.9271  48.1916  11.2034 C.ar           1 RES1               0.0000
     15 C15        227.9215  42.2639  12.5365 C.2            1 RES1               0.0000
     16 C16        225.7594  47.7708  10.6032 C.ar           1 RES1               0.0000
     17 O17        227.8872  41.0711  12.2482 O.2            1 RES1               0.0000
     18 H18        229.4591  46.4122  14.0233 H              1 RES1               0.0000
     19 H19        227.9149  46.4659  14.8922 H              1 RES1               0.0000
     20 H20        225.6154  44.6382  11.8437 H              1 RES1               0.0000
     21 H21        228.5464  47.6908  12.4990 H              1 RES1               0.0000
     22 H22        226.1209  42.2561  13.4995 H              1 RES1               0.0000
     23 H23        229.7041  42.6596  11.6296 H              1 RES1               0.0000
     24 H24        229.6671  45.3878  16.2648 H              1 RES1               0.0000
     25 H25        228.3974  44.2290  15.8775 H              1 RES1               0.0000
     26 H26        229.9325  44.1756  15.0137 H              1 RES1               0.0000
     27 H27        224.3766  46.1580  10.3671 H              1 RES1               0.0000
     28 H28        227.2971  49.1951  11.0209 H              1 RES1               0.0000
     29 H29        225.2098  48.4402   9.9497 H              1 RES1               0.0000
@<TRIPOS>BOND
    1    1    2 1     
    2    1    3 1     
    3    1    4 1     
    4    1    5 1     
    5    2    6 ar    
    6    2    7 ar    
    7    3    8 1     
    8    3    9 2     
    9    4   10 1     
   10    4   11 2     
   11    5   12 1     
   12    5   18 1     
   13    5   19 1     
   14    6   13 ar    
   15    6   20 1     
   16    7   14 ar    
   17    7   21 1     
   18    8   15 1     
   19    8   22 1     
   20   10   15 1     
   21   10   23 1     
   22   12   24 1     
   23   12   25 1     
   24   12   26 1     
   25   13   16 ar    
   26   13   27 1     
   27   14   16 ar    
   28   14   28 1     
   29   15   17 2     
   30   16   29 1     
@<TRIPOS>SUBSTRUCTURE
      1 RES1           1
@<TRIPOS>SET
DONOR_HYDROGENS      STATIC     ATOMS    <user>   **** ""
2 22 23
ATOM$RED        STATIC     ATOMS    COLORGROUP SYSTEM
2 22 23
@<TRIPOS>COMMENT
> <Gold.Version>
2022.3.0

> <Gold.Id.Protein>
unknown|4v3u_clean|pdb

> <Gold.Protein.RotatedTorsions>
[ 6579 6563 6564 6565 ] final  149.30 input  113.83 | X-H torsion
[ 6671 6647 6648 6649 ] final  176.67 input  129.80 | X-H torsion
[ 8031 8015 8016 8017 ] final  -88.41 input   49.80 | X-H torsion
[ 8111 8093 8094 8095 ] final  170.03 input   98.11 | X-H torsion
[ 8171 8157 8158 8159 ] final  -78.78 input   64.44 | X-H torsion
[ 8251 8229 8230 8231 ] final  -24.01 input   84.12 | X-H torsion
[ 9544 9530 9529 9527 ] final  -48.12 input   60.01 | X-H torsion
[ 8327 8303 8304 8305 ] final   97.76 input  100.38 | X-H torsion
[ 10191 10175 10176 10177 ] final   48.45 input   40.16 | X-H torsion
[ 7947 7929 7930 7931 ] final   50.59 input   72.92 | X-H torsion
[ 7891 7879 7880 7881 ] final  -74.55 input   93.72 | X-H torsion
[ 7895 7884 7883 7880 ] final  -70.52 input   60.02 | X-H torsion
[ 6811 6793 6794 6795 ] final   13.12 input  121.38 | X-H torsion
[ 27200 6326 6325 6324 ] final  148.43 input    0.00 | X-H torsion
[ 27203 6566 6565 6564 ] final  110.80 input   -0.00 | X-H torsion
[ 27206 7882 7881 7880 ] final   52.53 input   -0.00 | X-H torsion
[ 27208 7932 7931 7930 ] final  -76.41 input    0.00 | X-H torsion
[ 27211 8018 8017 8016 ] final  -80.69 input    0.00 | X-H torsion
[ 27214 8096 8095 8094 ] final -103.65 input   -0.00 | X-H torsion
[ 27217 8160 8159 8158 ] final  -74.33 input    0.00 | X-H torsion
[ 27222 10090 10089 10088 ] final  128.28 input    0.00 | X-H torsion
[ 27224 10178 10177 10176 ] final  -79.43 input   -0.00 | X-H torsion
[ 27229 7724 7723 7722 ] final   10.66 input    0.00 | X-H torsion
[ 27231 7802 7801 7800 ] final   46.13 input    0.00 | X-H torsion

> <Gold.Protein.ActiveResidues>
 ASP403  THR404  ILE407  TYR408  ALA410  LYS411  TRP414  GLN425  TRP426  SER427 
 LYS428  LEU429  GLN430  VAL431  PHE432  ASP433  TYR453  SER462  ALA463  ILE464 

> <Gold.Protein.RotatedAtoms>
  217.3483   42.4758   18.0305 H   0  0  0  0  0  0  0  0  0  0  0  0  # atno 6579 bound_to 6563
  219.9121   43.1882   20.2625 H   0  0  0  0  0  0  0  0  0  0  0  0  # atno 6671 bound_to 6647
  221.7009   37.6148   20.7165 H   0  0  0  0  0  0  0  0  0  0  0  0  # atno 6811 bound_to 6793
  229.3459   38.8198   19.4204 H   0  0  0  0  0  0  0  0  0  0  0  0  # atno 7891 bound_to 7879
  231.5574   41.6156   20.2569 H   0  0  0  0  0  0  0  0  0  0  0  0  # atno 7895 bound_to 7884
  229.9584   39.7994   17.4949 H   0  0  0  0  0  0  0  0  0  0  0  0  # atno 7947 bound_to 7929
  228.3959   40.5127   14.5784 H   0  0  0  0  0  0  0  0  0  0  0  0  # atno 8031 bound_to 8015
  226.4782   39.9973   12.2693 H   0  0  0  0  0  0  0  0  0  0  0  0  # atno 8111 bound_to 8093
  222.6911   40.0429   11.4285 H   0  0  0  0  0  0  0  0  0  0  0  0  # atno 8171 bound_to 8157
  219.1074   39.3467   11.7027 H   0  0  0  0  0  0  0  0  0  0  0  0  # atno 8251 bound_to 8229
  216.3903   41.1188   10.3393 H   0  0  0  0  0  0  0  0  0  0  0  0  # atno 8327 bound_to 8303
  228.2478   42.0622    7.3861 H   0  0  0  0  0  0  0  0  0  0  0  0  # atno 9544 bound_to 9530
  222.6411   36.6460   11.5457 H   0  0  0  0  0  0  0  0  0  0  0  0  # atno 10191 bound_to 10175
  217.1101   44.3338   18.0694 LP  0  0  0  0  0  0  0  0  0  0  0  0  # atno 27200 bound_to 6326
  215.7529   43.3041   17.7566 LP  0  0  0  0  0  0  0  0  0  0  0  0  # atno 27201 bound_to 6326
  217.5797   41.2688   19.2740 LP  0  0  0  0  0  0  0  0  0  0  0  0  # atno 27202 bound_to 6563
  221.9945   40.7781   19.5911 LP  0  0  0  0  0  0  0  0  0  0  0  0  # atno 27203 bound_to 6566
  220.7140   39.6200   19.4529 LP  0  0  0  0  0  0  0  0  0  0  0  0  # atno 27204 bound_to 6566
  219.4981   41.5063   20.0298 LP  0  0  0  0  0  0  0  0  0  0  0  0  # atno 27205 bound_to 6647
  228.6502   43.3502   18.3286 LP  0  0  0  0  0  0  0  0  0  0  0  0  # atno 27206 bound_to 7882
  227.8158   42.5092   17.0650 LP  0  0  0  0  0  0  0  0  0  0  0  0  # atno 27207 bound_to 7882
  229.8231   39.3487   13.5073 LP  0  0  0  0  0  0  0  0  0  0  0  0  # atno 27208 bound_to 7932
  229.3825   38.2406   14.7635 LP  0  0  0  0  0  0  0  0  0  0  0  0  # atno 27209 bound_to 7932
  227.3947   40.6402   16.0086 LP  0  0  0  0  0  0  0  0  0  0  0  0  # atno 27210 bound_to 8015
  224.1765   40.8428   14.7410 LP  0  0  0  0  0  0  0  0  0  0  0  0  # atno 27211 bound_to 8018
  225.2890   41.9845   14.0634 LP  0  0  0  0  0  0  0  0  0  0  0  0  # atno 27212 bound_to 8018
  225.2348   39.1142   13.1163 LP  0  0  0  0  0  0  0  0  0  0  0  0  # atno 27213 bound_to 8093
  222.6352   38.0213   11.0177 LP  0  0  0  0  0  0  0  0  0  0  0  0  # atno 27214 bound_to 8096
  223.3872   37.9161   12.5744 LP  0  0  0  0  0  0  0  0  0  0  0  0  # atno 27215 bound_to 8096
  222.4534   41.3131   12.6046 LP  0  0  0  0  0  0  0  0  0  0  0  0  # atno 27216 bound_to 8157
  218.8105   41.9218   11.9595 LP  0  0  0  0  0  0  0  0  0  0  0  0  # atno 27217 bound_to 8160
  219.7245   42.0223   10.4917 LP  0  0  0  0  0  0  0  0  0  0  0  0  # atno 27218 bound_to 8160
  220.2384   39.1498   10.3862 LP  0  0  0  0  0  0  0  0  0  0  0  0  # atno 27219 bound_to 8229
  227.7276   41.0213    8.5235 LP  0  0  0  0  0  0  0  0  0  0  0  0  # atno 27220 bound_to 9530
  226.8529   42.3545    8.1713 LP  0  0  0  0  0  0  0  0  0  0  0  0  # atno 27221 bound_to 9530
  226.5663   38.0911   10.1120 LP  0  0  0  0  0  0  0  0  0  0  0  0  # atno 27222 bound_to 10090
  227.4731   38.2482   11.5793 LP  0  0  0  0  0  0  0  0  0  0  0  0  # atno 27223 bound_to 10090
  219.9252   37.2419   11.8529 LP  0  0  0  0  0  0  0  0  0  0  0  0  # atno 27224 bound_to 10178
  220.3741   37.0834   10.1876 LP  0  0  0  0  0  0  0  0  0  0  0  0  # atno 27225 bound_to 10178
  216.7007   39.4054   10.5327 LP  0  0  0  0  0  0  0  0  0  0  0  0  # atno 27226 bound_to 8303
  223.5232   35.1952   11.1185 LP  0  0  0  0  0  0  0  0  0  0  0  0  # atno 27227 bound_to 10175
  229.5331   41.4458   17.9045 LP  0  0  0  0  0  0  0  0  0  0  0  0  # atno 27228 bound_to 7929
  231.3279   38.1201   16.4836 LP  0  0  0  0  0  0  0  0  0  0  0  0  # atno 27229 bound_to 7724
  230.1238   38.4416   17.6864 LP  0  0  0  0  0  0  0  0  0  0  0  0  # atno 27230 bound_to 7724
  227.2812   37.9492   19.5975 LP  0  0  0  0  0  0  0  0  0  0  0  0  # atno 27231 bound_to 7802
  227.6744   39.1182   18.3815 LP  0  0  0  0  0  0  0  0  0  0  0  0  # atno 27232 bound_to 7802
  230.6707   39.6698   20.1690 LP  0  0  0  0  0  0  0  0  0  0  0  0  # atno 27233 bound_to 7879
  231.2416   43.1774   20.5867 LP  0  0  0  0  0  0  0  0  0  0  0  0  # atno 27234 bound_to 7884
  230.9258   42.5731   19.1029 LP  0  0  0  0  0  0  0  0  0  0  0  0  # atno 27235 bound_to 7884

> <Gold.Score>
     Fitness  S(hb_ext) S(vdw_ext)  S(hb_int)    S(int)      intcor
     18.68       3.30      11.80       0.00      -0.85      -0.76

> <Gold.Goldscore.Fitness>
18.6797

> <Gold.Goldscore.Internal.Vdw>
-1.0831

> <Gold.Goldscore.Internal.Torsion>
-0.5249

> <Gold.Goldscore.External.Vdw>
11.8002

> <Gold.Goldscore.Internal.HBond>
0.0000

> <Gold.Goldscore.External.HBond>
3.3039

> <Gold.Goldscore.Internal.Correction>
-0.7585

> <Gold.Goldscore.Hbonds>
donor molecule, donor type, donor heavy atom, donor atom, acceptor molecule, acceptor atom, score
      P1  H  8093  8111       L1    17  0.65
      L1  H     8    22       P1  8018  1.00

> <Gold.Goldscore.Internal.Vdw.Weighted>
-1.0831

> <Gold.Goldscore.Internal.Torsion.Weighted>
-0.5249

> <Gold.Goldscore.External.Vdw.Weighted>
16.2253

> <Gold.Goldscore.Internal.HBond.Weighted>
0.0000

> <Gold.Goldscore.External.HBond.Weighted>
3.3039

> <Gold.Goldscore.Internal.Correction.Weighted>
-0.7585

> <Gold.Rescore>
     Score     S(PLP)   S(hbond)     S(cho)   S(metal)  DE(clash)   DE(tors)     intcor
     17.21     -11.99       2.45       0.00       0.00       0.00       1.06       ----

> <Gold.PLP.Fitness>
17.2108

> <Gold.PLP.PLP>
-11.9907

> <Gold.PLP.part.hbond>
-2.9784

> <Gold.PLP.part.metal>
0.0000

> <Gold.PLP.part.buried>
-3.1854

> <Gold.PLP.part.nonpolar>
-6.7126

> <Gold.PLP.part.repulsive>
0.3612

> <Gold.PLP.ligand.clash>
0.0000

> <Gold.PLP.ligand.torsion>
1.0587

> <Gold.PLP.Chemscore.Hbond>
2.4459

> <Gold.PLP.Chemscore.CHOScore>
0.0000

> <Gold.PLP.Chemscore.Metal>
0.0000

> <Gold.Chemscore.Hbonds>
donor molecule, donor type, donor heavy atom, donor atom, acceptor molecule, acceptor atom, score
      L1  H     8    22       P1  8018  0.55
      P1  H  6801  6822       L1     9  0.39
      P1  H  8015  8031       L1    17  0.02
      P1  H  8093  8111       L1    17  1.00

> <Gold.PLP.Chemscore.Internal.Correction>
   9.000000E+99

