#       Name:                CT1002167954
#       Creating user name   hitesit
#       Creation time:       Sun Apr 16 20:27:16 2023


#       File generated by GOLD software.
#

@<TRIPOS>MOLECULE
CT1002167954|ligand_prepared|mol2|1|dock3
    29    30     1
SMALL
NO_CHARGES


@<TRIPOS>ATOM
      1 C1         229.3579  43.2493  11.1788 C.3            1 RES1               0.0000
      2 C2         229.2705  43.7981   9.7401 C.ar           1 RES1               0.0000
      3 C3         228.8824  44.3727  12.0955 C.2            1 RES1               0.0000
      4 C4         228.4796  42.0035  11.2143 C.2            1 RES1               0.0000
      5 C5         230.7866  42.8389  11.6053 C.3            1 RES1               0.0000
      6 C6         230.0293  43.2338   8.7191 C.ar           1 RES1               0.0000
      7 C7         228.4351  44.8646   9.4185 C.ar           1 RES1               0.0000
      8 N8         227.6475  44.2472  12.6605 N.am           1 RES1               0.0000
      9 O9         229.5641  45.3718  12.2883 O.2            1 RES1               0.0000
     10 N10        227.3564  42.0319  11.9987 N.am           1 RES1               0.0000
     11 O11        228.7411  41.0036  10.5571 O.2            1 RES1               0.0000
     12 C12        231.8515  43.8636  11.2472 C.3            1 RES1               0.0000
     13 C13        229.9536  43.7161   7.4230 C.ar           1 RES1               0.0000
     14 C14        228.3611  45.3455   8.1217 C.ar           1 RES1               0.0000
     15 C15        226.8841  43.1082  12.6994 C.2            1 RES1               0.0000
     16 C16        229.1192  44.7719   7.1233 C.ar           1 RES1               0.0000
     17 O17        225.8364  43.0727  13.3384 O.2            1 RES1               0.0000
     18 H18        230.7994  42.6809  12.6907 H              1 RES1               0.0000
     19 H19        231.0384  41.8854  11.1246 H              1 RES1               0.0000
     20 H20        230.6934  42.4038   8.9364 H              1 RES1               0.0000
     21 H21        227.8303  45.3322  10.1881 H              1 RES1               0.0000
     22 H22        227.2554  45.0770  13.0940 H              1 RES1               0.0000
     23 H23        226.8230  41.1710  12.0667 H              1 RES1               0.0000
     24 H24        232.8348  43.5264  11.5685 H              1 RES1               0.0000
     25 H25        231.8838  44.0267  10.1720 H              1 RES1               0.0000
     26 H26        231.6463  44.8174  11.7288 H              1 RES1               0.0000
     27 H27        230.5534  43.2620   6.6411 H              1 RES1               0.0000
     28 H28        227.7035  46.1770   7.8906 H              1 RES1               0.0000
     29 H29        229.0598  45.1493   6.1078 H              1 RES1               0.0000
@<TRIPOS>BOND
    1    1    2 1     
    2    1    3 1     
    3    1    4 1     
    4    1    5 1     
    5    2    6 ar    
    6    2    7 ar    
    7    3    8 1     
    8    3    9 2     
    9    4   10 1     
   10    4   11 2     
   11    5   12 1     
   12    5   18 1     
   13    5   19 1     
   14    6   13 ar    
   15    6   20 1     
   16    7   14 ar    
   17    7   21 1     
   18    8   15 1     
   19    8   22 1     
   20   10   15 1     
   21   10   23 1     
   22   12   24 1     
   23   12   25 1     
   24   12   26 1     
   25   13   16 ar    
   26   13   27 1     
   27   14   16 ar    
   28   14   28 1     
   29   15   17 2     
   30   16   29 1     
@<TRIPOS>SUBSTRUCTURE
      1 RES1           1
@<TRIPOS>SET
DONOR_HYDROGENS      STATIC     ATOMS    <user>   **** ""
2 22 23
ATOM$RED        STATIC     ATOMS    COLORGROUP SYSTEM
2 22 23
@<TRIPOS>COMMENT
> <Gold.Version>
2022.3.0

> <Gold.Id.Protein>
unknown|4v3u_clean|pdb

> <Gold.Protein.RotatedTorsions>
[ 6579 6563 6564 6565 ] final   27.70 input  113.83 | X-H torsion
[ 6671 6647 6648 6649 ] final   67.97 input  129.80 | X-H torsion
[ 8031 8015 8016 8017 ] final  -53.75 input   49.80 | X-H torsion
[ 8111 8093 8094 8095 ] final  103.22 input   98.11 | X-H torsion
[ 8171 8157 8158 8159 ] final  -52.30 input   64.44 | X-H torsion
[ 8251 8229 8230 8231 ] final  122.71 input   84.12 | X-H torsion
[ 9544 9530 9529 9527 ] final -140.81 input   60.01 | X-H torsion
[ 8327 8303 8304 8305 ] final  -67.66 input  100.38 | X-H torsion
[ 10191 10175 10176 10177 ] final  129.87 input   40.16 | X-H torsion
[ 7947 7929 7930 7931 ] final   65.43 input   72.92 | X-H torsion
[ 7891 7879 7880 7881 ] final  -54.56 input   93.72 | X-H torsion
[ 7895 7884 7883 7880 ] final   57.79 input   60.02 | X-H torsion
[ 6811 6793 6794 6795 ] final  163.51 input  121.38 | X-H torsion
[ 27200 6326 6325 6324 ] final   11.46 input    0.00 | X-H torsion
[ 27203 6566 6565 6564 ] final  101.81 input   -0.00 | X-H torsion
[ 27206 7882 7881 7880 ] final -162.19 input   -0.00 | X-H torsion
[ 27208 7932 7931 7930 ] final  116.08 input    0.00 | X-H torsion
[ 27211 8018 8017 8016 ] final  155.52 input    0.00 | X-H torsion
[ 27214 8096 8095 8094 ] final  -88.76 input   -0.00 | X-H torsion
[ 27217 8160 8159 8158 ] final  128.67 input    0.00 | X-H torsion
[ 27222 10090 10089 10088 ] final -106.33 input    0.00 | X-H torsion
[ 27224 10178 10177 10176 ] final  -39.84 input   -0.00 | X-H torsion
[ 27229 7724 7723 7722 ] final  169.90 input    0.00 | X-H torsion
[ 27231 7802 7801 7800 ] final  160.42 input    0.00 | X-H torsion

> <Gold.Protein.ActiveResidues>
 ASP403  THR404  ILE407  TYR408  ALA410  LYS411  TRP414  GLN425  TRP426  SER427 
 LYS428  LEU429  GLN430  VAL431  PHE432  ASP433  TYR453  SER462  ALA463  ILE464 

> <Gold.Protein.RotatedAtoms>
  217.6543   42.0891   19.4964 H   0  0  0  0  0  0  0  0  0  0  0  0  # atno 6579 bound_to 6563
  218.8942   42.1965   20.4734 H   0  0  0  0  0  0  0  0  0  0  0  0  # atno 6671 bound_to 6647
  221.9303   38.5830   19.3199 H   0  0  0  0  0  0  0  0  0  0  0  0  # atno 6811 bound_to 6793
  229.5151   38.8799   19.1754 H   0  0  0  0  0  0  0  0  0  0  0  0  # atno 7891 bound_to 7879
  230.9030   42.7003   19.1462 H   0  0  0  0  0  0  0  0  0  0  0  0  # atno 7895 bound_to 7884
  230.1714   39.8811   17.5137 H   0  0  0  0  0  0  0  0  0  0  0  0  # atno 7947 bound_to 7929
  228.0536   40.9088   14.4967 H   0  0  0  0  0  0  0  0  0  0  0  0  # atno 8031 bound_to 8015
  226.1609   39.1268   11.9926 H   0  0  0  0  0  0  0  0  0  0  0  0  # atno 8111 bound_to 8093
  222.5124   40.3357   11.2138 H   0  0  0  0  0  0  0  0  0  0  0  0  # atno 8171 bound_to 8157
  220.0665   38.6884   10.4752 H   0  0  0  0  0  0  0  0  0  0  0  0  # atno 8251 bound_to 8229
  216.5835   39.3582   10.3444 H   0  0  0  0  0  0  0  0  0  0  0  0  # atno 8327 bound_to 8303
  228.0811   41.0371    8.2559 H   0  0  0  0  0  0  0  0  0  0  0  0  # atno 9544 bound_to 9530
  223.3349   35.9656   12.1829 H   0  0  0  0  0  0  0  0  0  0  0  0  # atno 10191 bound_to 10175
  216.0022   43.5310   17.2181 LP  0  0  0  0  0  0  0  0  0  0  0  0  # atno 27200 bound_to 6326
  216.8607   44.1069   18.6078 LP  0  0  0  0  0  0  0  0  0  0  0  0  # atno 27201 bound_to 6326
  217.2819   41.6453   17.8468 LP  0  0  0  0  0  0  0  0  0  0  0  0  # atno 27202 bound_to 6563
  221.9950   40.7778   19.4553 LP  0  0  0  0  0  0  0  0  0  0  0  0  # atno 27203 bound_to 6566
  220.7135   39.6203   19.5887 LP  0  0  0  0  0  0  0  0  0  0  0  0  # atno 27204 bound_to 6566
  220.4925   42.4752   19.8238 LP  0  0  0  0  0  0  0  0  0  0  0  0  # atno 27205 bound_to 6647
  228.2504   42.7011   16.8617 LP  0  0  0  0  0  0  0  0  0  0  0  0  # atno 27206 bound_to 7882
  228.2156   43.1583   18.5319 LP  0  0  0  0  0  0  0  0  0  0  0  0  # atno 27207 bound_to 7882
  229.2245   38.2212   14.6627 LP  0  0  0  0  0  0  0  0  0  0  0  0  # atno 27208 bound_to 7932
  229.9811   39.3681   13.6081 LP  0  0  0  0  0  0  0  0  0  0  0  0  # atno 27209 bound_to 7932
  227.7261   40.2567   16.0878 LP  0  0  0  0  0  0  0  0  0  0  0  0  # atno 27210 bound_to 8015
  224.6345   41.7772   13.6223 LP  0  0  0  0  0  0  0  0  0  0  0  0  # atno 27211 bound_to 8018
  224.8309   41.0501   15.1820 LP  0  0  0  0  0  0  0  0  0  0  0  0  # atno 27212 bound_to 8018
  225.5478   39.9730   13.3894 LP  0  0  0  0  0  0  0  0  0  0  0  0  # atno 27213 bound_to 8093
  222.8476   38.0069   10.9465 LP  0  0  0  0  0  0  0  0  0  0  0  0  # atno 27214 bound_to 8096
  223.1748   37.9305   12.6456 LP  0  0  0  0  0  0  0  0  0  0  0  0  # atno 27215 bound_to 8096
  222.6281   41.0267   12.8146 LP  0  0  0  0  0  0  0  0  0  0  0  0  # atno 27216 bound_to 8157
  219.4187   41.9125   10.3749 LP  0  0  0  0  0  0  0  0  0  0  0  0  # atno 27217 bound_to 8160
  219.1163   42.0316   12.0762 LP  0  0  0  0  0  0  0  0  0  0  0  0  # atno 27218 bound_to 8160
  219.2992   39.7945   11.5882 LP  0  0  0  0  0  0  0  0  0  0  0  0  # atno 27219 bound_to 8229
  226.7981   42.0176    8.4572 LP  0  0  0  0  0  0  0  0  0  0  0  0  # atno 27220 bound_to 9530
  227.9503   42.3905    7.3618 LP  0  0  0  0  0  0  0  0  0  0  0  0  # atno 27221 bound_to 9530
  226.6876   38.1481   11.6452 LP  0  0  0  0  0  0  0  0  0  0  0  0  # atno 27222 bound_to 10090
  227.3518   38.1912   10.0461 LP  0  0  0  0  0  0  0  0  0  0  0  0  # atno 27223 bound_to 10090
  220.5075   37.2865   11.7991 LP  0  0  0  0  0  0  0  0  0  0  0  0  # atno 27224 bound_to 10178
  219.7918   37.0388   10.2414 LP  0  0  0  0  0  0  0  0  0  0  0  0  # atno 27225 bound_to 10178
  216.5148   41.0991   10.5278 LP  0  0  0  0  0  0  0  0  0  0  0  0  # atno 27226 bound_to 8303
  222.8536   35.8521   10.5034 LP  0  0  0  0  0  0  0  0  0  0  0  0  # atno 27227 bound_to 10175
  229.3260   41.3664   17.8861 LP  0  0  0  0  0  0  0  0  0  0  0  0  # atno 27228 bound_to 7929
  230.0286   38.1624   17.5848 LP  0  0  0  0  0  0  0  0  0  0  0  0  # atno 27229 bound_to 7724
  231.4231   38.3993   16.5852 LP  0  0  0  0  0  0  0  0  0  0  0  0  # atno 27230 bound_to 7724
  227.3839   39.3565   19.2428 LP  0  0  0  0  0  0  0  0  0  0  0  0  # atno 27231 bound_to 7802
  227.5717   37.7109   18.7362 LP  0  0  0  0  0  0  0  0  0  0  0  0  # atno 27232 bound_to 7802
  230.5030   39.6102   20.4119 LP  0  0  0  0  0  0  0  0  0  0  0  0  # atno 27233 bound_to 7879
  231.5319   41.5685   20.1317 LP  0  0  0  0  0  0  0  0  0  0  0  0  # atno 27234 bound_to 7884
  231.2947   43.0893   20.6769 LP  0  0  0  0  0  0  0  0  0  0  0  0  # atno 27235 bound_to 7884

> <Gold.Score>
     Fitness  S(hb_ext) S(vdw_ext)  S(hb_int)    S(int)      intcor
     16.39       0.84      13.81       0.00      -3.44      -0.77

> <Gold.Goldscore.Fitness>
16.3919

> <Gold.Goldscore.Internal.Vdw>
-3.5274

> <Gold.Goldscore.Internal.Torsion>
-0.6813

> <Gold.Goldscore.External.Vdw>
13.8097

> <Gold.Goldscore.Internal.HBond>
0.0000

> <Gold.Goldscore.External.HBond>
0.8436

> <Gold.Goldscore.Internal.Correction>
-0.7686

> <Gold.Goldscore.Hbonds>
donor molecule, donor type, donor heavy atom, donor atom, acceptor molecule, acceptor atom, score
      L1  H    10    23       P1  8093  0.14

> <Gold.Goldscore.Internal.Vdw.Weighted>
-3.5274

> <Gold.Goldscore.Internal.Torsion.Weighted>
-0.6813

> <Gold.Goldscore.External.Vdw.Weighted>
18.9884

> <Gold.Goldscore.Internal.HBond.Weighted>
0.0000

> <Gold.Goldscore.External.HBond.Weighted>
0.8436

> <Gold.Goldscore.Internal.Correction.Weighted>
-0.7686

> <Gold.Rescore>
     Score     S(PLP)   S(hbond)     S(cho)   S(metal)  DE(clash)   DE(tors)     intcor
     23.82     -23.24       0.78       0.00       0.00       0.02       0.88       ----

> <Gold.PLP.Fitness>
23.8164

> <Gold.PLP.PLP>
-23.2393

> <Gold.PLP.part.hbond>
-1.4902

> <Gold.PLP.part.metal>
0.0000

> <Gold.PLP.part.buried>
-6.3408

> <Gold.PLP.part.nonpolar>
-14.8726

> <Gold.PLP.part.repulsive>
0.3078

> <Gold.PLP.ligand.clash>
0.0194

> <Gold.PLP.ligand.torsion>
0.8777

> <Gold.PLP.Chemscore.Hbond>
0.7840

> <Gold.PLP.Chemscore.CHOScore>
0.0000

> <Gold.PLP.Chemscore.Metal>
0.0000

> <Gold.Chemscore.Hbonds>
donor molecule, donor type, donor heavy atom, donor atom, acceptor molecule, acceptor atom, score
      L1  H    10    23       P1  8093  0.25
      P1  H  9530  9544       L1    11  0.15

> <Gold.PLP.Chemscore.Internal.Correction>
   9.000000E+99

