#       Name:                CT1002167954
#       Creating user name   hitesit
#       Creation time:       Sun Apr 16 20:27:18 2023


#       File generated by GOLD software.
#

@<TRIPOS>MOLECULE
CT1002167954|ligand_prepared|mol2|1|dock6
    29    30     1
SMALL
NO_CHARGES


@<TRIPOS>ATOM
      1 C1         228.2502  43.7499  11.8019 C.3            1 RES1               0.0000
      2 C2         228.8397  42.4099  11.3165 C.ar           1 RES1               0.0000
      3 C3         226.9517  43.4090  12.5272 C.2            1 RES1               0.0000
      4 C4         229.3120  44.3853  12.6927 C.2            1 RES1               0.0000
      5 C5         227.9290  44.7416  10.6596 C.3            1 RES1               0.0000
      6 C6         228.6818  41.2514  12.0712 C.ar           1 RES1               0.0000
      7 C7         229.5403  42.3161  10.1169 C.ar           1 RES1               0.0000
      8 N8         226.9478  43.4916  13.8884 N.am           1 RES1               0.0000
      9 O9         225.9579  43.0353  11.9165 O.2            1 RES1               0.0000
     10 N10        229.0271  44.5348  14.0247 N.am           1 RES1               0.0000
     11 O11        230.3992  44.7427  12.2563 O.2            1 RES1               0.0000
     12 C12        227.0767  45.9232  11.0949 C.3            1 RES1               0.0000
     13 C13        229.2028  40.0423  11.6411 C.ar           1 RES1               0.0000
     14 C14        230.0608  41.1061   9.6887 C.ar           1 RES1               0.0000
     15 C15        227.9052  44.0887  14.6686 C.2            1 RES1               0.0000
     16 C16        229.8922  39.9687  10.4494 C.ar           1 RES1               0.0000
     17 O17        227.7451  44.2118  15.8796 O.2            1 RES1               0.0000
     18 H18        228.8716  45.1198  10.2449 H              1 RES1               0.0000
     19 H19        227.4039  44.2026   9.8613 H              1 RES1               0.0000
     20 H20        228.1443  41.2904  13.0129 H              1 RES1               0.0000
     21 H21        229.6862  43.1981   9.5026 H              1 RES1               0.0000
     22 H22        226.1604  43.0704  14.3710 H              1 RES1               0.0000
     23 H23        229.7150  45.0240  14.5884 H              1 RES1               0.0000
     24 H24        226.8809  46.5875  10.2558 H              1 RES1               0.0000
     25 H25        226.1209  45.5848  11.4895 H              1 RES1               0.0000
     26 H26        227.5799  46.4965  11.8708 H              1 RES1               0.0000
     27 H27        229.0685  39.1504  12.2441 H              1 RES1               0.0000
     28 H28        230.6032  41.0529   8.7505 H              1 RES1               0.0000
     29 H29        230.2999  39.0214  10.1125 H              1 RES1               0.0000
@<TRIPOS>BOND
    1    1    2 1     
    2    1    3 1     
    3    1    4 1     
    4    1    5 1     
    5    2    6 ar    
    6    2    7 ar    
    7    3    8 1     
    8    3    9 2     
    9    4   10 1     
   10    4   11 2     
   11    5   12 1     
   12    5   18 1     
   13    5   19 1     
   14    6   13 ar    
   15    6   20 1     
   16    7   14 ar    
   17    7   21 1     
   18    8   15 1     
   19    8   22 1     
   20   10   15 1     
   21   10   23 1     
   22   12   24 1     
   23   12   25 1     
   24   12   26 1     
   25   13   16 ar    
   26   13   27 1     
   27   14   16 ar    
   28   14   28 1     
   29   15   17 2     
   30   16   29 1     
@<TRIPOS>SUBSTRUCTURE
      1 RES1           1
@<TRIPOS>SET
DONOR_HYDROGENS      STATIC     ATOMS    <user>   **** ""
2 22 23
ATOM$RED        STATIC     ATOMS    COLORGROUP SYSTEM
2 22 23
@<TRIPOS>COMMENT
> <Gold.Version>
2022.3.0

> <Gold.Id.Protein>
unknown|4v3u_clean|pdb

> <Gold.Protein.RotatedTorsions>
[ 6579 6563 6564 6565 ] final    9.87 input  113.83 | X-H torsion
[ 6671 6647 6648 6649 ] final   50.20 input  129.80 | X-H torsion
[ 8031 8015 8016 8017 ] final   88.55 input   49.80 | X-H torsion
[ 8111 8093 8094 8095 ] final -114.32 input   98.11 | X-H torsion
[ 8171 8157 8158 8159 ] final   67.58 input   64.44 | X-H torsion
[ 8251 8229 8230 8231 ] final   40.28 input   84.12 | X-H torsion
[ 9544 9530 9529 9527 ] final   71.10 input   60.01 | X-H torsion
[ 8327 8303 8304 8305 ] final  150.28 input  100.38 | X-H torsion
[ 10191 10175 10176 10177 ] final  -37.95 input   40.16 | X-H torsion
[ 7947 7929 7930 7931 ] final  -77.35 input   72.92 | X-H torsion
[ 7891 7879 7880 7881 ] final  178.37 input   93.72 | X-H torsion
[ 7895 7884 7883 7880 ] final   59.05 input   60.02 | X-H torsion
[ 6811 6793 6794 6795 ] final   34.77 input  121.38 | X-H torsion
[ 27200 6326 6325 6324 ] final  -60.81 input    0.00 | X-H torsion
[ 27203 6566 6565 6564 ] final  124.01 input   -0.00 | X-H torsion
[ 27206 7882 7881 7880 ] final    0.04 input   -0.00 | X-H torsion
[ 27208 7932 7931 7930 ] final  -28.55 input    0.00 | X-H torsion
[ 27211 8018 8017 8016 ] final   76.60 input    0.00 | X-H torsion
[ 27214 8096 8095 8094 ] final  149.12 input   -0.00 | X-H torsion
[ 27217 8160 8159 8158 ] final   86.45 input    0.00 | X-H torsion
[ 27222 10090 10089 10088 ] final  112.67 input    0.00 | X-H torsion
[ 27224 10178 10177 10176 ] final  124.21 input   -0.00 | X-H torsion
[ 27229 7724 7723 7722 ] final   18.78 input    0.00 | X-H torsion
[ 27231 7802 7801 7800 ] final -157.61 input    0.00 | X-H torsion

> <Gold.Protein.ActiveResidues>
 ASP403  THR404  ILE407  TYR408  ALA410  LYS411  TRP414  GLN425  TRP426  SER427 
 LYS428  LEU429  GLN430  VAL431  PHE432  ASP433  TYR453  SER462  ALA463  ILE464 

> <Gold.Protein.RotatedAtoms>
  217.6551   41.8160   19.5246 H   0  0  0  0  0  0  0  0  0  0  0  0  # atno 6579 bound_to 6563
  218.9493   41.9434   20.3869 H   0  0  0  0  0  0  0  0  0  0  0  0  # atno 6671 bound_to 6647
  221.6555   37.9420   20.7589 H   0  0  0  0  0  0  0  0  0  0  0  0  # atno 6811 bound_to 6793
  229.8512   39.2651   20.6566 H   0  0  0  0  0  0  0  0  0  0  0  0  # atno 7891 bound_to 7879
  230.9001   42.7194   19.1533 H   0  0  0  0  0  0  0  0  0  0  0  0  # atno 7895 bound_to 7884
  228.9316   40.9841   17.7826 H   0  0  0  0  0  0  0  0  0  0  0  0  # atno 7947 bound_to 7929
  227.3434   40.6658   16.0035 H   0  0  0  0  0  0  0  0  0  0  0  0  # atno 8031 bound_to 8015
  225.9462   40.2936   13.1577 H   0  0  0  0  0  0  0  0  0  0  0  0  # atno 8111 bound_to 8093
  222.2618   41.4986   12.1746 H   0  0  0  0  0  0  0  0  0  0  0  0  # atno 8171 bound_to 8157
  219.2848   38.5088   11.3175 H   0  0  0  0  0  0  0  0  0  0  0  0  # atno 8251 bound_to 8229
  216.7347   40.9002   11.0159 H   0  0  0  0  0  0  0  0  0  0  0  0  # atno 8327 bound_to 8303
  226.8611   42.3575    8.1596 H   0  0  0  0  0  0  0  0  0  0  0  0  # atno 9544 bound_to 9530
  222.7291   35.9946   10.5185 H   0  0  0  0  0  0  0  0  0  0  0  0  # atno 10191 bound_to 10175
  215.7915   43.3065   18.1920 LP  0  0  0  0  0  0  0  0  0  0  0  0  # atno 27200 bound_to 6326
  217.0714   44.3314   17.6340 LP  0  0  0  0  0  0  0  0  0  0  0  0  # atno 27201 bound_to 6326
  217.2810   41.9111   17.8194 LP  0  0  0  0  0  0  0  0  0  0  0  0  # atno 27202 bound_to 6563
  221.9654   40.7528   19.7864 LP  0  0  0  0  0  0  0  0  0  0  0  0  # atno 27203 bound_to 6566
  220.7431   39.6453   19.2576 LP  0  0  0  0  0  0  0  0  0  0  0  0  # atno 27204 bound_to 6566
  220.4387   42.7225   19.9083 LP  0  0  0  0  0  0  0  0  0  0  0  0  # atno 27205 bound_to 6647
  227.9852   43.0227   18.5214 LP  0  0  0  0  0  0  0  0  0  0  0  0  # atno 27206 bound_to 7882
  228.4808   42.8366   16.8722 LP  0  0  0  0  0  0  0  0  0  0  0  0  # atno 27207 bound_to 7882
  230.3101   39.2780   14.0086 LP  0  0  0  0  0  0  0  0  0  0  0  0  # atno 27208 bound_to 7932
  228.8954   38.3113   14.2622 LP  0  0  0  0  0  0  0  0  0  0  0  0  # atno 27209 bound_to 7932
  228.4136   40.4919   14.6292 LP  0  0  0  0  0  0  0  0  0  0  0  0  # atno 27210 bound_to 8015
  225.4352   41.9188   14.3645 LP  0  0  0  0  0  0  0  0  0  0  0  0  # atno 27211 bound_to 8018
  224.0303   40.9085   14.4399 LP  0  0  0  0  0  0  0  0  0  0  0  0  # atno 27212 bound_to 8018
  225.7596   38.8218   12.2399 LP  0  0  0  0  0  0  0  0  0  0  0  0  # atno 27213 bound_to 8093
  222.3802   38.0001   12.3884 LP  0  0  0  0  0  0  0  0  0  0  0  0  # atno 27214 bound_to 8096
  223.6422   37.9374   11.2037 LP  0  0  0  0  0  0  0  0  0  0  0  0  # atno 27215 bound_to 8096
  222.8733   39.8894   11.8751 LP  0  0  0  0  0  0  0  0  0  0  0  0  # atno 27216 bound_to 8157
  219.9261   42.1086   10.6801 LP  0  0  0  0  0  0  0  0  0  0  0  0  # atno 27217 bound_to 8160
  218.6088   41.8354   11.7710 LP  0  0  0  0  0  0  0  0  0  0  0  0  # atno 27218 bound_to 8160
  220.0646   39.9703   10.7634 LP  0  0  0  0  0  0  0  0  0  0  0  0  # atno 27219 bound_to 8229
  228.2605   42.0548    7.3863 LP  0  0  0  0  0  0  0  0  0  0  0  0  # atno 27220 bound_to 9530
  227.7165   41.0236    8.5297 LP  0  0  0  0  0  0  0  0  0  0  0  0  # atno 27221 bound_to 9530
  226.7793   38.1161   10.0154 LP  0  0  0  0  0  0  0  0  0  0  0  0  # atno 27222 bound_to 10090
  227.2602   38.2232   11.6759 LP  0  0  0  0  0  0  0  0  0  0  0  0  # atno 27223 bound_to 10090
  220.0213   37.0506   10.1712 LP  0  0  0  0  0  0  0  0  0  0  0  0  # atno 27224 bound_to 10178
  220.2780   37.2747   11.8694 LP  0  0  0  0  0  0  0  0  0  0  0  0  # atno 27225 bound_to 10178
  216.3694   39.6157    9.8818 LP  0  0  0  0  0  0  0  0  0  0  0  0  # atno 27226 bound_to 8303
  223.4384   35.8241   12.1101 LP  0  0  0  0  0  0  0  0  0  0  0  0  # atno 27227 bound_to 10175
  230.5311   40.2943   17.6248 LP  0  0  0  0  0  0  0  0  0  0  0  0  # atno 27228 bound_to 7929
  231.2683   38.0145   16.4646 LP  0  0  0  0  0  0  0  0  0  0  0  0  # atno 27229 bound_to 7724
  230.1835   38.5472   17.7054 LP  0  0  0  0  0  0  0  0  0  0  0  0  # atno 27230 bound_to 7724
  227.5806   39.3260   18.6553 LP  0  0  0  0  0  0  0  0  0  0  0  0  # atno 27231 bound_to 7802
  227.3750   37.7414   19.3237 LP  0  0  0  0  0  0  0  0  0  0  0  0  # atno 27232 bound_to 7802
  230.1697   39.2282   18.9433 LP  0  0  0  0  0  0  0  0  0  0  0  0  # atno 27233 bound_to 7879
  231.5268   41.5638   20.1121 LP  0  0  0  0  0  0  0  0  0  0  0  0  # atno 27234 bound_to 7884
  231.3026   43.0748   20.6893 LP  0  0  0  0  0  0  0  0  0  0  0  0  # atno 27235 bound_to 7884

> <Gold.Score>
     Fitness  S(hb_ext) S(vdw_ext)  S(hb_int)    S(int)      intcor
     28.03       0.09      20.63       0.00      -0.43      -0.76

> <Gold.Goldscore.Fitness>
28.0321

> <Gold.Goldscore.Internal.Vdw>
-0.5671

> <Gold.Goldscore.Internal.Torsion>
-0.6226

> <Gold.Goldscore.External.Vdw>
20.6322

> <Gold.Goldscore.Internal.HBond>
0.0000

> <Gold.Goldscore.External.HBond>
0.0940

> <Gold.Goldscore.Internal.Correction>
-0.7585

> <Gold.Goldscore.Hbonds>
donor molecule, donor type, donor heavy atom, donor atom, acceptor molecule, acceptor atom, score
      L1  H     8    22       P1  8018  0.05

> <Gold.Goldscore.Internal.Vdw.Weighted>
-0.5671

> <Gold.Goldscore.Internal.Torsion.Weighted>
-0.6226

> <Gold.Goldscore.External.Vdw.Weighted>
28.3693

> <Gold.Goldscore.Internal.HBond.Weighted>
0.0000

> <Gold.Goldscore.External.HBond.Weighted>
0.0940

> <Gold.Goldscore.Internal.Correction.Weighted>
-0.7585

> <Gold.Rescore>
     Score     S(PLP)   S(hbond)     S(cho)   S(metal)  DE(clash)   DE(tors)     intcor
     23.24     -25.34       0.00       0.00       0.00       0.00       1.05       ----

> <Gold.PLP.Fitness>
23.2440

> <Gold.PLP.PLP>
-25.3393

> <Gold.PLP.part.hbond>
-0.9112

> <Gold.PLP.part.metal>
0.0000

> <Gold.PLP.part.buried>
-4.4358

> <Gold.PLP.part.nonpolar>
-20.7661

> <Gold.PLP.part.repulsive>
0.3459

> <Gold.PLP.ligand.clash>
0.0000

> <Gold.PLP.ligand.torsion>
1.0476

> <Gold.PLP.Chemscore.Hbond>
0.0000

> <Gold.PLP.Chemscore.CHOScore>
0.0000

> <Gold.PLP.Chemscore.Metal>
0.0000

> <Gold.Chemscore.Hbonds>
donor molecule, donor type, donor heavy atom, donor atom, acceptor molecule, acceptor atom, score
      L1  H     8    22       P1  8018  0.26
      P1  H  6801  6821       L1    17  0.19

> <Gold.PLP.Chemscore.Internal.Correction>
   9.000000E+99

