#       Name:                CT1002167954
#       Creating user name   hitesit
#       Creation time:       Sun Apr 16 20:27:20 2023


#       File generated by GOLD software.
#

@<TRIPOS>MOLECULE
CT1002167954|ligand_prepared|mol2|1|dock10
    29    30     1
SMALL
NO_CHARGES


@<TRIPOS>ATOM
      1 C1         229.7279  43.4106  10.9753 C.3            1 RES1               0.0000
      2 C2         230.3209  44.8188  10.7647 C.ar           1 RES1               0.0000
      3 C3         229.7394  43.1616  12.4807 C.2            1 RES1               0.0000
      4 C4         228.3332  43.4388  10.3600 C.2            1 RES1               0.0000
      5 C5         230.5320  42.2844  10.2850 C.3            1 RES1               0.0000
      6 C6         229.5931  45.9532  11.1112 C.ar           1 RES1               0.0000
      7 C7         231.5932  44.9988  10.2285 C.ar           1 RES1               0.0000
      8 N8         228.5460  43.2132  13.1387 N.am           1 RES1               0.0000
      9 O9         230.7845  42.9623  13.0874 O.2            1 RES1               0.0000
     10 N10        227.2586  43.2960  11.1982 N.am           1 RES1               0.0000
     11 O11        228.1545  43.5999   9.1590 O.2            1 RES1               0.0000
     12 C12        229.8558  40.9237  10.3436 C.3            1 RES1               0.0000
     13 C13        230.1193  47.2217  10.9310 C.ar           1 RES1               0.0000
     14 C14        232.1173  46.2683  10.0488 C.ar           1 RES1               0.0000
     15 C15        227.3007  43.2152  12.5635 C.2            1 RES1               0.0000
     16 C16        231.3817  47.3801  10.4002 C.ar           1 RES1               0.0000
     17 O17        226.2874  43.1434  13.2529 O.2            1 RES1               0.0000
     18 H18        230.6887  42.5558   9.2337 H              1 RES1               0.0000
     19 H19        231.5168  42.2100  10.7625 H              1 RES1               0.0000
     20 H20        228.5970  45.8484  11.5281 H              1 RES1               0.0000
     21 H21        232.1895  44.1386   9.9439 H              1 RES1               0.0000
     22 H22        228.5829  43.2540  14.1523 H              1 RES1               0.0000
     23 H23        226.3424  43.2450  10.7642 H              1 RES1               0.0000
     24 H24        230.4616  40.1701   9.8450 H              1 RES1               0.0000
     25 H25        229.7071  40.6110  11.3751 H              1 RES1               0.0000
     26 H26        228.8839  40.9547   9.8554 H              1 RES1               0.0000
     27 H27        229.5357  48.0935  11.2078 H              1 RES1               0.0000
     28 H28        233.1111  46.3882   9.6301 H              1 RES1               0.0000
     29 H29        231.7938  48.3739  10.2594 H              1 RES1               0.0000
@<TRIPOS>BOND
    1    1    2 1     
    2    1    3 1     
    3    1    4 1     
    4    1    5 1     
    5    2    6 ar    
    6    2    7 ar    
    7    3    8 1     
    8    3    9 2     
    9    4   10 1     
   10    4   11 2     
   11    5   12 1     
   12    5   18 1     
   13    5   19 1     
   14    6   13 ar    
   15    6   20 1     
   16    7   14 ar    
   17    7   21 1     
   18    8   15 1     
   19    8   22 1     
   20   10   15 1     
   21   10   23 1     
   22   12   24 1     
   23   12   25 1     
   24   12   26 1     
   25   13   16 ar    
   26   13   27 1     
   27   14   16 ar    
   28   14   28 1     
   29   15   17 2     
   30   16   29 1     
@<TRIPOS>SUBSTRUCTURE
      1 RES1           1
@<TRIPOS>SET
DONOR_HYDROGENS      STATIC     ATOMS    <user>   **** ""
2 22 23
ATOM$RED        STATIC     ATOMS    COLORGROUP SYSTEM
2 22 23
@<TRIPOS>COMMENT
> <Gold.Version>
2022.3.0

> <Gold.Id.Protein>
unknown|4v3u_clean|pdb

> <Gold.Protein.RotatedTorsions>
[ 6579 6563 6564 6565 ] final -127.75 input  113.83 | X-H torsion
[ 6671 6647 6648 6649 ] final -170.90 input  129.80 | X-H torsion
[ 8031 8015 8016 8017 ] final   50.64 input   49.80 | X-H torsion
[ 8111 8093 8094 8095 ] final  165.71 input   98.11 | X-H torsion
[ 8171 8157 8158 8159 ] final   65.58 input   64.44 | X-H torsion
[ 8251 8229 8230 8231 ] final  119.64 input   84.12 | X-H torsion
[ 9544 9530 9529 9527 ] final    3.44 input   60.01 | X-H torsion
[ 8327 8303 8304 8305 ] final   21.85 input  100.38 | X-H torsion
[ 10191 10175 10176 10177 ] final  164.07 input   40.16 | X-H torsion
[ 7947 7929 7930 7931 ] final  179.40 input   72.92 | X-H torsion
[ 7891 7879 7880 7881 ] final  171.64 input   93.72 | X-H torsion
[ 7895 7884 7883 7880 ] final   19.86 input   60.02 | X-H torsion
[ 6811 6793 6794 6795 ] final   77.81 input  121.38 | X-H torsion
[ 27200 6326 6325 6324 ] final -106.76 input    0.00 | X-H torsion
[ 27203 6566 6565 6564 ] final   86.60 input   -0.00 | X-H torsion
[ 27206 7882 7881 7880 ] final   60.38 input   -0.00 | X-H torsion
[ 27208 7932 7931 7930 ] final  -49.68 input    0.00 | X-H torsion
[ 27211 8018 8017 8016 ] final  -74.97 input    0.00 | X-H torsion
[ 27214 8096 8095 8094 ] final -137.26 input   -0.00 | X-H torsion
[ 27217 8160 8159 8158 ] final  123.08 input    0.00 | X-H torsion
[ 27222 10090 10089 10088 ] final   54.47 input    0.00 | X-H torsion
[ 27224 10178 10177 10176 ] final  -88.09 input   -0.00 | X-H torsion
[ 27229 7724 7723 7722 ] final   -4.83 input    0.00 | X-H torsion
[ 27231 7802 7801 7800 ] final   56.17 input    0.00 | X-H torsion

> <Gold.Protein.ActiveResidues>
 ASP403  THR404  ILE407  TYR408  ALA410  LYS411  TRP414  GLN425  TRP426  SER427 
 LYS428  LEU429  GLN430  VAL431  PHE432  ASP433  TYR453  SER462  ALA463  ILE464 

> <Gold.Protein.RotatedAtoms>
  217.3177   41.3035   17.9909 H   0  0  0  0  0  0  0  0  0  0  0  0  # atno 6579 bound_to 6563
  220.0758   43.1382   20.1773 H   0  0  0  0  0  0  0  0  0  0  0  0  # atno 6671 bound_to 6647
  221.6549   38.5360   20.4933 H   0  0  0  0  0  0  0  0  0  0  0  0  # atno 6811 bound_to 6793
  229.9403   39.3155   20.6660 H   0  0  0  0  0  0  0  0  0  0  0  0  # atno 7891 bound_to 7879
  231.0580   42.1122   19.1309 H   0  0  0  0  0  0  0  0  0  0  0  0  # atno 7895 bound_to 7884
  230.2780   41.3239   17.8594 H   0  0  0  0  0  0  0  0  0  0  0  0  # atno 7947 bound_to 7929
  227.2029   41.0601   15.6051 H   0  0  0  0  0  0  0  0  0  0  0  0  # atno 8031 bound_to 8015
  226.4813   39.9469   12.2266 H   0  0  0  0  0  0  0  0  0  0  0  0  # atno 8111 bound_to 8093
  222.2535   41.5004   12.1449 H   0  0  0  0  0  0  0  0  0  0  0  0  # atno 8171 bound_to 8157
  220.0419   38.6532   10.4952 H   0  0  0  0  0  0  0  0  0  0  0  0  # atno 8251 bound_to 8229
  216.1479   40.3055    9.6421 H   0  0  0  0  0  0  0  0  0  0  0  0  # atno 8327 bound_to 8303
  227.6137   42.5664    7.4694 H   0  0  0  0  0  0  0  0  0  0  0  0  # atno 9544 bound_to 9530
  223.5619   35.5363   11.9863 H   0  0  0  0  0  0  0  0  0  0  0  0  # atno 10191 bound_to 10175
  216.1634   43.5621   18.6954 LP  0  0  0  0  0  0  0  0  0  0  0  0  # atno 27200 bound_to 6326
  216.6995   44.0758   17.1306 LP  0  0  0  0  0  0  0  0  0  0  0  0  # atno 27201 bound_to 6326
  217.6095   42.4101   19.3126 LP  0  0  0  0  0  0  0  0  0  0  0  0  # atno 27202 bound_to 6563
  221.9602   40.7451   19.2312 LP  0  0  0  0  0  0  0  0  0  0  0  0  # atno 27203 bound_to 6566
  220.7483   39.6530   19.8129 LP  0  0  0  0  0  0  0  0  0  0  0  0  # atno 27204 bound_to 6566
  219.3381   41.5552   20.1131 LP  0  0  0  0  0  0  0  0  0  0  0  0  # atno 27205 bound_to 6647
  228.7327   43.3743   18.2469 LP  0  0  0  0  0  0  0  0  0  0  0  0  # atno 27206 bound_to 7882
  227.7333   42.4851   17.1467 LP  0  0  0  0  0  0  0  0  0  0  0  0  # atno 27207 bound_to 7882
  230.1389   39.3572   13.7531 LP  0  0  0  0  0  0  0  0  0  0  0  0  # atno 27208 bound_to 7932
  229.0666   38.2321   14.5176 LP  0  0  0  0  0  0  0  0  0  0  0  0  # atno 27209 bound_to 7932
  228.5496   40.1103   15.0148 LP  0  0  0  0  0  0  0  0  0  0  0  0  # atno 27210 bound_to 8015
  224.2281   40.8401   14.8102 LP  0  0  0  0  0  0  0  0  0  0  0  0  # atno 27211 bound_to 8018
  225.2373   41.9872   13.9942 LP  0  0  0  0  0  0  0  0  0  0  0  0  # atno 27212 bound_to 8018
  225.2316   39.1639   13.1585 LP  0  0  0  0  0  0  0  0  0  0  0  0  # atno 27213 bound_to 8093
  222.2679   38.0397   11.3574 LP  0  0  0  0  0  0  0  0  0  0  0  0  # atno 27214 bound_to 8096
  223.7546   37.8977   12.2347 LP  0  0  0  0  0  0  0  0  0  0  0  0  # atno 27215 bound_to 8096
  222.8813   39.8877   11.9040 LP  0  0  0  0  0  0  0  0  0  0  0  0  # atno 27216 bound_to 8157
  219.4972   41.9390   10.3912 LP  0  0  0  0  0  0  0  0  0  0  0  0  # atno 27217 bound_to 8160
  219.0378   42.0051   12.0599 LP  0  0  0  0  0  0  0  0  0  0  0  0  # atno 27218 bound_to 8160
  219.3233   39.8290   11.5686 LP  0  0  0  0  0  0  0  0  0  0  0  0  # atno 27219 bound_to 8229
  228.3171   41.1904    7.9789 LP  0  0  0  0  0  0  0  0  0  0  0  0  # atno 27220 bound_to 9530
  226.9019   41.6777    8.6320 LP  0  0  0  0  0  0  0  0  0  0  0  0  # atno 27221 bound_to 9530
  227.5937   38.2267   10.1997 LP  0  0  0  0  0  0  0  0  0  0  0  0  # atno 27222 bound_to 10090
  226.4457   38.1126   11.4916 LP  0  0  0  0  0  0  0  0  0  0  0  0  # atno 27223 bound_to 10090
  219.8022   37.2261   11.8110 LP  0  0  0  0  0  0  0  0  0  0  0  0  # atno 27224 bound_to 10178
  220.4971   37.0992   10.2295 LP  0  0  0  0  0  0  0  0  0  0  0  0  # atno 27225 bound_to 10178
  216.9338   40.1878   11.2034 LP  0  0  0  0  0  0  0  0  0  0  0  0  # atno 27226 bound_to 8303
  222.6345   36.2664   10.6932 LP  0  0  0  0  0  0  0  0  0  0  0  0  # atno 27227 bound_to 10175
  229.2224   39.9639   17.5501 LP  0  0  0  0  0  0  0  0  0  0  0  0  # atno 27228 bound_to 7929
  231.4072   38.3284   16.5526 LP  0  0  0  0  0  0  0  0  0  0  0  0  # atno 27229 bound_to 7724
  230.0445   38.2333   17.6174 LP  0  0  0  0  0  0  0  0  0  0  0  0  # atno 27230 bound_to 7724
  227.2508   38.0695   19.6845 LP  0  0  0  0  0  0  0  0  0  0  0  0  # atno 27231 bound_to 7802
  227.7049   38.9978   18.2945 LP  0  0  0  0  0  0  0  0  0  0  0  0  # atno 27232 bound_to 7802
  230.0813   39.1783   18.9341 LP  0  0  0  0  0  0  0  0  0  0  0  0  # atno 27233 bound_to 7879
  231.6100   41.8927   20.6458 LP  0  0  0  0  0  0  0  0  0  0  0  0  # atno 27234 bound_to 7884
  231.0604   43.3576   20.1782 LP  0  0  0  0  0  0  0  0  0  0  0  0  # atno 27235 bound_to 7884

> <Gold.Score>
     Fitness  S(hb_ext) S(vdw_ext)  S(hb_int)    S(int)      intcor
     21.59       6.00      11.34       0.00      -0.01      -0.76

> <Gold.Goldscore.Fitness>
21.5936

> <Gold.Goldscore.Internal.Vdw>
-0.3106

> <Gold.Goldscore.Internal.Torsion>
-0.4497

> <Gold.Goldscore.External.Vdw>
11.3445

> <Gold.Goldscore.Internal.HBond>
0.0000

> <Gold.Goldscore.External.HBond>
6.0000

> <Gold.Goldscore.Internal.Correction>
-0.7552

> <Gold.Goldscore.Hbonds>
donor molecule, donor type, donor heavy atom, donor atom, acceptor molecule, acceptor atom, score
      L1  H    10    23       P1  8101  1.00

> <Gold.Goldscore.Internal.Vdw.Weighted>
-0.3106

> <Gold.Goldscore.Internal.Torsion.Weighted>
-0.4497

> <Gold.Goldscore.External.Vdw.Weighted>
15.5987

> <Gold.Goldscore.Internal.HBond.Weighted>
0.0000

> <Gold.Goldscore.External.HBond.Weighted>
6.0000

> <Gold.Goldscore.Internal.Correction.Weighted>
-0.7552

> <Gold.Rescore>
     Score     S(PLP)   S(hbond)     S(cho)   S(metal)  DE(clash)   DE(tors)     intcor
     17.92     -14.05       1.30       0.00       0.00       0.00       0.01       ----

> <Gold.PLP.Fitness>
17.9239

> <Gold.PLP.PLP>
-14.0462

> <Gold.PLP.part.hbond>
-2.0000

> <Gold.PLP.part.metal>
0.0000

> <Gold.PLP.part.buried>
-3.1237

> <Gold.PLP.part.nonpolar>
-8.8520

> <Gold.PLP.part.repulsive>
0.2240

> <Gold.PLP.ligand.clash>
0.0000

> <Gold.PLP.ligand.torsion>
0.0132

> <Gold.PLP.Chemscore.Hbond>
1.3013

> <Gold.PLP.Chemscore.CHOScore>
0.0000

> <Gold.PLP.Chemscore.Metal>
0.0000

> <Gold.Chemscore.Hbonds>
donor molecule, donor type, donor heavy atom, donor atom, acceptor molecule, acceptor atom, score
      L1  H    10    23       P1  8101  1.00
      P1  H  9530  9544       L1    11  0.08

> <Gold.PLP.Chemscore.Internal.Correction>
   9.000000E+99

