#       Name:                CT1002167954
#       Creating user name   hitesit
#       Creation time:       Sun Apr 16 20:27:19 2023


#       File generated by GOLD software.
#

@<TRIPOS>MOLECULE
CT1002167954|ligand_prepared|mol2|1|dock9
    29    30     1
SMALL
NO_CHARGES


@<TRIPOS>ATOM
      1 C1         229.3750  43.2097  11.3770 C.3            1 RES1               0.0000
      2 C2         230.1108  44.4992  10.9592 C.ar           1 RES1               0.0000
      3 C3         229.2593  43.2561  12.8978 C.2            1 RES1               0.0000
      4 C4         228.0348  43.2288  10.6503 C.2            1 RES1               0.0000
      5 C5         230.1153  41.9113  10.9800 C.3            1 RES1               0.0000
      6 C6         231.4618  44.6690  11.2466 C.ar           1 RES1               0.0000
      7 C7         229.4538  45.5248  10.2846 C.ar           1 RES1               0.0000
      8 N8         228.0335  43.5280  13.4302 N.am           1 RES1               0.0000
      9 O9         230.2368  43.0956  13.6182 O.2            1 RES1               0.0000
     10 N10        226.8963  43.3361  11.4054 N.am           1 RES1               0.0000
     11 O11        227.9552  43.1685   9.4295 O.2            1 RES1               0.0000
     12 C12        229.4306  40.6427  11.4638 C.3            1 RES1               0.0000
     13 C13        232.1326  45.8210  10.8707 C.ar           1 RES1               0.0000
     14 C14        230.1264  46.6762   9.9098 C.ar           1 RES1               0.0000
     15 C15        226.8365  43.5175  12.7603 C.2            1 RES1               0.0000
     16 C16        231.4656  46.8250  10.2017 C.ar           1 RES1               0.0000
     17 O17        225.7759  43.6606  13.3618 O.2            1 RES1               0.0000
     18 H18        230.1989  41.8726   9.8869 H              1 RES1               0.0000
     19 H19        231.1311  41.9437  11.3931 H              1 RES1               0.0000
     20 H20        232.0027  43.8907  11.7745 H              1 RES1               0.0000
     21 H21        228.4001  45.4300  10.0453 H              1 RES1               0.0000
     22 H22        228.0042  43.7608  14.4177 H              1 RES1               0.0000
     23 H23        226.0115  43.2749  10.9117 H              1 RES1               0.0000
     24 H24        229.9910  39.7615  11.1586 H              1 RES1               0.0000
     25 H25        229.3532  40.6360  12.5490 H              1 RES1               0.0000
     26 H26        228.4265  40.5653  11.0519 H              1 RES1               0.0000
     27 H27        233.1862  45.9338  11.1041 H              1 RES1               0.0000
     28 H28        229.5973  47.4641   9.3840 H              1 RES1               0.0000
     29 H29        231.9913  47.7272   9.9070 H              1 RES1               0.0000
@<TRIPOS>BOND
    1    1    2 1     
    2    1    3 1     
    3    1    4 1     
    4    1    5 1     
    5    2    6 ar    
    6    2    7 ar    
    7    3    8 1     
    8    3    9 2     
    9    4   10 1     
   10    4   11 2     
   11    5   12 1     
   12    5   18 1     
   13    5   19 1     
   14    6   13 ar    
   15    6   20 1     
   16    7   14 ar    
   17    7   21 1     
   18    8   15 1     
   19    8   22 1     
   20   10   15 1     
   21   10   23 1     
   22   12   24 1     
   23   12   25 1     
   24   12   26 1     
   25   13   16 ar    
   26   13   27 1     
   27   14   16 ar    
   28   14   28 1     
   29   15   17 2     
   30   16   29 1     
@<TRIPOS>SUBSTRUCTURE
      1 RES1           1
@<TRIPOS>SET
DONOR_HYDROGENS      STATIC     ATOMS    <user>   **** ""
2 22 23
ATOM$RED        STATIC     ATOMS    COLORGROUP SYSTEM
2 22 23
@<TRIPOS>COMMENT
> <Gold.Version>
2022.3.0

> <Gold.Id.Protein>
unknown|4v3u_clean|pdb

> <Gold.Protein.RotatedTorsions>
[ 6579 6563 6564 6565 ] final   12.94 input  113.83 | X-H torsion
[ 6671 6647 6648 6649 ] final   41.81 input  129.80 | X-H torsion
[ 8031 8015 8016 8017 ] final   82.99 input   49.80 | X-H torsion
[ 8111 8093 8094 8095 ] final  -89.55 input   98.11 | X-H torsion
[ 8171 8157 8158 8159 ] final   86.07 input   64.44 | X-H torsion
[ 8251 8229 8230 8231 ] final  128.27 input   84.12 | X-H torsion
[ 9544 9530 9529 9527 ] final   -3.89 input   60.01 | X-H torsion
[ 8327 8303 8304 8305 ] final  -40.76 input  100.38 | X-H torsion
[ 10191 10175 10176 10177 ] final  -11.53 input   40.16 | X-H torsion
[ 7947 7929 7930 7931 ] final  -12.20 input   72.92 | X-H torsion
[ 7891 7879 7880 7881 ] final  102.81 input   93.72 | X-H torsion
[ 7895 7884 7883 7880 ] final -168.91 input   60.02 | X-H torsion
[ 6811 6793 6794 6795 ] final  128.54 input  121.38 | X-H torsion
[ 27200 6326 6325 6324 ] final   16.85 input    0.00 | X-H torsion
[ 27203 6566 6565 6564 ] final -133.81 input   -0.00 | X-H torsion
[ 27206 7882 7881 7880 ] final  148.55 input   -0.00 | X-H torsion
[ 27208 7932 7931 7930 ] final  -89.88 input    0.00 | X-H torsion
[ 27211 8018 8017 8016 ] final  103.85 input    0.00 | X-H torsion
[ 27214 8096 8095 8094 ] final  145.97 input   -0.00 | X-H torsion
[ 27217 8160 8159 8158 ] final  113.08 input    0.00 | X-H torsion
[ 27222 10090 10089 10088 ] final    9.66 input    0.00 | X-H torsion
[ 27224 10178 10177 10176 ] final  162.30 input   -0.00 | X-H torsion
[ 27229 7724 7723 7722 ] final   11.45 input    0.00 | X-H torsion
[ 27231 7802 7801 7800 ] final  109.59 input    0.00 | X-H torsion

> <Gold.Protein.ActiveResidues>
 ASP403  THR404  ILE407  TYR408  ALA410  LYS411  TRP414  GLN425  TRP426  SER427 
 LYS428  LEU429  GLN430  VAL431  PHE432  ASP433  TYR453  SER462  ALA463  ILE464 

> <Gold.Protein.RotatedAtoms>
  217.6563   41.8635   19.5257 H   0  0  0  0  0  0  0  0  0  0  0  0  # atno 6579 bound_to 6563
  219.0010   41.8355   20.3375 H   0  0  0  0  0  0  0  0  0  0  0  0  # atno 6671 bound_to 6647
  221.7951   38.7911   19.7916 H   0  0  0  0  0  0  0  0  0  0  0  0  # atno 6811 bound_to 6793
  230.7010   39.6633   20.1376 H   0  0  0  0  0  0  0  0  0  0  0  0  # atno 7891 bound_to 7879
  231.3741   42.9178   20.7847 H   0  0  0  0  0  0  0  0  0  0  0  0  # atno 7895 bound_to 7884
  229.0761   40.0663   17.5620 H   0  0  0  0  0  0  0  0  0  0  0  0  # atno 7947 bound_to 7929
  227.3059   40.7307   15.9607 H   0  0  0  0  0  0  0  0  0  0  0  0  # atno 8031 bound_to 8015
  225.6782   40.1118   13.3501 H   0  0  0  0  0  0  0  0  0  0  0  0  # atno 8111 bound_to 8093
  222.3545   41.4358   12.4354 H   0  0  0  0  0  0  0  0  0  0  0  0  # atno 8171 bound_to 8157
  220.1080   38.7559   10.4432 H   0  0  0  0  0  0  0  0  0  0  0  0  # atno 8251 bound_to 8229
  216.4030   39.4853    9.9927 H   0  0  0  0  0  0  0  0  0  0  0  0  # atno 8327 bound_to 8303
  227.7172   42.5246    7.4262 H   0  0  0  0  0  0  0  0  0  0  0  0  # atno 9544 bound_to 9530
  222.5799   36.3144   10.7216 H   0  0  0  0  0  0  0  0  0  0  0  0  # atno 10191 bound_to 10175
  216.0543   43.5742   17.1728 LP  0  0  0  0  0  0  0  0  0  0  0  0  # atno 27200 bound_to 6326
  216.8086   44.0637   18.6532 LP  0  0  0  0  0  0  0  0  0  0  0  0  # atno 27201 bound_to 6326
  217.2799   41.8650   17.8183 LP  0  0  0  0  0  0  0  0  0  0  0  0  # atno 27202 bound_to 6563
  221.0313   39.9113   20.2723 LP  0  0  0  0  0  0  0  0  0  0  0  0  # atno 27203 bound_to 6566
  221.6772   40.4869   18.7717 LP  0  0  0  0  0  0  0  0  0  0  0  0  # atno 27204 bound_to 6566
  220.3882   42.8279   19.9566 LP  0  0  0  0  0  0  0  0  0  0  0  0  # atno 27205 bound_to 6647
  228.8184   43.0900   17.0791 LP  0  0  0  0  0  0  0  0  0  0  0  0  # atno 27206 bound_to 7882
  227.6475   42.7694   18.3145 LP  0  0  0  0  0  0  0  0  0  0  0  0  # atno 27207 bound_to 7882
  229.6412   39.2984   13.4320 LP  0  0  0  0  0  0  0  0  0  0  0  0  # atno 27208 bound_to 7932
  229.5643   38.2909   14.8388 LP  0  0  0  0  0  0  0  0  0  0  0  0  # atno 27209 bound_to 7932
  228.4499   40.4291   14.6706 LP  0  0  0  0  0  0  0  0  0  0  0  0  # atno 27210 bound_to 8015
  225.2484   41.9871   14.0082 LP  0  0  0  0  0  0  0  0  0  0  0  0  # atno 27211 bound_to 8018
  224.2170   40.8402   14.7962 LP  0  0  0  0  0  0  0  0  0  0  0  0  # atno 27212 bound_to 8018
  226.0240   39.0012   12.0500 LP  0  0  0  0  0  0  0  0  0  0  0  0  # atno 27213 bound_to 8093
  222.4135   37.9965   12.4221 LP  0  0  0  0  0  0  0  0  0  0  0  0  # atno 27214 bound_to 8096
  223.6090   37.9410   11.1700 LP  0  0  0  0  0  0  0  0  0  0  0  0  # atno 27215 bound_to 8096
  222.7826   39.9509   11.6199 LP  0  0  0  0  0  0  0  0  0  0  0  0  # atno 27216 bound_to 8157
  219.6317   41.9869   10.4400 LP  0  0  0  0  0  0  0  0  0  0  0  0  # atno 27217 bound_to 8160
  218.9033   41.9572   12.0112 LP  0  0  0  0  0  0  0  0  0  0  0  0  # atno 27218 bound_to 8160
  219.2585   39.7284   11.6195 LP  0  0  0  0  0  0  0  0  0  0  0  0  # atno 27219 bound_to 8229
  228.2588   41.1295    8.0652 LP  0  0  0  0  0  0  0  0  0  0  0  0  # atno 27220 bound_to 9530
  226.8560   41.7808    8.5893 LP  0  0  0  0  0  0  0  0  0  0  0  0  # atno 27221 bound_to 9530
  227.8772   38.2795   10.7936 LP  0  0  0  0  0  0  0  0  0  0  0  0  # atno 27222 bound_to 10090
  226.1623   38.0599   10.8977 LP  0  0  0  0  0  0  0  0  0  0  0  0  # atno 27223 bound_to 10090
  219.5223   37.0383   10.4363 LP  0  0  0  0  0  0  0  0  0  0  0  0  # atno 27224 bound_to 10178
  220.7770   37.2870   11.6042 LP  0  0  0  0  0  0  0  0  0  0  0  0  # atno 27225 bound_to 10178
  216.6884   40.9769   10.8662 LP  0  0  0  0  0  0  0  0  0  0  0  0  # atno 27226 bound_to 8303
  223.5823   35.5154   11.9140 LP  0  0  0  0  0  0  0  0  0  0  0  0  # atno 27227 bound_to 10175
  230.3906   41.1864   17.8392 LP  0  0  0  0  0  0  0  0  0  0  0  0  # atno 27228 bound_to 7929
  231.3226   38.1096   16.4812 LP  0  0  0  0  0  0  0  0  0  0  0  0  # atno 27229 bound_to 7724
  230.1292   38.4522   17.6888 LP  0  0  0  0  0  0  0  0  0  0  0  0  # atno 27230 bound_to 7724
  227.2184   38.8441   19.7553 LP  0  0  0  0  0  0  0  0  0  0  0  0  # atno 27231 bound_to 7802
  227.7372   38.2232   18.2238 LP  0  0  0  0  0  0  0  0  0  0  0  0  # atno 27232 bound_to 7802
  229.3271   38.8335   19.4579 LP  0  0  0  0  0  0  0  0  0  0  0  0  # atno 27233 bound_to 7879
  230.8800   42.8979   19.2345 LP  0  0  0  0  0  0  0  0  0  0  0  0  # atno 27234 bound_to 7884
  231.4720   41.5408   19.9234 LP  0  0  0  0  0  0  0  0  0  0  0  0  # atno 27235 bound_to 7884

> <Gold.Score>
     Fitness  S(hb_ext) S(vdw_ext)  S(hb_int)    S(int)      intcor
     21.50       6.00      12.95       0.00      -2.30      -0.76

> <Gold.Goldscore.Fitness>
21.5041

> <Gold.Goldscore.Internal.Vdw>
-2.6683

> <Gold.Goldscore.Internal.Torsion>
-0.3866

> <Gold.Goldscore.External.Vdw>
12.9458

> <Gold.Goldscore.Internal.HBond>
0.0000

> <Gold.Goldscore.External.HBond>
6.0000

> <Gold.Goldscore.Internal.Correction>
-0.7585

> <Gold.Goldscore.Hbonds>
donor molecule, donor type, donor heavy atom, donor atom, acceptor molecule, acceptor atom, score
      L1  H    10    23       P1  8101  1.00

> <Gold.Goldscore.Internal.Vdw.Weighted>
-2.6683

> <Gold.Goldscore.Internal.Torsion.Weighted>
-0.3866

> <Gold.Goldscore.External.Vdw.Weighted>
17.8005

> <Gold.Goldscore.Internal.HBond.Weighted>
0.0000

> <Gold.Goldscore.External.HBond.Weighted>
6.0000

> <Gold.Goldscore.Internal.Correction.Weighted>
-0.7585

> <Gold.Rescore>
     Score     S(PLP)   S(hbond)     S(cho)   S(metal)  DE(clash)   DE(tors)     intcor
     15.80     -13.92       1.14       0.00       0.00       1.38       0.08       ----

> <Gold.PLP.Fitness>
15.7997

> <Gold.PLP.PLP>
-13.9173

> <Gold.PLP.part.hbond>
-2.0000

> <Gold.PLP.part.metal>
0.0000

> <Gold.PLP.part.buried>
-2.8952

> <Gold.PLP.part.nonpolar>
-9.1074

> <Gold.PLP.part.repulsive>
0.2463

> <Gold.PLP.ligand.clash>
1.3838

> <Gold.PLP.ligand.torsion>
0.0775

> <Gold.PLP.Chemscore.Hbond>
1.1404

> <Gold.PLP.Chemscore.CHOScore>
0.0000

> <Gold.PLP.Chemscore.Metal>
0.0000

> <Gold.Chemscore.Hbonds>
donor molecule, donor type, donor heavy atom, donor atom, acceptor molecule, acceptor atom, score
      L1  H    10    23       P1  8101  0.68

> <Gold.PLP.Chemscore.Internal.Correction>
   9.000000E+99

