#       Name:                CT1002167954
#       Creating user name   hitesit
#       Creation time:       Sun Apr 16 20:27:17 2023


#       File generated by GOLD software.
#

@<TRIPOS>MOLECULE
CT1002167954|ligand_prepared|mol2|1|dock5
    29    30     1
SMALL
NO_CHARGES


@<TRIPOS>ATOM
      1 C1         227.1887  44.5877  11.7136 C.3            1 RES1               0.0000
      2 C2         225.7056  44.5185  12.1311 C.ar           1 RES1               0.0000
      3 C3         227.9909  44.0385  12.8897 C.2            1 RES1               0.0000
      4 C4         227.3116  43.7626  10.4374 C.2            1 RES1               0.0000
      5 C5         227.6852  46.0197  11.4064 C.3            1 RES1               0.0000
      6 C6         225.2949  43.6619  13.1481 C.ar           1 RES1               0.0000
      7 C7         224.7387  45.3058  11.5115 C.ar           1 RES1               0.0000
      8 N8         228.5336  42.7943  12.7583 N.am           1 RES1               0.0000
      9 O9         228.1121  44.6712  13.9315 O.2            1 RES1               0.0000
     10 N10        228.0621  42.6170  10.4832 N.am           1 RES1               0.0000
     11 O11        226.7516  44.0853   9.3970 O.2            1 RES1               0.0000
     12 C12        229.1915  46.1206  11.2244 C.3            1 RES1               0.0000
     13 C13        223.9662  43.5967  13.5337 C.ar           1 RES1               0.0000
     14 C14        223.4104  45.2389  11.8985 C.ar           1 RES1               0.0000
     15 C15        228.6535  42.0793  11.5938 C.2            1 RES1               0.0000
     16 C16        223.0233  44.3853  12.9096 C.ar           1 RES1               0.0000
     17 O17        229.2667  41.0161  11.5669 O.2            1 RES1               0.0000
     18 H18        227.1945  46.3749  10.4918 H              1 RES1               0.0000
     19 H19        227.3837  46.6818  12.2274 H              1 RES1               0.0000
     20 H20        226.0223  43.0319  13.6490 H              1 RES1               0.0000
     21 H21        225.0201  45.9838  10.7129 H              1 RES1               0.0000
     22 H22        228.8826  42.3548  13.6041 H              1 RES1               0.0000
     23 H23        228.1922  42.1190   9.6083 H              1 RES1               0.0000
     24 H24        229.4864  47.1458  11.0111 H              1 RES1               0.0000
     25 H25        229.7112  45.7988  12.1246 H              1 RES1               0.0000
     26 H26        229.5231  45.4938  10.3992 H              1 RES1               0.0000
     27 H27        223.6665  42.9223  14.3291 H              1 RES1               0.0000
     28 H28        222.6716  45.8609  11.4042 H              1 RES1               0.0000
     29 H29        221.9826  44.3344  13.2122 H              1 RES1               0.0000
@<TRIPOS>BOND
    1    1    2 1     
    2    1    3 1     
    3    1    4 1     
    4    1    5 1     
    5    2    6 ar    
    6    2    7 ar    
    7    3    8 1     
    8    3    9 2     
    9    4   10 1     
   10    4   11 2     
   11    5   12 1     
   12    5   18 1     
   13    5   19 1     
   14    6   13 ar    
   15    6   20 1     
   16    7   14 ar    
   17    7   21 1     
   18    8   15 1     
   19    8   22 1     
   20   10   15 1     
   21   10   23 1     
   22   12   24 1     
   23   12   25 1     
   24   12   26 1     
   25   13   16 ar    
   26   13   27 1     
   27   14   16 ar    
   28   14   28 1     
   29   15   17 2     
   30   16   29 1     
@<TRIPOS>SUBSTRUCTURE
      1 RES1           1
@<TRIPOS>SET
DONOR_HYDROGENS      STATIC     ATOMS    <user>   **** ""
2 22 23
ATOM$RED        STATIC     ATOMS    COLORGROUP SYSTEM
2 22 23
@<TRIPOS>COMMENT
> <Gold.Version>
2022.3.0

> <Gold.Id.Protein>
unknown|4v3u_clean|pdb

> <Gold.Protein.RotatedTorsions>
[ 6579 6563 6564 6565 ] final  -30.69 input  113.83 | X-H torsion
[ 6671 6647 6648 6649 ] final -117.82 input  129.80 | X-H torsion
[ 8031 8015 8016 8017 ] final  -97.31 input   49.80 | X-H torsion
[ 8111 8093 8094 8095 ] final  -61.10 input   98.11 | X-H torsion
[ 8171 8157 8158 8159 ] final   11.72 input   64.44 | X-H torsion
[ 8251 8229 8230 8231 ] final  176.23 input   84.12 | X-H torsion
[ 9544 9530 9529 9527 ] final   39.08 input   60.01 | X-H torsion
[ 8327 8303 8304 8305 ] final  117.94 input  100.38 | X-H torsion
[ 10191 10175 10176 10177 ] final   42.90 input   40.16 | X-H torsion
[ 7947 7929 7930 7931 ] final  172.24 input   72.92 | X-H torsion
[ 7891 7879 7880 7881 ] final -144.89 input   93.72 | X-H torsion
[ 7895 7884 7883 7880 ] final  105.42 input   60.02 | X-H torsion
[ 6811 6793 6794 6795 ] final   46.78 input  121.38 | X-H torsion
[ 27200 6326 6325 6324 ] final -157.23 input    0.00 | X-H torsion
[ 27203 6566 6565 6564 ] final  123.82 input   -0.00 | X-H torsion
[ 27206 7882 7881 7880 ] final   33.50 input   -0.00 | X-H torsion
[ 27208 7932 7931 7930 ] final -173.41 input    0.00 | X-H torsion
[ 27211 8018 8017 8016 ] final    3.74 input    0.00 | X-H torsion
[ 27214 8096 8095 8094 ] final  -10.24 input   -0.00 | X-H torsion
[ 27217 8160 8159 8158 ] final  123.11 input    0.00 | X-H torsion
[ 27222 10090 10089 10088 ] final -152.72 input    0.00 | X-H torsion
[ 27224 10178 10177 10176 ] final  139.58 input   -0.00 | X-H torsion
[ 27229 7724 7723 7722 ] final  167.74 input    0.00 | X-H torsion
[ 27231 7802 7801 7800 ] final  -69.21 input    0.00 | X-H torsion

> <Gold.Protein.ActiveResidues>
 ASP403  THR404  ILE407  TYR408  ALA410  LYS411  TRP414  GLN425  TRP426  SER427 
 LYS428  LEU429  GLN430  VAL431  PHE432  ASP433  TYR453  SER462  ALA463  ILE464 

> <Gold.Protein.RotatedAtoms>
  217.5940   41.2525   19.2883 H   0  0  0  0  0  0  0  0  0  0  0  0  # atno 6579 bound_to 6563
  220.5035   42.5626   19.8457 H   0  0  0  0  0  0  0  0  0  0  0  0  # atno 6671 bound_to 6647
  221.6427   38.1248   20.7298 H   0  0  0  0  0  0  0  0  0  0  0  0  # atno 6811 bound_to 6793
  229.4349   39.0022   20.4081 H   0  0  0  0  0  0  0  0  0  0  0  0  # atno 7891 bound_to 7879
  230.9128   43.2637   19.6499 H   0  0  0  0  0  0  0  0  0  0  0  0  # atno 7895 bound_to 7884
  230.3618   41.2539   17.8423 H   0  0  0  0  0  0  0  0  0  0  0  0  # atno 7947 bound_to 7929
  228.4580   40.4085   14.6442 H   0  0  0  0  0  0  0  0  0  0  0  0  # atno 8031 bound_to 8015
  225.4135   39.7786   13.4220 H   0  0  0  0  0  0  0  0  0  0  0  0  # atno 8111 bound_to 8093
  222.1962   41.1957   11.4073 H   0  0  0  0  0  0  0  0  0  0  0  0  # atno 8171 bound_to 8157
  220.2694   39.4543   10.4153 H   0  0  0  0  0  0  0  0  0  0  0  0  # atno 8251 bound_to 8229
  216.5242   41.1189   10.6219 H   0  0  0  0  0  0  0  0  0  0  0  0  # atno 8327 bound_to 8303
  227.1403   42.5880    7.7915 H   0  0  0  0  0  0  0  0  0  0  0  0  # atno 9544 bound_to 9530
  222.6119   36.6471   11.4647 H   0  0  0  0  0  0  0  0  0  0  0  0  # atno 10191 bound_to 10175
  216.7476   44.0139   18.6953 LP  0  0  0  0  0  0  0  0  0  0  0  0  # atno 27200 bound_to 6326
  216.1153   43.6240   17.1306 LP  0  0  0  0  0  0  0  0  0  0  0  0  # atno 27201 bound_to 6326
  217.3405   42.4598   18.0494 LP  0  0  0  0  0  0  0  0  0  0  0  0  # atno 27202 bound_to 6563
  221.9660   40.7534   19.7837 LP  0  0  0  0  0  0  0  0  0  0  0  0  # atno 27203 bound_to 6566
  220.7425   39.6447   19.2603 LP  0  0  0  0  0  0  0  0  0  0  0  0  # atno 27204 bound_to 6566
  218.9203   42.1176   20.4370 LP  0  0  0  0  0  0  0  0  0  0  0  0  # atno 27205 bound_to 6647
  228.4211   43.2602   18.4748 LP  0  0  0  0  0  0  0  0  0  0  0  0  # atno 27206 bound_to 7882
  228.0449   42.5992   16.9188 LP  0  0  0  0  0  0  0  0  0  0  0  0  # atno 27207 bound_to 7882
  228.8269   38.5778   13.8175 LP  0  0  0  0  0  0  0  0  0  0  0  0  # atno 27208 bound_to 7932
  230.3786   39.0115   14.4533 LP  0  0  0  0  0  0  0  0  0  0  0  0  # atno 27209 bound_to 7932
  227.3346   40.7410   15.9449 LP  0  0  0  0  0  0  0  0  0  0  0  0  # atno 27210 bound_to 8015
  225.1668   41.3030   15.1434 LP  0  0  0  0  0  0  0  0  0  0  0  0  # atno 27211 bound_to 8018
  224.2987   41.5243   13.6610 LP  0  0  0  0  0  0  0  0  0  0  0  0  # atno 27212 bound_to 8018
  226.2851   39.3299   11.9791 LP  0  0  0  0  0  0  0  0  0  0  0  0  # atno 27213 bound_to 8093
  223.8095   37.9166   11.4643 LP  0  0  0  0  0  0  0  0  0  0  0  0  # atno 27214 bound_to 8096
  222.2130   38.0209   12.1278 LP  0  0  0  0  0  0  0  0  0  0  0  0  # atno 27215 bound_to 8096
  222.9373   40.1857   12.6254 LP  0  0  0  0  0  0  0  0  0  0  0  0  # atno 27216 bound_to 8157
  219.4967   41.9388   10.3911 LP  0  0  0  0  0  0  0  0  0  0  0  0  # atno 27217 bound_to 8160
  219.0383   42.0053   12.0601 LP  0  0  0  0  0  0  0  0  0  0  0  0  # atno 27218 bound_to 8160
  219.1004   39.0445   11.6468 LP  0  0  0  0  0  0  0  0  0  0  0  0  # atno 27219 bound_to 8229
  228.4248   41.6083    7.5960 LP  0  0  0  0  0  0  0  0  0  0  0  0  # atno 27220 bound_to 9530
  227.2710   41.2380    8.6906 LP  0  0  0  0  0  0  0  0  0  0  0  0  # atno 27221 bound_to 9530
  226.2172   38.0740   11.1569 LP  0  0  0  0  0  0  0  0  0  0  0  0  # atno 27222 bound_to 10090
  227.8222   38.2654   10.5344 LP  0  0  0  0  0  0  0  0  0  0  0  0  # atno 27223 bound_to 10090
  219.7998   37.0391   10.2377 LP  0  0  0  0  0  0  0  0  0  0  0  0  # atno 27224 bound_to 10178
  220.4995   37.2862   11.8028 LP  0  0  0  0  0  0  0  0  0  0  0  0  # atno 27225 bound_to 10178
  216.5718   39.4053   10.2608 LP  0  0  0  0  0  0  0  0  0  0  0  0  # atno 27226 bound_to 8303
  223.5515   35.1942   11.1967 LP  0  0  0  0  0  0  0  0  0  0  0  0  # atno 27227 bound_to 10175
  229.1409   40.0321   17.5667 LP  0  0  0  0  0  0  0  0  0  0  0  0  # atno 27228 bound_to 7929
  230.0238   38.1336   17.5701 LP  0  0  0  0  0  0  0  0  0  0  0  0  # atno 27229 bound_to 7724
  231.4280   38.4281   16.5998 LP  0  0  0  0  0  0  0  0  0  0  0  0  # atno 27230 bound_to 7724
  227.7352   38.2063   18.2302 LP  0  0  0  0  0  0  0  0  0  0  0  0  # atno 27231 bound_to 7802
  227.2204   38.8611   19.7488 LP  0  0  0  0  0  0  0  0  0  0  0  0  # atno 27232 bound_to 7802
  230.5824   39.4889   19.1897 LP  0  0  0  0  0  0  0  0  0  0  0  0  # atno 27233 bound_to 7879
  231.2704   41.6920   19.4275 LP  0  0  0  0  0  0  0  0  0  0  0  0  # atno 27234 bound_to 7884
  231.5463   42.3983   20.8737 LP  0  0  0  0  0  0  0  0  0  0  0  0  # atno 27235 bound_to 7884

> <Gold.Score>
     Fitness  S(hb_ext) S(vdw_ext)  S(hb_int)    S(int)      intcor
     23.23       0.31      17.49       0.00      -1.14      -0.77

> <Gold.Goldscore.Fitness>
23.2300

> <Gold.Goldscore.Internal.Vdw>
-1.3837

> <Gold.Goldscore.Internal.Torsion>
-0.5201

> <Gold.Goldscore.External.Vdw>
17.4933

> <Gold.Goldscore.Internal.HBond>
0.0000

> <Gold.Goldscore.External.HBond>
0.3118

> <Gold.Goldscore.Internal.Correction>
-0.7686

> <Gold.Goldscore.Hbonds>
donor molecule, donor type, donor heavy atom, donor atom, acceptor molecule, acceptor atom, score
      P1  H  9530  9544       L1    11  0.05
      L1  H    10    23       P1  9530  0.11

> <Gold.Goldscore.Internal.Vdw.Weighted>
-1.3837

> <Gold.Goldscore.Internal.Torsion.Weighted>
-0.5201

> <Gold.Goldscore.External.Vdw.Weighted>
24.0533

> <Gold.Goldscore.Internal.HBond.Weighted>
0.0000

> <Gold.Goldscore.External.HBond.Weighted>
0.3118

> <Gold.Goldscore.Internal.Correction.Weighted>
-0.7686

> <Gold.Rescore>
     Score     S(PLP)   S(hbond)     S(cho)   S(metal)  DE(clash)   DE(tors)     intcor
     19.62     -21.93       0.00       0.00       0.00       0.45       0.93       ----

> <Gold.PLP.Fitness>
19.6237

> <Gold.PLP.PLP>
-21.9309

> <Gold.PLP.part.hbond>
-4.2343

> <Gold.PLP.part.metal>
0.0000

> <Gold.PLP.part.buried>
-3.0731

> <Gold.PLP.part.nonpolar>
-15.8451

> <Gold.PLP.part.repulsive>
0.9960

> <Gold.PLP.ligand.clash>
0.4507

> <Gold.PLP.ligand.torsion>
0.9283

> <Gold.PLP.Chemscore.Hbond>
0.0000

> <Gold.PLP.Chemscore.CHOScore>
0.0000

> <Gold.PLP.Chemscore.Metal>
0.0000

> <Gold.Chemscore.Hbonds>
donor molecule, donor type, donor heavy atom, donor atom, acceptor molecule, acceptor atom, score
      L1  H    10    23       P1  9530  0.19
      P1  H  9530  9544       L1    11  0.46

> <Gold.PLP.Chemscore.Internal.Correction>
   9.000000E+99

