#       Name:                GA Fitting Points
#       Creating user name   hitesit
#       Creation time:       Sun Apr 16 02:22:38 2023


#       Fitting Points Used by GA Software.
#

@<TRIPOS>MOLECULE
GA Fitting Points
  2655    0    0
SMALL
NO_CHARGES


@<TRIPOS>ATOM
      1 ****         7.0000 -16.5000 -49.7500 Du        
      2 ****         7.0000 -16.5000 -49.5000 Du        
      3 ****         7.0000 -16.2500 -49.5000 Du        
      4 ****         7.2500 -16.7500 -50.0000 Du        
      5 ****         7.2500 -16.7500 -49.7500 Du        
      6 ****         7.2500 -16.7500 -49.5000 Du        
      7 ****         7.2500 -16.5000 -50.0000 Du        
      8 ****         7.2500 -16.5000 -49.7500 Du        
      9 ****         7.2500 -16.5000 -49.5000 Du        
     10 ****         7.2500 -16.5000 -49.2500 Du        
     11 ****         7.2500 -16.2500 -50.0000 Du        
     12 ****         7.2500 -16.2500 -49.7500 Du        
     13 ****         7.2500 -16.2500 -49.5000 Du        
     14 ****         7.2500 -16.2500 -49.2500 Du        
     15 ****         7.2500 -16.0000 -50.0000 Du        
     16 ****         7.2500 -16.0000 -49.7500 Du        
     17 ****         7.2500 -16.0000 -49.5000 Du        
     18 ****         7.2500 -16.0000 -49.2500 Du        
     19 ****         7.2500 -15.7500 -50.0000 Du        
     20 ****         7.2500 -15.7500 -49.7500 Du        
     21 ****         7.2500 -15.7500 -49.5000 Du        
     22 ****         7.2500 -15.7500 -49.2500 Du        
     23 ****         7.5000 -16.7500 -50.0000 Du        
     24 ****         7.5000 -16.7500 -49.7500 Du        
     25 ****         7.5000 -16.7500 -49.5000 Du        
     26 ****         7.5000 -16.7500 -49.2500 Du        
     27 ****         7.5000 -16.5000 -50.2500 Du        
     28 ****         7.5000 -16.5000 -50.0000 Du        
     29 ****         7.5000 -16.5000 -49.7500 Du        
     30 ****         7.5000 -16.5000 -49.5000 Du        
     31 ****         7.5000 -16.5000 -49.2500 Du        
     32 ****         7.5000 -16.5000 -49.0000 Du        
     33 ****         7.5000 -16.2500 -50.2500 Du        
     34 ****         7.5000 -16.2500 -50.0000 Du        
     35 ****         7.5000 -16.2500 -49.7500 Du        
     36 ****         7.5000 -16.2500 -49.5000 Du        
     37 ****         7.5000 -16.2500 -49.2500 Du        
     38 ****         7.5000 -16.2500 -49.0000 Du        
     39 ****         7.5000 -16.0000 -50.2500 Du        
     40 ****         7.5000 -16.0000 -50.0000 Du        
     41 ****         7.5000 -16.0000 -49.7500 Du        
     42 ****         7.5000 -16.0000 -49.5000 Du        
     43 ****         7.5000 -16.0000 -49.2500 Du        
     44 ****         7.5000 -16.0000 -49.0000 Du        
     45 ****         7.5000 -15.7500 -50.2500 Du        
     46 ****         7.5000 -15.7500 -50.0000 Du        
     47 ****         7.5000 -15.7500 -49.7500 Du        
     48 ****         7.5000 -15.7500 -49.5000 Du        
     49 ****         7.5000 -15.7500 -49.2500 Du        
     50 ****         7.5000 -15.5000 -49.7500 Du        
     51 ****         7.5000 -15.5000 -49.5000 Du        
     52 ****         7.7500 -17.0000 -50.0000 Du        
     53 ****         7.7500 -17.0000 -49.7500 Du        
     54 ****         7.7500 -17.0000 -49.5000 Du        
     55 ****         7.7500 -16.7500 -50.2500 Du        
     56 ****         7.7500 -16.7500 -50.0000 Du        
     57 ****         7.7500 -16.7500 -49.7500 Du        
     58 ****         7.7500 -16.7500 -49.5000 Du        
     59 ****         7.7500 -16.7500 -49.2500 Du        
     60 ****         7.7500 -16.5000 -50.2500 Du        
     61 ****         7.7500 -16.5000 -50.0000 Du        
     62 ****         7.7500 -16.5000 -49.7500 Du        
     63 ****         7.7500 -16.5000 -49.5000 Du        
     64 ****         7.7500 -16.5000 -49.2500 Du        
     65 ****         7.7500 -16.5000 -49.0000 Du        
     66 ****         7.7500 -16.2500 -50.5000 Du        
     67 ****         7.7500 -16.2500 -50.2500 Du        
     68 ****         7.7500 -16.2500 -50.0000 Du        
     69 ****         7.7500 -16.2500 -49.7500 Du        
     70 ****         7.7500 -16.2500 -49.5000 Du        
     71 ****         7.7500 -16.2500 -49.2500 Du        
     72 ****         7.7500 -16.2500 -49.0000 Du        
     73 ****         7.7500 -16.0000 -50.5000 Du        
     74 ****         7.7500 -16.0000 -50.2500 Du        
     75 ****         7.7500 -16.0000 -50.0000 Du        
     76 ****         7.7500 -16.0000 -49.7500 Du        
     77 ****         7.7500 -16.0000 -49.5000 Du        
     78 ****         7.7500 -16.0000 -49.2500 Du        
     79 ****         7.7500 -16.0000 -49.0000 Du        
     80 ****         7.7500 -15.7500 -50.2500 Du        
     81 ****         7.7500 -15.7500 -50.0000 Du        
     82 ****         7.7500 -15.7500 -49.7500 Du        
     83 ****         7.7500 -15.7500 -49.5000 Du        
     84 ****         7.7500 -15.7500 -49.2500 Du        
     85 ****         7.7500 -15.5000 -50.0000 Du        
     86 ****         7.7500 -15.5000 -49.7500 Du        
     87 ****         7.7500 -15.5000 -49.5000 Du        
     88 ****         7.7500 -15.5000 -49.2500 Du        
     89 ****         7.7500 -15.2500 -49.5000 Du        
     90 ****         8.0000 -17.0000 -50.2500 Du        
     91 ****         8.0000 -17.0000 -50.0000 Du        
     92 ****         8.0000 -17.0000 -49.7500 Du        
     93 ****         8.0000 -17.0000 -49.5000 Du        
     94 ****         8.0000 -17.0000 -49.2500 Du        
     95 ****         8.0000 -16.7500 -50.5000 Du        
     96 ****         8.0000 -16.7500 -50.2500 Du        
     97 ****         8.0000 -16.7500 -50.0000 Du        
     98 ****         8.0000 -16.7500 -49.7500 Du        
     99 ****         8.0000 -16.7500 -49.5000 Du        
    100 ****         8.0000 -16.7500 -49.2500 Du        
    101 ****         8.0000 -16.7500 -49.0000 Du        
    102 ****         8.0000 -16.5000 -50.5000 Du        
    103 ****         8.0000 -16.5000 -50.2500 Du        
    104 ****         8.0000 -16.5000 -50.0000 Du        
    105 ****         8.0000 -16.5000 -49.7500 Du        
    106 ****         8.0000 -16.5000 -49.5000 Du        
    107 ****         8.0000 -16.5000 -49.2500 Du        
    108 ****         8.0000 -16.5000 -49.0000 Du        
    109 ****         8.0000 -16.5000 -48.7500 Du        
    110 ****         8.0000 -16.2500 -50.5000 Du        
    111 ****         8.0000 -16.2500 -50.2500 Du        
    112 ****         8.0000 -16.2500 -50.0000 Du        
    113 ****         8.0000 -16.2500 -49.7500 Du        
    114 ****         8.0000 -16.2500 -49.5000 Du        
    115 ****         8.0000 -16.2500 -49.2500 Du        
    116 ****         8.0000 -16.2500 -49.0000 Du        
    117 ****         8.0000 -16.2500 -48.7500 Du        
    118 ****         8.0000 -16.0000 -50.5000 Du        
    119 ****         8.0000 -16.0000 -50.2500 Du        
    120 ****         8.0000 -16.0000 -50.0000 Du        
    121 ****         8.0000 -16.0000 -49.7500 Du        
    122 ****         8.0000 -16.0000 -49.5000 Du        
    123 ****         8.0000 -16.0000 -49.2500 Du        
    124 ****         8.0000 -16.0000 -49.0000 Du        
    125 ****         8.0000 -15.7500 -50.5000 Du        
    126 ****         8.0000 -15.7500 -50.2500 Du        
    127 ****         8.0000 -15.7500 -50.0000 Du        
    128 ****         8.0000 -15.7500 -49.7500 Du        
    129 ****         8.0000 -15.7500 -49.5000 Du        
    130 ****         8.0000 -15.7500 -49.2500 Du        
    131 ****         8.0000 -15.7500 -49.0000 Du        
    132 ****         8.0000 -15.5000 -50.0000 Du        
    133 ****         8.0000 -15.5000 -49.7500 Du        
    134 ****         8.0000 -15.5000 -49.5000 Du        
    135 ****         8.0000 -15.5000 -49.2500 Du        
    136 ****         8.0000 -15.2500 -49.7500 Du        
    137 ****         8.0000 -15.2500 -49.5000 Du        
    138 ****         8.0000 -15.2500 -49.2500 Du        
    139 ****         8.2500 -17.0000 -50.5000 Du        
    140 ****         8.2500 -17.0000 -50.2500 Du        
    141 ****         8.2500 -17.0000 -50.0000 Du        
    142 ****         8.2500 -17.0000 -49.7500 Du        
    143 ****         8.2500 -17.0000 -49.5000 Du        
    144 ****         8.2500 -17.0000 -49.2500 Du        
    145 ****         8.2500 -16.7500 -50.7500 Du        
    146 ****         8.2500 -16.7500 -50.5000 Du        
    147 ****         8.2500 -16.7500 -50.2500 Du        
    148 ****         8.2500 -16.7500 -50.0000 Du        
    149 ****         8.2500 -16.7500 -49.7500 Du        
    150 ****         8.2500 -16.7500 -49.5000 Du        
    151 ****         8.2500 -16.7500 -49.2500 Du        
    152 ****         8.2500 -16.7500 -49.0000 Du        
    153 ****         8.2500 -16.5000 -50.7500 Du        
    154 ****         8.2500 -16.5000 -50.5000 Du        
    155 ****         8.2500 -16.5000 -50.2500 Du        
    156 ****         8.2500 -16.5000 -50.0000 Du        
    157 ****         8.2500 -16.5000 -49.7500 Du        
    158 ****         8.2500 -16.5000 -49.5000 Du        
    159 ****         8.2500 -16.5000 -49.2500 Du        
    160 ****         8.2500 -16.5000 -49.0000 Du        
    161 ****         8.2500 -16.5000 -48.7500 Du        
    162 ****         8.2500 -16.2500 -50.7500 Du        
    163 ****         8.2500 -16.2500 -50.5000 Du        
    164 ****         8.2500 -16.2500 -50.2500 Du        
    165 ****         8.2500 -16.2500 -50.0000 Du        
    166 ****         8.2500 -16.2500 -49.7500 Du        
    167 ****         8.2500 -16.2500 -49.5000 Du        
    168 ****         8.2500 -16.2500 -49.2500 Du        
    169 ****         8.2500 -16.2500 -49.0000 Du        
    170 ****         8.2500 -16.2500 -48.7500 Du        
    171 ****         8.2500 -16.0000 -50.7500 Du        
    172 ****         8.2500 -16.0000 -50.5000 Du        
    173 ****         8.2500 -16.0000 -50.2500 Du        
    174 ****         8.2500 -16.0000 -50.0000 Du        
    175 ****         8.2500 -16.0000 -49.7500 Du        
    176 ****         8.2500 -16.0000 -49.5000 Du        
    177 ****         8.2500 -16.0000 -49.2500 Du        
    178 ****         8.2500 -16.0000 -49.0000 Du        
    179 ****         8.2500 -16.0000 -48.7500 Du        
    180 ****         8.2500 -15.7500 -50.5000 Du        
    181 ****         8.2500 -15.7500 -50.2500 Du        
    182 ****         8.2500 -15.7500 -50.0000 Du        
    183 ****         8.2500 -15.7500 -49.7500 Du        
    184 ****         8.2500 -15.7500 -49.5000 Du        
    185 ****         8.2500 -15.7500 -49.2500 Du        
    186 ****         8.2500 -15.7500 -49.0000 Du        
    187 ****         8.2500 -15.5000 -50.2500 Du        
    188 ****         8.2500 -15.5000 -50.0000 Du        
    189 ****         8.2500 -15.5000 -49.7500 Du        
    190 ****         8.2500 -15.5000 -49.5000 Du        
    191 ****         8.2500 -15.5000 -49.2500 Du        
    192 ****         8.2500 -15.5000 -49.0000 Du        
    193 ****         8.2500 -15.2500 -49.7500 Du        
    194 ****         8.2500 -15.2500 -49.5000 Du        
    195 ****         8.2500 -15.2500 -49.2500 Du        
    196 ****         8.5000 -17.0000 -50.7500 Du        
    197 ****         8.5000 -17.0000 -50.5000 Du        
    198 ****         8.5000 -17.0000 -50.2500 Du        
    199 ****         8.5000 -17.0000 -50.0000 Du        
    200 ****         8.5000 -17.0000 -49.7500 Du        
    201 ****         8.5000 -17.0000 -49.5000 Du        
    202 ****         8.5000 -17.0000 -49.2500 Du        
    203 ****         8.5000 -16.7500 -51.0000 Du        
    204 ****         8.5000 -16.7500 -50.7500 Du        
    205 ****         8.5000 -16.7500 -50.5000 Du        
    206 ****         8.5000 -16.7500 -50.2500 Du        
    207 ****         8.5000 -16.7500 -50.0000 Du        
    208 ****         8.5000 -16.7500 -49.7500 Du        
    209 ****         8.5000 -16.7500 -49.5000 Du        
    210 ****         8.5000 -16.7500 -49.2500 Du        
    211 ****         8.5000 -16.7500 -49.0000 Du        
    212 ****         8.5000 -16.5000 -51.0000 Du        
    213 ****         8.5000 -16.5000 -50.7500 Du        
    214 ****         8.5000 -16.5000 -50.5000 Du        
    215 ****         8.5000 -16.5000 -50.2500 Du        
    216 ****         8.5000 -16.5000 -50.0000 Du        
    217 ****         8.5000 -16.5000 -49.7500 Du        
    218 ****         8.5000 -16.5000 -49.5000 Du        
    219 ****         8.5000 -16.5000 -49.2500 Du        
    220 ****         8.5000 -16.5000 -49.0000 Du        
    221 ****         8.5000 -16.5000 -48.7500 Du        
    222 ****         8.5000 -16.2500 -51.0000 Du        
    223 ****         8.5000 -16.2500 -50.7500 Du        
    224 ****         8.5000 -16.2500 -50.5000 Du        
    225 ****         8.5000 -16.2500 -50.2500 Du        
    226 ****         8.5000 -16.2500 -50.0000 Du        
    227 ****         8.5000 -16.2500 -49.7500 Du        
    228 ****         8.5000 -16.2500 -49.5000 Du        
    229 ****         8.5000 -16.2500 -49.2500 Du        
    230 ****         8.5000 -16.2500 -49.0000 Du        
    231 ****         8.5000 -16.2500 -48.7500 Du        
    232 ****         8.5000 -16.0000 -51.0000 Du        
    233 ****         8.5000 -16.0000 -50.7500 Du        
    234 ****         8.5000 -16.0000 -50.5000 Du        
    235 ****         8.5000 -16.0000 -50.2500 Du        
    236 ****         8.5000 -16.0000 -50.0000 Du        
    237 ****         8.5000 -16.0000 -49.7500 Du        
    238 ****         8.5000 -16.0000 -49.5000 Du        
    239 ****         8.5000 -16.0000 -49.2500 Du        
    240 ****         8.5000 -16.0000 -49.0000 Du        
    241 ****         8.5000 -16.0000 -48.7500 Du        
    242 ****         8.5000 -15.7500 -51.0000 Du        
    243 ****         8.5000 -15.7500 -50.7500 Du        
    244 ****         8.5000 -15.7500 -50.5000 Du        
    245 ****         8.5000 -15.7500 -50.2500 Du        
    246 ****         8.5000 -15.7500 -50.0000 Du        
    247 ****         8.5000 -15.7500 -49.7500 Du        
    248 ****         8.5000 -15.7500 -49.5000 Du        
    249 ****         8.5000 -15.7500 -49.2500 Du        
    250 ****         8.5000 -15.7500 -49.0000 Du        
    251 ****         8.5000 -15.5000 -50.2500 Du        
    252 ****         8.5000 -15.5000 -50.0000 Du        
    253 ****         8.5000 -15.5000 -49.7500 Du        
    254 ****         8.5000 -15.5000 -49.5000 Du        
    255 ****         8.5000 -15.5000 -49.2500 Du        
    256 ****         8.5000 -15.5000 -49.0000 Du        
    257 ****         8.5000 -15.2500 -49.7500 Du        
    258 ****         8.5000 -15.2500 -49.5000 Du        
    259 ****         8.5000 -15.2500 -49.2500 Du        
    260 ****         8.5000 -15.2500 -49.0000 Du        
    261 ****         8.5000 -15.0000 -49.5000 Du        
    262 ****         8.5000 -15.0000 -49.2500 Du        
    263 ****         8.7500 -17.2500 -51.0000 Du        
    264 ****         8.7500 -17.2500 -50.7500 Du        
    265 ****         8.7500 -17.2500 -50.5000 Du        
    266 ****         8.7500 -17.2500 -50.2500 Du        
    267 ****         8.7500 -17.2500 -50.0000 Du        
    268 ****         8.7500 -17.2500 -49.7500 Du        
    269 ****         8.7500 -17.0000 -51.2500 Du        
    270 ****         8.7500 -17.0000 -51.0000 Du        
    271 ****         8.7500 -17.0000 -50.7500 Du        
    272 ****         8.7500 -17.0000 -50.5000 Du        
    273 ****         8.7500 -17.0000 -50.2500 Du        
    274 ****         8.7500 -17.0000 -50.0000 Du        
    275 ****         8.7500 -17.0000 -49.7500 Du        
    276 ****         8.7500 -17.0000 -49.5000 Du        
    277 ****         8.7500 -17.0000 -49.2500 Du        
    278 ****         8.7500 -16.7500 -51.2500 Du        
    279 ****         8.7500 -16.7500 -51.0000 Du        
    280 ****         8.7500 -16.7500 -50.7500 Du        
    281 ****         8.7500 -16.7500 -50.5000 Du        
    282 ****         8.7500 -16.7500 -50.2500 Du        
    283 ****         8.7500 -16.7500 -50.0000 Du        
    284 ****         8.7500 -16.7500 -49.7500 Du        
    285 ****         8.7500 -16.7500 -49.5000 Du        
    286 ****         8.7500 -16.7500 -49.2500 Du        
    287 ****         8.7500 -16.7500 -49.0000 Du        
    288 ****         8.7500 -16.5000 -51.2500 Du        
    289 ****         8.7500 -16.5000 -51.0000 Du        
    290 ****         8.7500 -16.5000 -50.7500 Du        
    291 ****         8.7500 -16.5000 -50.5000 Du        
    292 ****         8.7500 -16.5000 -50.2500 Du        
    293 ****         8.7500 -16.5000 -50.0000 Du        
    294 ****         8.7500 -16.5000 -49.7500 Du        
    295 ****         8.7500 -16.5000 -49.5000 Du        
    296 ****         8.7500 -16.5000 -49.2500 Du        
    297 ****         8.7500 -16.5000 -49.0000 Du        
    298 ****         8.7500 -16.5000 -48.7500 Du        
    299 ****         8.7500 -16.2500 -51.5000 Du        
    300 ****         8.7500 -16.2500 -51.2500 Du        
    301 ****         8.7500 -16.2500 -51.0000 Du        
    302 ****         8.7500 -16.2500 -50.7500 Du        
    303 ****         8.7500 -16.2500 -50.5000 Du        
    304 ****         8.7500 -16.2500 -50.2500 Du        
    305 ****         8.7500 -16.2500 -50.0000 Du        
    306 ****         8.7500 -16.2500 -49.7500 Du        
    307 ****         8.7500 -16.2500 -49.5000 Du        
    308 ****         8.7500 -16.2500 -49.2500 Du        
    309 ****         8.7500 -16.2500 -49.0000 Du        
    310 ****         8.7500 -16.2500 -48.7500 Du        
    311 ****         8.7500 -16.0000 -51.5000 Du        
    312 ****         8.7500 -16.0000 -51.2500 Du        
    313 ****         8.7500 -16.0000 -51.0000 Du        
    314 ****         8.7500 -16.0000 -50.7500 Du        
    315 ****         8.7500 -16.0000 -50.5000 Du        
    316 ****         8.7500 -16.0000 -50.2500 Du        
    317 ****         8.7500 -16.0000 -50.0000 Du        
    318 ****         8.7500 -16.0000 -49.7500 Du        
    319 ****         8.7500 -16.0000 -49.5000 Du        
    320 ****         8.7500 -16.0000 -49.2500 Du        
    321 ****         8.7500 -16.0000 -49.0000 Du        
    322 ****         8.7500 -16.0000 -48.7500 Du        
    323 ****         8.7500 -15.7500 -51.5000 Du        
    324 ****         8.7500 -15.7500 -51.2500 Du        
    325 ****         8.7500 -15.7500 -51.0000 Du        
    326 ****         8.7500 -15.7500 -50.7500 Du        
    327 ****         8.7500 -15.7500 -50.5000 Du        
    328 ****         8.7500 -15.7500 -50.2500 Du        
    329 ****         8.7500 -15.7500 -50.0000 Du        
    330 ****         8.7500 -15.7500 -49.7500 Du        
    331 ****         8.7500 -15.7500 -49.5000 Du        
    332 ****         8.7500 -15.7500 -49.2500 Du        
    333 ****         8.7500 -15.7500 -49.0000 Du        
    334 ****         8.7500 -15.7500 -48.7500 Du        
    335 ****         8.7500 -15.5000 -50.5000 Du        
    336 ****         8.7500 -15.5000 -50.2500 Du        
    337 ****         8.7500 -15.5000 -50.0000 Du        
    338 ****         8.7500 -15.5000 -49.7500 Du        
    339 ****         8.7500 -15.5000 -49.5000 Du        
    340 ****         8.7500 -15.5000 -49.2500 Du        
    341 ****         8.7500 -15.5000 -49.0000 Du        
    342 ****         8.7500 -15.2500 -50.0000 Du        
    343 ****         8.7500 -15.2500 -49.7500 Du        
    344 ****         8.7500 -15.2500 -49.5000 Du        
    345 ****         8.7500 -15.2500 -49.2500 Du        
    346 ****         8.7500 -15.2500 -49.0000 Du        
    347 ****         8.7500 -15.0000 -49.5000 Du        
    348 ****         8.7500 -15.0000 -49.2500 Du        
    349 ****         8.7500 -15.0000 -49.0000 Du        
    350 ****         8.7500 -14.7500 -49.2500 Du        
    351 ****         8.7500 -14.7500 -49.0000 Du        
    352 ****         9.0000 -17.2500 -51.5000 Du        
    353 ****         9.0000 -17.2500 -51.2500 Du        
    354 ****         9.0000 -17.2500 -51.0000 Du        
    355 ****         9.0000 -17.2500 -50.7500 Du        
    356 ****         9.0000 -17.2500 -50.5000 Du        
    357 ****         9.0000 -17.2500 -50.2500 Du        
    358 ****         9.0000 -17.2500 -50.0000 Du        
    359 ****         9.0000 -17.2500 -49.7500 Du        
    360 ****         9.0000 -17.0000 -51.7500 Du        
    361 ****         9.0000 -17.0000 -51.5000 Du        
    362 ****         9.0000 -17.0000 -51.2500 Du        
    363 ****         9.0000 -17.0000 -51.0000 Du        
    364 ****         9.0000 -17.0000 -50.7500 Du        
    365 ****         9.0000 -17.0000 -50.5000 Du        
    366 ****         9.0000 -17.0000 -50.2500 Du        
    367 ****         9.0000 -17.0000 -50.0000 Du        
    368 ****         9.0000 -17.0000 -49.7500 Du        
    369 ****         9.0000 -17.0000 -49.5000 Du        
    370 ****         9.0000 -17.0000 -49.2500 Du        
    371 ****         9.0000 -16.7500 -51.7500 Du        
    372 ****         9.0000 -16.7500 -51.5000 Du        
    373 ****         9.0000 -16.7500 -51.2500 Du        
    374 ****         9.0000 -16.7500 -51.0000 Du        
    375 ****         9.0000 -16.7500 -50.7500 Du        
    376 ****         9.0000 -16.7500 -50.5000 Du        
    377 ****         9.0000 -16.7500 -50.2500 Du        
    378 ****         9.0000 -16.7500 -50.0000 Du        
    379 ****         9.0000 -16.7500 -49.7500 Du        
    380 ****         9.0000 -16.7500 -49.5000 Du        
    381 ****         9.0000 -16.7500 -49.2500 Du        
    382 ****         9.0000 -16.7500 -49.0000 Du        
    383 ****         9.0000 -16.5000 -51.7500 Du        
    384 ****         9.0000 -16.5000 -51.5000 Du        
    385 ****         9.0000 -16.5000 -51.2500 Du        
    386 ****         9.0000 -16.5000 -51.0000 Du        
    387 ****         9.0000 -16.5000 -50.7500 Du        
    388 ****         9.0000 -16.5000 -50.5000 Du        
    389 ****         9.0000 -16.5000 -50.2500 Du        
    390 ****         9.0000 -16.5000 -50.0000 Du        
    391 ****         9.0000 -16.5000 -49.7500 Du        
    392 ****         9.0000 -16.5000 -49.5000 Du        
    393 ****         9.0000 -16.5000 -49.2500 Du        
    394 ****         9.0000 -16.5000 -49.0000 Du        
    395 ****         9.0000 -16.2500 -52.0000 Du        
    396 ****         9.0000 -16.2500 -51.7500 Du        
    397 ****         9.0000 -16.2500 -51.5000 Du        
    398 ****         9.0000 -16.2500 -51.2500 Du        
    399 ****         9.0000 -16.2500 -51.0000 Du        
    400 ****         9.0000 -16.2500 -50.7500 Du        
    401 ****         9.0000 -16.2500 -50.5000 Du        
    402 ****         9.0000 -16.2500 -50.2500 Du        
    403 ****         9.0000 -16.2500 -50.0000 Du        
    404 ****         9.0000 -16.2500 -49.7500 Du        
    405 ****         9.0000 -16.2500 -49.5000 Du        
    406 ****         9.0000 -16.2500 -49.2500 Du        
    407 ****         9.0000 -16.2500 -49.0000 Du        
    408 ****         9.0000 -16.2500 -48.7500 Du        
    409 ****         9.0000 -16.0000 -52.2500 Du        
    410 ****         9.0000 -16.0000 -52.0000 Du        
    411 ****         9.0000 -16.0000 -51.7500 Du        
    412 ****         9.0000 -16.0000 -51.5000 Du        
    413 ****         9.0000 -16.0000 -51.2500 Du        
    414 ****         9.0000 -16.0000 -51.0000 Du        
    415 ****         9.0000 -16.0000 -50.7500 Du        
    416 ****         9.0000 -16.0000 -50.5000 Du        
    417 ****         9.0000 -16.0000 -50.2500 Du        
    418 ****         9.0000 -16.0000 -50.0000 Du        
    419 ****         9.0000 -16.0000 -49.7500 Du        
    420 ****         9.0000 -16.0000 -49.5000 Du        
    421 ****         9.0000 -16.0000 -49.2500 Du        
    422 ****         9.0000 -16.0000 -49.0000 Du        
    423 ****         9.0000 -16.0000 -48.7500 Du        
    424 ****         9.0000 -15.7500 -52.0000 Du        
    425 ****         9.0000 -15.7500 -51.7500 Du        
    426 ****         9.0000 -15.7500 -51.5000 Du        
    427 ****         9.0000 -15.7500 -51.2500 Du        
    428 ****         9.0000 -15.7500 -51.0000 Du        
    429 ****         9.0000 -15.7500 -50.7500 Du        
    430 ****         9.0000 -15.7500 -50.5000 Du        
    431 ****         9.0000 -15.7500 -50.2500 Du        
    432 ****         9.0000 -15.7500 -50.0000 Du        
    433 ****         9.0000 -15.7500 -49.7500 Du        
    434 ****         9.0000 -15.7500 -49.5000 Du        
    435 ****         9.0000 -15.7500 -49.2500 Du        
    436 ****         9.0000 -15.7500 -49.0000 Du        
    437 ****         9.0000 -15.7500 -48.7500 Du        
    438 ****         9.0000 -15.5000 -51.2500 Du        
    439 ****         9.0000 -15.5000 -51.0000 Du        
    440 ****         9.0000 -15.5000 -50.7500 Du        
    441 ****         9.0000 -15.5000 -50.5000 Du        
    442 ****         9.0000 -15.5000 -50.2500 Du        
    443 ****         9.0000 -15.5000 -50.0000 Du        
    444 ****         9.0000 -15.5000 -49.7500 Du        
    445 ****         9.0000 -15.5000 -49.5000 Du        
    446 ****         9.0000 -15.5000 -49.2500 Du        
    447 ****         9.0000 -15.5000 -49.0000 Du        
    448 ****         9.0000 -15.5000 -48.7500 Du        
    449 ****         9.0000 -15.2500 -50.2500 Du        
    450 ****         9.0000 -15.2500 -50.0000 Du        
    451 ****         9.0000 -15.2500 -49.7500 Du        
    452 ****         9.0000 -15.2500 -49.5000 Du        
    453 ****         9.0000 -15.2500 -49.2500 Du        
    454 ****         9.0000 -15.2500 -49.0000 Du        
    455 ****         9.0000 -15.2500 -48.7500 Du        
    456 ****         9.0000 -15.0000 -49.7500 Du        
    457 ****         9.0000 -15.0000 -49.5000 Du        
    458 ****         9.0000 -15.0000 -49.2500 Du        
    459 ****         9.0000 -15.0000 -49.0000 Du        
    460 ****         9.0000 -15.0000 -48.7500 Du        
    461 ****         9.0000 -14.7500 -49.5000 Du        
    462 ****         9.0000 -14.7500 -49.2500 Du        
    463 ****         9.0000 -14.7500 -49.0000 Du        
    464 ****         9.0000 -14.5000 -49.2500 Du        
    465 ****         9.0000 -14.5000 -49.0000 Du        
    466 ****         9.0000 -14.2500 -49.0000 Du        
    467 ****         9.2500 -17.5000 -51.5000 Du        
    468 ****         9.2500 -17.5000 -51.2500 Du        
    469 ****         9.2500 -17.5000 -51.0000 Du        
    470 ****         9.2500 -17.2500 -52.0000 Du        
    471 ****         9.2500 -17.2500 -51.7500 Du        
    472 ****         9.2500 -17.2500 -51.5000 Du        
    473 ****         9.2500 -17.2500 -51.2500 Du        
    474 ****         9.2500 -17.2500 -51.0000 Du        
    475 ****         9.2500 -17.2500 -50.7500 Du        
    476 ****         9.2500 -17.2500 -50.5000 Du        
    477 ****         9.2500 -17.2500 -50.2500 Du        
    478 ****         9.2500 -17.2500 -50.0000 Du        
    479 ****         9.2500 -17.2500 -49.7500 Du        
    480 ****         9.2500 -17.0000 -52.2500 Du        
    481 ****         9.2500 -17.0000 -52.0000 Du        
    482 ****         9.2500 -17.0000 -51.7500 Du        
    483 ****         9.2500 -17.0000 -51.5000 Du        
    484 ****         9.2500 -17.0000 -51.2500 Du        
    485 ****         9.2500 -17.0000 -51.0000 Du        
    486 ****         9.2500 -17.0000 -50.7500 Du        
    487 ****         9.2500 -17.0000 -50.5000 Du        
    488 ****         9.2500 -17.0000 -50.2500 Du        
    489 ****         9.2500 -17.0000 -50.0000 Du        
    490 ****         9.2500 -17.0000 -49.7500 Du        
    491 ****         9.2500 -17.0000 -49.5000 Du        
    492 ****         9.2500 -16.7500 -52.2500 Du        
    493 ****         9.2500 -16.7500 -52.0000 Du        
    494 ****         9.2500 -16.7500 -51.7500 Du        
    495 ****         9.2500 -16.7500 -51.5000 Du        
    496 ****         9.2500 -16.7500 -51.2500 Du        
    497 ****         9.2500 -16.7500 -51.0000 Du        
    498 ****         9.2500 -16.7500 -50.7500 Du        
    499 ****         9.2500 -16.7500 -50.5000 Du        
    500 ****         9.2500 -16.7500 -50.2500 Du        
    501 ****         9.2500 -16.7500 -50.0000 Du        
    502 ****         9.2500 -16.7500 -49.7500 Du        
    503 ****         9.2500 -16.7500 -49.5000 Du        
    504 ****         9.2500 -16.7500 -49.2500 Du        
    505 ****         9.2500 -16.5000 -53.5000 Du        
    506 ****         9.2500 -16.5000 -53.2500 Du        
    507 ****         9.2500 -16.5000 -53.0000 Du        
    508 ****         9.2500 -16.5000 -52.5000 Du        
    509 ****         9.2500 -16.5000 -52.2500 Du        
    510 ****         9.2500 -16.5000 -52.0000 Du        
    511 ****         9.2500 -16.5000 -51.7500 Du        
    512 ****         9.2500 -16.5000 -51.5000 Du        
    513 ****         9.2500 -16.5000 -51.2500 Du        
    514 ****         9.2500 -16.5000 -51.0000 Du        
    515 ****         9.2500 -16.5000 -50.7500 Du        
    516 ****         9.2500 -16.5000 -50.5000 Du        
    517 ****         9.2500 -16.5000 -50.2500 Du        
    518 ****         9.2500 -16.5000 -50.0000 Du        
    519 ****         9.2500 -16.5000 -49.7500 Du        
    520 ****         9.2500 -16.5000 -49.5000 Du        
    521 ****         9.2500 -16.5000 -49.2500 Du        
    522 ****         9.2500 -16.5000 -49.0000 Du        
    523 ****         9.2500 -16.2500 -53.2500 Du        
    524 ****         9.2500 -16.2500 -53.0000 Du        
    525 ****         9.2500 -16.2500 -52.7500 Du        
    526 ****         9.2500 -16.2500 -52.5000 Du        
    527 ****         9.2500 -16.2500 -52.2500 Du        
    528 ****         9.2500 -16.2500 -52.0000 Du        
    529 ****         9.2500 -16.2500 -51.7500 Du        
    530 ****         9.2500 -16.2500 -51.5000 Du        
    531 ****         9.2500 -16.2500 -51.2500 Du        
    532 ****         9.2500 -16.2500 -51.0000 Du        
    533 ****         9.2500 -16.2500 -50.7500 Du        
    534 ****         9.2500 -16.2500 -50.5000 Du        
    535 ****         9.2500 -16.2500 -50.2500 Du        
    536 ****         9.2500 -16.2500 -50.0000 Du        
    537 ****         9.2500 -16.2500 -49.7500 Du        
    538 ****         9.2500 -16.2500 -49.5000 Du        
    539 ****         9.2500 -16.2500 -49.2500 Du        
    540 ****         9.2500 -16.2500 -49.0000 Du        
    541 ****         9.2500 -16.2500 -48.7500 Du        
    542 ****         9.2500 -16.0000 -53.0000 Du        
    543 ****         9.2500 -16.0000 -52.7500 Du        
    544 ****         9.2500 -16.0000 -52.5000 Du        
    545 ****         9.2500 -16.0000 -52.2500 Du        
    546 ****         9.2500 -16.0000 -52.0000 Du        
    547 ****         9.2500 -16.0000 -51.7500 Du        
    548 ****         9.2500 -16.0000 -51.5000 Du        
    549 ****         9.2500 -16.0000 -51.2500 Du        
    550 ****         9.2500 -16.0000 -51.0000 Du        
    551 ****         9.2500 -16.0000 -50.7500 Du        
    552 ****         9.2500 -16.0000 -50.5000 Du        
    553 ****         9.2500 -16.0000 -50.2500 Du        
    554 ****         9.2500 -16.0000 -50.0000 Du        
    555 ****         9.2500 -16.0000 -49.7500 Du        
    556 ****         9.2500 -16.0000 -49.5000 Du        
    557 ****         9.2500 -16.0000 -49.2500 Du        
    558 ****         9.2500 -16.0000 -49.0000 Du        
    559 ****         9.2500 -16.0000 -48.7500 Du        
    560 ****         9.2500 -15.7500 -52.5000 Du        
    561 ****         9.2500 -15.7500 -52.2500 Du        
    562 ****         9.2500 -15.7500 -52.0000 Du        
    563 ****         9.2500 -15.7500 -51.7500 Du        
    564 ****         9.2500 -15.7500 -51.5000 Du        
    565 ****         9.2500 -15.7500 -51.2500 Du        
    566 ****         9.2500 -15.7500 -51.0000 Du        
    567 ****         9.2500 -15.7500 -50.7500 Du        
    568 ****         9.2500 -15.7500 -50.5000 Du        
    569 ****         9.2500 -15.7500 -50.2500 Du        
    570 ****         9.2500 -15.7500 -50.0000 Du        
    571 ****         9.2500 -15.7500 -49.7500 Du        
    572 ****         9.2500 -15.7500 -49.5000 Du        
    573 ****         9.2500 -15.7500 -49.2500 Du        
    574 ****         9.2500 -15.7500 -49.0000 Du        
    575 ****         9.2500 -15.7500 -48.7500 Du        
    576 ****         9.2500 -15.7500 -48.5000 Du        
    577 ****         9.2500 -15.5000 -52.2500 Du        
    578 ****         9.2500 -15.5000 -52.0000 Du        
    579 ****         9.2500 -15.5000 -51.7500 Du        
    580 ****         9.2500 -15.5000 -51.5000 Du        
    581 ****         9.2500 -15.5000 -51.2500 Du        
    582 ****         9.2500 -15.5000 -51.0000 Du        
    583 ****         9.2500 -15.5000 -50.7500 Du        
    584 ****         9.2500 -15.5000 -50.5000 Du        
    585 ****         9.2500 -15.5000 -50.2500 Du        
    586 ****         9.2500 -15.5000 -50.0000 Du        
    587 ****         9.2500 -15.5000 -49.7500 Du        
    588 ****         9.2500 -15.5000 -49.5000 Du        
    589 ****         9.2500 -15.5000 -49.2500 Du        
    590 ****         9.2500 -15.5000 -49.0000 Du        
    591 ****         9.2500 -15.5000 -48.7500 Du        
    592 ****         9.2500 -15.5000 -48.5000 Du        
    593 ****         9.2500 -15.2500 -50.5000 Du        
    594 ****         9.2500 -15.2500 -50.2500 Du        
    595 ****         9.2500 -15.2500 -50.0000 Du        
    596 ****         9.2500 -15.2500 -49.7500 Du        
    597 ****         9.2500 -15.2500 -49.5000 Du        
    598 ****         9.2500 -15.2500 -49.2500 Du        
    599 ****         9.2500 -15.2500 -49.0000 Du        
    600 ****         9.2500 -15.2500 -48.7500 Du        
    601 ****         9.2500 -15.2500 -48.5000 Du        
    602 ****         9.2500 -15.0000 -50.0000 Du        
    603 ****         9.2500 -15.0000 -49.7500 Du        
    604 ****         9.2500 -15.0000 -49.5000 Du        
    605 ****         9.2500 -15.0000 -49.2500 Du        
    606 ****         9.2500 -15.0000 -49.0000 Du        
    607 ****         9.2500 -15.0000 -48.7500 Du        
    608 ****         9.2500 -15.0000 -48.5000 Du        
    609 ****         9.2500 -14.7500 -49.7500 Du        
    610 ****         9.2500 -14.7500 -49.5000 Du        
    611 ****         9.2500 -14.7500 -49.2500 Du        
    612 ****         9.2500 -14.7500 -49.0000 Du        
    613 ****         9.2500 -14.7500 -48.7500 Du        
    614 ****         9.2500 -14.5000 -49.5000 Du        
    615 ****         9.2500 -14.5000 -49.2500 Du        
    616 ****         9.2500 -14.5000 -49.0000 Du        
    617 ****         9.2500 -14.5000 -48.7500 Du        
    618 ****         9.2500 -14.2500 -49.2500 Du        
    619 ****         9.2500 -14.2500 -49.0000 Du        
    620 ****         9.2500 -14.2500 -48.7500 Du        
    621 ****         9.2500 -14.2500 -48.5000 Du        
    622 ****         9.2500 -14.0000 -49.0000 Du        
    623 ****         9.2500 -14.0000 -48.7500 Du        
    624 ****         9.2500 -14.0000 -48.5000 Du        
    625 ****         9.2500 -13.7500 -48.7500 Du        
    626 ****         9.5000 -17.5000 -51.5000 Du        
    627 ****         9.5000 -17.5000 -51.2500 Du        
    628 ****         9.5000 -17.5000 -51.0000 Du        
    629 ****         9.5000 -17.5000 -50.5000 Du        
    630 ****         9.5000 -17.2500 -52.0000 Du        
    631 ****         9.5000 -17.2500 -51.7500 Du        
    632 ****         9.5000 -17.2500 -51.5000 Du        
    633 ****         9.5000 -17.2500 -51.2500 Du        
    634 ****         9.5000 -17.2500 -51.0000 Du        
    635 ****         9.5000 -17.2500 -50.7500 Du        
    636 ****         9.5000 -17.2500 -50.5000 Du        
    637 ****         9.5000 -17.2500 -50.2500 Du        
    638 ****         9.5000 -17.2500 -50.0000 Du        
    639 ****         9.5000 -17.0000 -52.2500 Du        
    640 ****         9.5000 -17.0000 -52.0000 Du        
    641 ****         9.5000 -17.0000 -51.7500 Du        
    642 ****         9.5000 -17.0000 -51.5000 Du        
    643 ****         9.5000 -17.0000 -51.2500 Du        
    644 ****         9.5000 -17.0000 -51.0000 Du        
    645 ****         9.5000 -17.0000 -50.7500 Du        
    646 ****         9.5000 -17.0000 -50.5000 Du        
    647 ****         9.5000 -17.0000 -50.2500 Du        
    648 ****         9.5000 -17.0000 -50.0000 Du        
    649 ****         9.5000 -17.0000 -49.7500 Du        
    650 ****         9.5000 -16.7500 -52.2500 Du        
    651 ****         9.5000 -16.7500 -52.0000 Du        
    652 ****         9.5000 -16.7500 -51.7500 Du        
    653 ****         9.5000 -16.7500 -51.5000 Du        
    654 ****         9.5000 -16.7500 -51.2500 Du        
    655 ****         9.5000 -16.7500 -51.0000 Du        
    656 ****         9.5000 -16.7500 -50.7500 Du        
    657 ****         9.5000 -16.7500 -50.5000 Du        
    658 ****         9.5000 -16.7500 -50.2500 Du        
    659 ****         9.5000 -16.7500 -50.0000 Du        
    660 ****         9.5000 -16.7500 -49.7500 Du        
    661 ****         9.5000 -16.7500 -49.5000 Du        
    662 ****         9.5000 -16.5000 -53.2500 Du        
    663 ****         9.5000 -16.5000 -53.0000 Du        
    664 ****         9.5000 -16.5000 -52.7500 Du        
    665 ****         9.5000 -16.5000 -52.5000 Du        
    666 ****         9.5000 -16.5000 -52.2500 Du        
    667 ****         9.5000 -16.5000 -52.0000 Du        
    668 ****         9.5000 -16.5000 -51.7500 Du        
    669 ****         9.5000 -16.5000 -51.5000 Du        
    670 ****         9.5000 -16.5000 -51.2500 Du        
    671 ****         9.5000 -16.5000 -51.0000 Du        
    672 ****         9.5000 -16.5000 -50.7500 Du        
    673 ****         9.5000 -16.5000 -50.5000 Du        
    674 ****         9.5000 -16.5000 -50.2500 Du        
    675 ****         9.5000 -16.5000 -50.0000 Du        
    676 ****         9.5000 -16.5000 -49.7500 Du        
    677 ****         9.5000 -16.5000 -49.5000 Du        
    678 ****         9.5000 -16.5000 -49.2500 Du        
    679 ****         9.5000 -16.2500 -53.2500 Du        
    680 ****         9.5000 -16.2500 -53.0000 Du        
    681 ****         9.5000 -16.2500 -52.7500 Du        
    682 ****         9.5000 -16.2500 -52.5000 Du        
    683 ****         9.5000 -16.2500 -52.2500 Du        
    684 ****         9.5000 -16.2500 -52.0000 Du        
    685 ****         9.5000 -16.2500 -51.7500 Du        
    686 ****         9.5000 -16.2500 -51.5000 Du        
    687 ****         9.5000 -16.2500 -51.2500 Du        
    688 ****         9.5000 -16.2500 -51.0000 Du        
    689 ****         9.5000 -16.2500 -50.7500 Du        
    690 ****         9.5000 -16.2500 -50.5000 Du        
    691 ****         9.5000 -16.2500 -50.2500 Du        
    692 ****         9.5000 -16.2500 -50.0000 Du        
    693 ****         9.5000 -16.2500 -49.7500 Du        
    694 ****         9.5000 -16.2500 -49.5000 Du        
    695 ****         9.5000 -16.2500 -49.2500 Du        
    696 ****         9.5000 -16.2500 -49.0000 Du        
    697 ****         9.5000 -16.0000 -53.0000 Du        
    698 ****         9.5000 -16.0000 -52.7500 Du        
    699 ****         9.5000 -16.0000 -52.5000 Du        
    700 ****         9.5000 -16.0000 -52.2500 Du        
    701 ****         9.5000 -16.0000 -52.0000 Du        
    702 ****         9.5000 -16.0000 -51.7500 Du        
    703 ****         9.5000 -16.0000 -51.5000 Du        
    704 ****         9.5000 -16.0000 -51.2500 Du        
    705 ****         9.5000 -16.0000 -51.0000 Du        
    706 ****         9.5000 -16.0000 -50.7500 Du        
    707 ****         9.5000 -16.0000 -50.5000 Du        
    708 ****         9.5000 -16.0000 -50.2500 Du        
    709 ****         9.5000 -16.0000 -50.0000 Du        
    710 ****         9.5000 -16.0000 -49.7500 Du        
    711 ****         9.5000 -16.0000 -49.5000 Du        
    712 ****         9.5000 -16.0000 -49.2500 Du        
    713 ****         9.5000 -16.0000 -49.0000 Du        
    714 ****         9.5000 -16.0000 -48.7500 Du        
    715 ****         9.5000 -15.7500 -52.7500 Du        
    716 ****         9.5000 -15.7500 -52.5000 Du        
    717 ****         9.5000 -15.7500 -52.2500 Du        
    718 ****         9.5000 -15.7500 -52.0000 Du        
    719 ****         9.5000 -15.7500 -51.7500 Du        
    720 ****         9.5000 -15.7500 -51.5000 Du        
    721 ****         9.5000 -15.7500 -51.2500 Du        
    722 ****         9.5000 -15.7500 -51.0000 Du        
    723 ****         9.5000 -15.7500 -50.7500 Du        
    724 ****         9.5000 -15.7500 -50.5000 Du        
    725 ****         9.5000 -15.7500 -50.2500 Du        
    726 ****         9.5000 -15.7500 -50.0000 Du        
    727 ****         9.5000 -15.7500 -49.7500 Du        
    728 ****         9.5000 -15.7500 -49.5000 Du        
    729 ****         9.5000 -15.7500 -49.2500 Du        
    730 ****         9.5000 -15.7500 -49.0000 Du        
    731 ****         9.5000 -15.7500 -48.7500 Du        
    732 ****         9.5000 -15.7500 -48.5000 Du        
    733 ****         9.5000 -15.5000 -52.2500 Du        
    734 ****         9.5000 -15.5000 -52.0000 Du        
    735 ****         9.5000 -15.5000 -51.7500 Du        
    736 ****         9.5000 -15.5000 -51.5000 Du        
    737 ****         9.5000 -15.5000 -51.2500 Du        
    738 ****         9.5000 -15.5000 -51.0000 Du        
    739 ****         9.5000 -15.5000 -50.7500 Du        
    740 ****         9.5000 -15.5000 -50.5000 Du        
    741 ****         9.5000 -15.5000 -50.2500 Du        
    742 ****         9.5000 -15.5000 -50.0000 Du        
    743 ****         9.5000 -15.5000 -49.7500 Du        
    744 ****         9.5000 -15.5000 -49.5000 Du        
    745 ****         9.5000 -15.5000 -49.2500 Du        
    746 ****         9.5000 -15.5000 -49.0000 Du        
    747 ****         9.5000 -15.5000 -48.7500 Du        
    748 ****         9.5000 -15.5000 -48.5000 Du        
    749 ****         9.5000 -15.2500 -50.5000 Du        
    750 ****         9.5000 -15.2500 -50.2500 Du        
    751 ****         9.5000 -15.2500 -50.0000 Du        
    752 ****         9.5000 -15.2500 -49.7500 Du        
    753 ****         9.5000 -15.2500 -49.5000 Du        
    754 ****         9.5000 -15.2500 -49.2500 Du        
    755 ****         9.5000 -15.2500 -49.0000 Du        
    756 ****         9.5000 -15.2500 -48.7500 Du        
    757 ****         9.5000 -15.2500 -48.5000 Du        
    758 ****         9.5000 -15.2500 -48.2500 Du        
    759 ****         9.5000 -15.0000 -50.2500 Du        
    760 ****         9.5000 -15.0000 -50.0000 Du        
    761 ****         9.5000 -15.0000 -49.7500 Du        
    762 ****         9.5000 -15.0000 -49.5000 Du        
    763 ****         9.5000 -15.0000 -49.2500 Du        
    764 ****         9.5000 -15.0000 -49.0000 Du        
    765 ****         9.5000 -15.0000 -48.7500 Du        
    766 ****         9.5000 -15.0000 -48.5000 Du        
    767 ****         9.5000 -15.0000 -48.2500 Du        
    768 ****         9.5000 -14.7500 -50.0000 Du        
    769 ****         9.5000 -14.7500 -49.7500 Du        
    770 ****         9.5000 -14.7500 -49.5000 Du        
    771 ****         9.5000 -14.7500 -49.2500 Du        
    772 ****         9.5000 -14.7500 -49.0000 Du        
    773 ****         9.5000 -14.7500 -48.7500 Du        
    774 ****         9.5000 -14.7500 -48.5000 Du        
    775 ****         9.5000 -14.7500 -48.2500 Du        
    776 ****         9.5000 -14.5000 -49.5000 Du        
    777 ****         9.5000 -14.5000 -49.2500 Du        
    778 ****         9.5000 -14.5000 -49.0000 Du        
    779 ****         9.5000 -14.5000 -48.7500 Du        
    780 ****         9.5000 -14.5000 -48.5000 Du        
    781 ****         9.5000 -14.2500 -49.2500 Du        
    782 ****         9.5000 -14.2500 -49.0000 Du        
    783 ****         9.5000 -14.2500 -48.7500 Du        
    784 ****         9.5000 -14.2500 -48.5000 Du        
    785 ****         9.5000 -14.2500 -48.2500 Du        
    786 ****         9.5000 -14.0000 -49.2500 Du        
    787 ****         9.5000 -14.0000 -49.0000 Du        
    788 ****         9.5000 -14.0000 -48.7500 Du        
    789 ****         9.5000 -14.0000 -48.5000 Du        
    790 ****         9.5000 -13.7500 -49.0000 Du        
    791 ****         9.5000 -13.7500 -48.7500 Du        
    792 ****         9.5000 -13.7500 -48.5000 Du        
    793 ****         9.5000 -13.5000 -48.7500 Du        
    794 ****         9.5000 -13.5000 -48.5000 Du        
    795 ****         9.7500 -17.7500 -51.0000 Du        
    796 ****         9.7500 -17.5000 -51.5000 Du        
    797 ****         9.7500 -17.5000 -51.2500 Du        
    798 ****         9.7500 -17.5000 -51.0000 Du        
    799 ****         9.7500 -17.5000 -50.7500 Du        
    800 ****         9.7500 -17.5000 -50.5000 Du        
    801 ****         9.7500 -17.5000 -50.2500 Du        
    802 ****         9.7500 -17.2500 -52.0000 Du        
    803 ****         9.7500 -17.2500 -51.7500 Du        
    804 ****         9.7500 -17.2500 -51.5000 Du        
    805 ****         9.7500 -17.2500 -51.2500 Du        
    806 ****         9.7500 -17.2500 -51.0000 Du        
    807 ****         9.7500 -17.2500 -50.7500 Du        
    808 ****         9.7500 -17.2500 -50.5000 Du        
    809 ****         9.7500 -17.2500 -50.2500 Du        
    810 ****         9.7500 -17.2500 -50.0000 Du        
    811 ****         9.7500 -17.0000 -52.2500 Du        
    812 ****         9.7500 -17.0000 -52.0000 Du        
    813 ****         9.7500 -17.0000 -51.7500 Du        
    814 ****         9.7500 -17.0000 -51.5000 Du        
    815 ****         9.7500 -17.0000 -51.2500 Du        
    816 ****         9.7500 -17.0000 -51.0000 Du        
    817 ****         9.7500 -17.0000 -50.7500 Du        
    818 ****         9.7500 -17.0000 -50.5000 Du        
    819 ****         9.7500 -17.0000 -50.2500 Du        
    820 ****         9.7500 -17.0000 -50.0000 Du        
    821 ****         9.7500 -16.7500 -52.2500 Du        
    822 ****         9.7500 -16.7500 -52.0000 Du        
    823 ****         9.7500 -16.7500 -51.7500 Du        
    824 ****         9.7500 -16.7500 -51.5000 Du        
    825 ****         9.7500 -16.7500 -51.2500 Du        
    826 ****         9.7500 -16.7500 -51.0000 Du        
    827 ****         9.7500 -16.7500 -50.7500 Du        
    828 ****         9.7500 -16.7500 -50.5000 Du        
    829 ****         9.7500 -16.7500 -50.2500 Du        
    830 ****         9.7500 -16.7500 -50.0000 Du        
    831 ****         9.7500 -16.7500 -49.7500 Du        
    832 ****         9.7500 -16.5000 -53.2500 Du        
    833 ****         9.7500 -16.5000 -53.0000 Du        
    834 ****         9.7500 -16.5000 -52.5000 Du        
    835 ****         9.7500 -16.5000 -52.2500 Du        
    836 ****         9.7500 -16.5000 -52.0000 Du        
    837 ****         9.7500 -16.5000 -51.7500 Du        
    838 ****         9.7500 -16.5000 -51.5000 Du        
    839 ****         9.7500 -16.5000 -51.2500 Du        
    840 ****         9.7500 -16.5000 -51.0000 Du        
    841 ****         9.7500 -16.5000 -50.7500 Du        
    842 ****         9.7500 -16.5000 -50.5000 Du        
    843 ****         9.7500 -16.5000 -50.2500 Du        
    844 ****         9.7500 -16.5000 -50.0000 Du        
    845 ****         9.7500 -16.5000 -49.7500 Du        
    846 ****         9.7500 -16.5000 -49.5000 Du        
    847 ****         9.7500 -16.5000 -49.2500 Du        
    848 ****         9.7500 -16.2500 -53.2500 Du        
    849 ****         9.7500 -16.2500 -53.0000 Du        
    850 ****         9.7500 -16.2500 -52.7500 Du        
    851 ****         9.7500 -16.2500 -52.5000 Du        
    852 ****         9.7500 -16.2500 -52.2500 Du        
    853 ****         9.7500 -16.2500 -52.0000 Du        
    854 ****         9.7500 -16.2500 -51.7500 Du        
    855 ****         9.7500 -16.2500 -51.5000 Du        
    856 ****         9.7500 -16.2500 -51.2500 Du        
    857 ****         9.7500 -16.2500 -51.0000 Du        
    858 ****         9.7500 -16.2500 -50.7500 Du        
    859 ****         9.7500 -16.2500 -50.5000 Du        
    860 ****         9.7500 -16.2500 -50.2500 Du        
    861 ****         9.7500 -16.2500 -50.0000 Du        
    862 ****         9.7500 -16.2500 -49.7500 Du        
    863 ****         9.7500 -16.2500 -49.5000 Du        
    864 ****         9.7500 -16.2500 -49.2500 Du        
    865 ****         9.7500 -16.2500 -49.0000 Du        
    866 ****         9.7500 -16.0000 -53.0000 Du        
    867 ****         9.7500 -16.0000 -52.7500 Du        
    868 ****         9.7500 -16.0000 -52.5000 Du        
    869 ****         9.7500 -16.0000 -52.2500 Du        
    870 ****         9.7500 -16.0000 -52.0000 Du        
    871 ****         9.7500 -16.0000 -51.7500 Du        
    872 ****         9.7500 -16.0000 -51.5000 Du        
    873 ****         9.7500 -16.0000 -51.2500 Du        
    874 ****         9.7500 -16.0000 -51.0000 Du        
    875 ****         9.7500 -16.0000 -50.7500 Du        
    876 ****         9.7500 -16.0000 -50.5000 Du        
    877 ****         9.7500 -16.0000 -50.2500 Du        
    878 ****         9.7500 -16.0000 -50.0000 Du        
    879 ****         9.7500 -16.0000 -49.7500 Du        
    880 ****         9.7500 -16.0000 -49.5000 Du        
    881 ****         9.7500 -16.0000 -49.2500 Du        
    882 ****         9.7500 -16.0000 -49.0000 Du        
    883 ****         9.7500 -16.0000 -48.7500 Du        
    884 ****         9.7500 -15.7500 -52.7500 Du        
    885 ****         9.7500 -15.7500 -52.5000 Du        
    886 ****         9.7500 -15.7500 -52.2500 Du        
    887 ****         9.7500 -15.7500 -52.0000 Du        
    888 ****         9.7500 -15.7500 -51.7500 Du        
    889 ****         9.7500 -15.7500 -51.5000 Du        
    890 ****         9.7500 -15.7500 -51.2500 Du        
    891 ****         9.7500 -15.7500 -51.0000 Du        
    892 ****         9.7500 -15.7500 -50.7500 Du        
    893 ****         9.7500 -15.7500 -50.5000 Du        
    894 ****         9.7500 -15.7500 -50.2500 Du        
    895 ****         9.7500 -15.7500 -50.0000 Du        
    896 ****         9.7500 -15.7500 -49.7500 Du        
    897 ****         9.7500 -15.7500 -49.5000 Du        
    898 ****         9.7500 -15.7500 -49.2500 Du        
    899 ****         9.7500 -15.7500 -49.0000 Du        
    900 ****         9.7500 -15.7500 -48.7500 Du        
    901 ****         9.7500 -15.7500 -48.5000 Du        
    902 ****         9.7500 -15.5000 -52.2500 Du        
    903 ****         9.7500 -15.5000 -52.0000 Du        
    904 ****         9.7500 -15.5000 -51.7500 Du        
    905 ****         9.7500 -15.5000 -51.5000 Du        
    906 ****         9.7500 -15.5000 -51.2500 Du        
    907 ****         9.7500 -15.5000 -51.0000 Du        
    908 ****         9.7500 -15.5000 -50.7500 Du        
    909 ****         9.7500 -15.5000 -50.5000 Du        
    910 ****         9.7500 -15.5000 -50.2500 Du        
    911 ****         9.7500 -15.5000 -50.0000 Du        
    912 ****         9.7500 -15.5000 -49.7500 Du        
    913 ****         9.7500 -15.5000 -49.5000 Du        
    914 ****         9.7500 -15.5000 -49.2500 Du        
    915 ****         9.7500 -15.5000 -49.0000 Du        
    916 ****         9.7500 -15.5000 -48.7500 Du        
    917 ****         9.7500 -15.5000 -48.5000 Du        
    918 ****         9.7500 -15.5000 -48.2500 Du        
    919 ****         9.7500 -15.2500 -51.2500 Du        
    920 ****         9.7500 -15.2500 -51.0000 Du        
    921 ****         9.7500 -15.2500 -50.7500 Du        
    922 ****         9.7500 -15.2500 -50.5000 Du        
    923 ****         9.7500 -15.2500 -50.2500 Du        
    924 ****         9.7500 -15.2500 -50.0000 Du        
    925 ****         9.7500 -15.2500 -49.7500 Du        
    926 ****         9.7500 -15.2500 -49.5000 Du        
    927 ****         9.7500 -15.2500 -49.2500 Du        
    928 ****         9.7500 -15.2500 -49.0000 Du        
    929 ****         9.7500 -15.2500 -48.7500 Du        
    930 ****         9.7500 -15.2500 -48.5000 Du        
    931 ****         9.7500 -15.2500 -48.2500 Du        
    932 ****         9.7500 -15.2500 -48.0000 Du        
    933 ****         9.7500 -15.0000 -50.5000 Du        
    934 ****         9.7500 -15.0000 -50.2500 Du        
    935 ****         9.7500 -15.0000 -50.0000 Du        
    936 ****         9.7500 -15.0000 -49.7500 Du        
    937 ****         9.7500 -15.0000 -49.5000 Du        
    938 ****         9.7500 -15.0000 -49.2500 Du        
    939 ****         9.7500 -15.0000 -49.0000 Du        
    940 ****         9.7500 -15.0000 -48.7500 Du        
    941 ****         9.7500 -15.0000 -48.5000 Du        
    942 ****         9.7500 -15.0000 -48.2500 Du        
    943 ****         9.7500 -15.0000 -48.0000 Du        
    944 ****         9.7500 -14.7500 -50.0000 Du        
    945 ****         9.7500 -14.7500 -49.7500 Du        
    946 ****         9.7500 -14.7500 -49.5000 Du        
    947 ****         9.7500 -14.7500 -49.2500 Du        
    948 ****         9.7500 -14.7500 -49.0000 Du        
    949 ****         9.7500 -14.7500 -48.7500 Du        
    950 ****         9.7500 -14.7500 -48.5000 Du        
    951 ****         9.7500 -14.7500 -48.2500 Du        
    952 ****         9.7500 -14.7500 -48.0000 Du        
    953 ****         9.7500 -14.7500 -47.7500 Du        
    954 ****         9.7500 -14.5000 -49.7500 Du        
    955 ****         9.7500 -14.5000 -49.5000 Du        
    956 ****         9.7500 -14.5000 -49.2500 Du        
    957 ****         9.7500 -14.5000 -49.0000 Du        
    958 ****         9.7500 -14.5000 -48.7500 Du        
    959 ****         9.7500 -14.5000 -48.5000 Du        
    960 ****         9.7500 -14.5000 -48.2500 Du        
    961 ****         9.7500 -14.5000 -48.0000 Du        
    962 ****         9.7500 -14.2500 -49.5000 Du        
    963 ****         9.7500 -14.2500 -49.2500 Du        
    964 ****         9.7500 -14.2500 -49.0000 Du        
    965 ****         9.7500 -14.2500 -48.7500 Du        
    966 ****         9.7500 -14.2500 -48.5000 Du        
    967 ****         9.7500 -14.2500 -48.2500 Du        
    968 ****         9.7500 -14.2500 -48.0000 Du        
    969 ****         9.7500 -14.0000 -49.2500 Du        
    970 ****         9.7500 -14.0000 -49.0000 Du        
    971 ****         9.7500 -14.0000 -48.7500 Du        
    972 ****         9.7500 -14.0000 -48.5000 Du        
    973 ****         9.7500 -14.0000 -48.2500 Du        
    974 ****         9.7500 -14.0000 -48.0000 Du        
    975 ****         9.7500 -13.7500 -49.0000 Du        
    976 ****         9.7500 -13.7500 -48.7500 Du        
    977 ****         9.7500 -13.7500 -48.5000 Du        
    978 ****         9.7500 -13.7500 -48.2500 Du        
    979 ****         9.7500 -13.5000 -49.0000 Du        
    980 ****         9.7500 -13.5000 -48.7500 Du        
    981 ****         9.7500 -13.5000 -48.5000 Du        
    982 ****         9.7500 -13.5000 -48.2500 Du        
    983 ****        10.0000 -17.5000 -51.2500 Du        
    984 ****        10.0000 -17.5000 -51.0000 Du        
    985 ****        10.0000 -17.5000 -50.7500 Du        
    986 ****        10.0000 -17.5000 -50.5000 Du        
    987 ****        10.0000 -17.2500 -51.5000 Du        
    988 ****        10.0000 -17.2500 -51.2500 Du        
    989 ****        10.0000 -17.2500 -51.0000 Du        
    990 ****        10.0000 -17.2500 -50.7500 Du        
    991 ****        10.0000 -17.2500 -50.5000 Du        
    992 ****        10.0000 -17.2500 -50.2500 Du        
    993 ****        10.0000 -17.0000 -52.0000 Du        
    994 ****        10.0000 -17.0000 -51.7500 Du        
    995 ****        10.0000 -17.0000 -51.5000 Du        
    996 ****        10.0000 -17.0000 -51.2500 Du        
    997 ****        10.0000 -17.0000 -51.0000 Du        
    998 ****        10.0000 -17.0000 -50.7500 Du        
    999 ****        10.0000 -17.0000 -50.5000 Du        
   1000 ****        10.0000 -17.0000 -50.2500 Du        
   1001 ****        10.0000 -17.0000 -50.0000 Du        
   1002 ****        10.0000 -16.7500 -52.0000 Du        
   1003 ****        10.0000 -16.7500 -51.7500 Du        
   1004 ****        10.0000 -16.7500 -51.5000 Du        
   1005 ****        10.0000 -16.7500 -51.2500 Du        
   1006 ****        10.0000 -16.7500 -51.0000 Du        
   1007 ****        10.0000 -16.7500 -50.7500 Du        
   1008 ****        10.0000 -16.7500 -50.5000 Du        
   1009 ****        10.0000 -16.7500 -50.2500 Du        
   1010 ****        10.0000 -16.7500 -50.0000 Du        
   1011 ****        10.0000 -16.7500 -49.7500 Du        
   1012 ****        10.0000 -16.5000 -52.5000 Du        
   1013 ****        10.0000 -16.5000 -52.2500 Du        
   1014 ****        10.0000 -16.5000 -52.0000 Du        
   1015 ****        10.0000 -16.5000 -51.7500 Du        
   1016 ****        10.0000 -16.5000 -51.5000 Du        
   1017 ****        10.0000 -16.5000 -51.2500 Du        
   1018 ****        10.0000 -16.5000 -51.0000 Du        
   1019 ****        10.0000 -16.5000 -50.7500 Du        
   1020 ****        10.0000 -16.5000 -50.5000 Du        
   1021 ****        10.0000 -16.5000 -50.2500 Du        
   1022 ****        10.0000 -16.5000 -50.0000 Du        
   1023 ****        10.0000 -16.5000 -49.7500 Du        
   1024 ****        10.0000 -16.2500 -53.0000 Du        
   1025 ****        10.0000 -16.2500 -52.7500 Du        
   1026 ****        10.0000 -16.2500 -52.5000 Du        
   1027 ****        10.0000 -16.2500 -52.2500 Du        
   1028 ****        10.0000 -16.2500 -52.0000 Du        
   1029 ****        10.0000 -16.2500 -51.7500 Du        
   1030 ****        10.0000 -16.2500 -51.5000 Du        
   1031 ****        10.0000 -16.2500 -51.2500 Du        
   1032 ****        10.0000 -16.2500 -51.0000 Du        
   1033 ****        10.0000 -16.2500 -50.7500 Du        
   1034 ****        10.0000 -16.2500 -50.5000 Du        
   1035 ****        10.0000 -16.2500 -50.2500 Du        
   1036 ****        10.0000 -16.2500 -50.0000 Du        
   1037 ****        10.0000 -16.2500 -49.7500 Du        
   1038 ****        10.0000 -16.2500 -49.5000 Du        
   1039 ****        10.0000 -16.2500 -49.2500 Du        
   1040 ****        10.0000 -16.0000 -53.0000 Du        
   1041 ****        10.0000 -16.0000 -52.7500 Du        
   1042 ****        10.0000 -16.0000 -52.5000 Du        
   1043 ****        10.0000 -16.0000 -52.2500 Du        
   1044 ****        10.0000 -16.0000 -52.0000 Du        
   1045 ****        10.0000 -16.0000 -51.7500 Du        
   1046 ****        10.0000 -16.0000 -51.5000 Du        
   1047 ****        10.0000 -16.0000 -51.2500 Du        
   1048 ****        10.0000 -16.0000 -51.0000 Du        
   1049 ****        10.0000 -16.0000 -50.7500 Du        
   1050 ****        10.0000 -16.0000 -50.5000 Du        
   1051 ****        10.0000 -16.0000 -50.2500 Du        
   1052 ****        10.0000 -16.0000 -50.0000 Du        
   1053 ****        10.0000 -16.0000 -49.7500 Du        
   1054 ****        10.0000 -16.0000 -49.5000 Du        
   1055 ****        10.0000 -16.0000 -49.2500 Du        
   1056 ****        10.0000 -16.0000 -49.0000 Du        
   1057 ****        10.0000 -15.7500 -52.2500 Du        
   1058 ****        10.0000 -15.7500 -52.0000 Du        
   1059 ****        10.0000 -15.7500 -51.7500 Du        
   1060 ****        10.0000 -15.7500 -51.5000 Du        
   1061 ****        10.0000 -15.7500 -51.2500 Du        
   1062 ****        10.0000 -15.7500 -51.0000 Du        
   1063 ****        10.0000 -15.7500 -50.7500 Du        
   1064 ****        10.0000 -15.7500 -50.5000 Du        
   1065 ****        10.0000 -15.7500 -50.2500 Du        
   1066 ****        10.0000 -15.7500 -50.0000 Du        
   1067 ****        10.0000 -15.7500 -49.7500 Du        
   1068 ****        10.0000 -15.7500 -49.5000 Du        
   1069 ****        10.0000 -15.7500 -49.2500 Du        
   1070 ****        10.0000 -15.7500 -49.0000 Du        
   1071 ****        10.0000 -15.7500 -48.7500 Du        
   1072 ****        10.0000 -15.7500 -48.5000 Du        
   1073 ****        10.0000 -15.5000 -51.7500 Du        
   1074 ****        10.0000 -15.5000 -51.5000 Du        
   1075 ****        10.0000 -15.5000 -51.2500 Du        
   1076 ****        10.0000 -15.5000 -51.0000 Du        
   1077 ****        10.0000 -15.5000 -50.7500 Du        
   1078 ****        10.0000 -15.5000 -50.5000 Du        
   1079 ****        10.0000 -15.5000 -50.2500 Du        
   1080 ****        10.0000 -15.5000 -50.0000 Du        
   1081 ****        10.0000 -15.5000 -49.7500 Du        
   1082 ****        10.0000 -15.5000 -49.5000 Du        
   1083 ****        10.0000 -15.5000 -49.2500 Du        
   1084 ****        10.0000 -15.5000 -49.0000 Du        
   1085 ****        10.0000 -15.5000 -48.7500 Du        
   1086 ****        10.0000 -15.5000 -48.5000 Du        
   1087 ****        10.0000 -15.5000 -48.2500 Du        
   1088 ****        10.0000 -15.2500 -51.0000 Du        
   1089 ****        10.0000 -15.2500 -50.7500 Du        
   1090 ****        10.0000 -15.2500 -50.5000 Du        
   1091 ****        10.0000 -15.2500 -50.2500 Du        
   1092 ****        10.0000 -15.2500 -50.0000 Du        
   1093 ****        10.0000 -15.2500 -49.7500 Du        
   1094 ****        10.0000 -15.2500 -49.5000 Du        
   1095 ****        10.0000 -15.2500 -49.2500 Du        
   1096 ****        10.0000 -15.2500 -49.0000 Du        
   1097 ****        10.0000 -15.2500 -48.7500 Du        
   1098 ****        10.0000 -15.2500 -48.5000 Du        
   1099 ****        10.0000 -15.2500 -48.2500 Du        
   1100 ****        10.0000 -15.2500 -48.0000 Du        
   1101 ****        10.0000 -15.0000 -50.5000 Du        
   1102 ****        10.0000 -15.0000 -50.2500 Du        
   1103 ****        10.0000 -15.0000 -50.0000 Du        
   1104 ****        10.0000 -15.0000 -49.7500 Du        
   1105 ****        10.0000 -15.0000 -49.5000 Du        
   1106 ****        10.0000 -15.0000 -49.2500 Du        
   1107 ****        10.0000 -15.0000 -49.0000 Du        
   1108 ****        10.0000 -15.0000 -48.7500 Du        
   1109 ****        10.0000 -15.0000 -48.5000 Du        
   1110 ****        10.0000 -15.0000 -48.2500 Du        
   1111 ****        10.0000 -15.0000 -48.0000 Du        
   1112 ****        10.0000 -15.0000 -47.7500 Du        
   1113 ****        10.0000 -15.0000 -47.5000 Du        
   1114 ****        10.0000 -14.7500 -50.2500 Du        
   1115 ****        10.0000 -14.7500 -50.0000 Du        
   1116 ****        10.0000 -14.7500 -49.7500 Du        
   1117 ****        10.0000 -14.7500 -49.5000 Du        
   1118 ****        10.0000 -14.7500 -49.2500 Du        
   1119 ****        10.0000 -14.7500 -49.0000 Du        
   1120 ****        10.0000 -14.7500 -48.7500 Du        
   1121 ****        10.0000 -14.7500 -48.5000 Du        
   1122 ****        10.0000 -14.7500 -48.2500 Du        
   1123 ****        10.0000 -14.7500 -48.0000 Du        
   1124 ****        10.0000 -14.7500 -47.7500 Du        
   1125 ****        10.0000 -14.7500 -47.5000 Du        
   1126 ****        10.0000 -14.5000 -50.0000 Du        
   1127 ****        10.0000 -14.5000 -49.7500 Du        
   1128 ****        10.0000 -14.5000 -49.5000 Du        
   1129 ****        10.0000 -14.5000 -49.2500 Du        
   1130 ****        10.0000 -14.5000 -49.0000 Du        
   1131 ****        10.0000 -14.5000 -48.7500 Du        
   1132 ****        10.0000 -14.5000 -48.5000 Du        
   1133 ****        10.0000 -14.5000 -48.2500 Du        
   1134 ****        10.0000 -14.5000 -48.0000 Du        
   1135 ****        10.0000 -14.5000 -47.7500 Du        
   1136 ****        10.0000 -14.5000 -47.5000 Du        
   1137 ****        10.0000 -14.5000 -47.2500 Du        
   1138 ****        10.0000 -14.2500 -49.7500 Du        
   1139 ****        10.0000 -14.2500 -49.5000 Du        
   1140 ****        10.0000 -14.2500 -49.2500 Du        
   1141 ****        10.0000 -14.2500 -49.0000 Du        
   1142 ****        10.0000 -14.2500 -48.7500 Du        
   1143 ****        10.0000 -14.2500 -48.5000 Du        
   1144 ****        10.0000 -14.2500 -48.2500 Du        
   1145 ****        10.0000 -14.2500 -48.0000 Du        
   1146 ****        10.0000 -14.2500 -47.7500 Du        
   1147 ****        10.0000 -14.2500 -47.5000 Du        
   1148 ****        10.0000 -14.0000 -49.5000 Du        
   1149 ****        10.0000 -14.0000 -49.2500 Du        
   1150 ****        10.0000 -14.0000 -49.0000 Du        
   1151 ****        10.0000 -14.0000 -48.7500 Du        
   1152 ****        10.0000 -14.0000 -48.5000 Du        
   1153 ****        10.0000 -14.0000 -48.2500 Du        
   1154 ****        10.0000 -14.0000 -48.0000 Du        
   1155 ****        10.0000 -14.0000 -47.7500 Du        
   1156 ****        10.0000 -13.7500 -49.2500 Du        
   1157 ****        10.0000 -13.7500 -49.0000 Du        
   1158 ****        10.0000 -13.7500 -48.7500 Du        
   1159 ****        10.0000 -13.7500 -48.5000 Du        
   1160 ****        10.0000 -13.7500 -48.2500 Du        
   1161 ****        10.0000 -13.7500 -48.0000 Du        
   1162 ****        10.0000 -13.5000 -49.0000 Du        
   1163 ****        10.0000 -13.5000 -48.7500 Du        
   1164 ****        10.0000 -13.5000 -48.5000 Du        
   1165 ****        10.0000 -13.5000 -48.2500 Du        
   1166 ****        10.0000 -13.2500 -48.7500 Du        
   1167 ****        10.0000 -13.2500 -48.5000 Du        
   1168 ****        10.2500 -17.5000 -51.0000 Du        
   1169 ****        10.2500 -17.2500 -51.2500 Du        
   1170 ****        10.2500 -17.2500 -51.0000 Du        
   1171 ****        10.2500 -17.2500 -50.7500 Du        
   1172 ****        10.2500 -17.2500 -50.5000 Du        
   1173 ****        10.2500 -17.0000 -51.5000 Du        
   1174 ****        10.2500 -17.0000 -51.2500 Du        
   1175 ****        10.2500 -17.0000 -51.0000 Du        
   1176 ****        10.2500 -17.0000 -50.7500 Du        
   1177 ****        10.2500 -17.0000 -50.5000 Du        
   1178 ****        10.2500 -16.7500 -51.5000 Du        
   1179 ****        10.2500 -16.7500 -51.2500 Du        
   1180 ****        10.2500 -16.7500 -51.0000 Du        
   1181 ****        10.2500 -16.7500 -50.7500 Du        
   1182 ****        10.2500 -16.7500 -50.5000 Du        
   1183 ****        10.2500 -16.7500 -50.2500 Du        
   1184 ****        10.2500 -16.5000 -51.5000 Du        
   1185 ****        10.2500 -16.5000 -51.2500 Du        
   1186 ****        10.2500 -16.5000 -51.0000 Du        
   1187 ****        10.2500 -16.5000 -50.7500 Du        
   1188 ****        10.2500 -16.5000 -50.5000 Du        
   1189 ****        10.2500 -16.5000 -50.2500 Du        
   1190 ****        10.2500 -16.5000 -50.0000 Du        
   1191 ****        10.2500 -16.5000 -49.7500 Du        
   1192 ****        10.2500 -16.2500 -52.5000 Du        
   1193 ****        10.2500 -16.2500 -52.0000 Du        
   1194 ****        10.2500 -16.2500 -51.7500 Du        
   1195 ****        10.2500 -16.2500 -51.5000 Du        
   1196 ****        10.2500 -16.2500 -51.2500 Du        
   1197 ****        10.2500 -16.2500 -51.0000 Du        
   1198 ****        10.2500 -16.2500 -50.7500 Du        
   1199 ****        10.2500 -16.2500 -50.5000 Du        
   1200 ****        10.2500 -16.2500 -50.2500 Du        
   1201 ****        10.2500 -16.2500 -50.0000 Du        
   1202 ****        10.2500 -16.2500 -49.7500 Du        
   1203 ****        10.2500 -16.0000 -52.2500 Du        
   1204 ****        10.2500 -16.0000 -52.0000 Du        
   1205 ****        10.2500 -16.0000 -51.7500 Du        
   1206 ****        10.2500 -16.0000 -51.5000 Du        
   1207 ****        10.2500 -16.0000 -51.2500 Du        
   1208 ****        10.2500 -16.0000 -51.0000 Du        
   1209 ****        10.2500 -16.0000 -50.7500 Du        
   1210 ****        10.2500 -16.0000 -50.5000 Du        
   1211 ****        10.2500 -16.0000 -50.2500 Du        
   1212 ****        10.2500 -16.0000 -50.0000 Du        
   1213 ****        10.2500 -16.0000 -49.7500 Du        
   1214 ****        10.2500 -16.0000 -49.5000 Du        
   1215 ****        10.2500 -16.0000 -49.2500 Du        
   1216 ****        10.2500 -15.7500 -51.7500 Du        
   1217 ****        10.2500 -15.7500 -51.5000 Du        
   1218 ****        10.2500 -15.7500 -51.2500 Du        
   1219 ****        10.2500 -15.7500 -51.0000 Du        
   1220 ****        10.2500 -15.7500 -50.7500 Du        
   1221 ****        10.2500 -15.7500 -50.5000 Du        
   1222 ****        10.2500 -15.7500 -50.2500 Du        
   1223 ****        10.2500 -15.7500 -50.0000 Du        
   1224 ****        10.2500 -15.7500 -49.7500 Du        
   1225 ****        10.2500 -15.7500 -49.5000 Du        
   1226 ****        10.2500 -15.7500 -49.2500 Du        
   1227 ****        10.2500 -15.7500 -49.0000 Du        
   1228 ****        10.2500 -15.7500 -48.7500 Du        
   1229 ****        10.2500 -15.5000 -51.5000 Du        
   1230 ****        10.2500 -15.5000 -51.2500 Du        
   1231 ****        10.2500 -15.5000 -51.0000 Du        
   1232 ****        10.2500 -15.5000 -50.7500 Du        
   1233 ****        10.2500 -15.5000 -50.5000 Du        
   1234 ****        10.2500 -15.5000 -50.2500 Du        
   1235 ****        10.2500 -15.5000 -50.0000 Du        
   1236 ****        10.2500 -15.5000 -49.7500 Du        
   1237 ****        10.2500 -15.5000 -49.5000 Du        
   1238 ****        10.2500 -15.5000 -49.2500 Du        
   1239 ****        10.2500 -15.5000 -49.0000 Du        
   1240 ****        10.2500 -15.5000 -48.7500 Du        
   1241 ****        10.2500 -15.5000 -48.5000 Du        
   1242 ****        10.2500 -15.5000 -48.2500 Du        
   1243 ****        10.2500 -15.2500 -50.7500 Du        
   1244 ****        10.2500 -15.2500 -50.5000 Du        
   1245 ****        10.2500 -15.2500 -50.2500 Du        
   1246 ****        10.2500 -15.2500 -50.0000 Du        
   1247 ****        10.2500 -15.2500 -49.7500 Du        
   1248 ****        10.2500 -15.2500 -49.5000 Du        
   1249 ****        10.2500 -15.2500 -49.2500 Du        
   1250 ****        10.2500 -15.2500 -49.0000 Du        
   1251 ****        10.2500 -15.2500 -48.7500 Du        
   1252 ****        10.2500 -15.2500 -48.5000 Du        
   1253 ****        10.2500 -15.2500 -48.2500 Du        
   1254 ****        10.2500 -15.2500 -48.0000 Du        
   1255 ****        10.2500 -15.2500 -47.7500 Du        
   1256 ****        10.2500 -15.0000 -50.5000 Du        
   1257 ****        10.2500 -15.0000 -50.2500 Du        
   1258 ****        10.2500 -15.0000 -50.0000 Du        
   1259 ****        10.2500 -15.0000 -49.7500 Du        
   1260 ****        10.2500 -15.0000 -49.5000 Du        
   1261 ****        10.2500 -15.0000 -49.2500 Du        
   1262 ****        10.2500 -15.0000 -49.0000 Du        
   1263 ****        10.2500 -15.0000 -48.7500 Du        
   1264 ****        10.2500 -15.0000 -48.5000 Du        
   1265 ****        10.2500 -15.0000 -48.2500 Du        
   1266 ****        10.2500 -15.0000 -48.0000 Du        
   1267 ****        10.2500 -15.0000 -47.7500 Du        
   1268 ****        10.2500 -15.0000 -47.5000 Du        
   1269 ****        10.2500 -14.7500 -50.2500 Du        
   1270 ****        10.2500 -14.7500 -50.0000 Du        
   1271 ****        10.2500 -14.7500 -49.7500 Du        
   1272 ****        10.2500 -14.7500 -49.5000 Du        
   1273 ****        10.2500 -14.7500 -49.2500 Du        
   1274 ****        10.2500 -14.7500 -49.0000 Du        
   1275 ****        10.2500 -14.7500 -48.7500 Du        
   1276 ****        10.2500 -14.7500 -48.5000 Du        
   1277 ****        10.2500 -14.7500 -48.2500 Du        
   1278 ****        10.2500 -14.7500 -48.0000 Du        
   1279 ****        10.2500 -14.7500 -47.7500 Du        
   1280 ****        10.2500 -14.7500 -47.5000 Du        
   1281 ****        10.2500 -14.7500 -47.2500 Du        
   1282 ****        10.2500 -14.7500 -47.0000 Du        
   1283 ****        10.2500 -14.5000 -50.0000 Du        
   1284 ****        10.2500 -14.5000 -49.7500 Du        
   1285 ****        10.2500 -14.5000 -49.5000 Du        
   1286 ****        10.2500 -14.5000 -49.2500 Du        
   1287 ****        10.2500 -14.5000 -49.0000 Du        
   1288 ****        10.2500 -14.5000 -48.7500 Du        
   1289 ****        10.2500 -14.5000 -48.5000 Du        
   1290 ****        10.2500 -14.5000 -48.2500 Du        
   1291 ****        10.2500 -14.5000 -48.0000 Du        
   1292 ****        10.2500 -14.5000 -47.7500 Du        
   1293 ****        10.2500 -14.5000 -47.5000 Du        
   1294 ****        10.2500 -14.5000 -47.2500 Du        
   1295 ****        10.2500 -14.5000 -47.0000 Du        
   1296 ****        10.2500 -14.2500 -49.7500 Du        
   1297 ****        10.2500 -14.2500 -49.5000 Du        
   1298 ****        10.2500 -14.2500 -49.2500 Du        
   1299 ****        10.2500 -14.2500 -49.0000 Du        
   1300 ****        10.2500 -14.2500 -48.7500 Du        
   1301 ****        10.2500 -14.2500 -48.5000 Du        
   1302 ****        10.2500 -14.2500 -48.2500 Du        
   1303 ****        10.2500 -14.2500 -48.0000 Du        
   1304 ****        10.2500 -14.2500 -47.7500 Du        
   1305 ****        10.2500 -14.2500 -47.5000 Du        
   1306 ****        10.2500 -14.2500 -47.2500 Du        
   1307 ****        10.2500 -14.2500 -47.0000 Du        
   1308 ****        10.2500 -14.0000 -49.5000 Du        
   1309 ****        10.2500 -14.0000 -49.2500 Du        
   1310 ****        10.2500 -14.0000 -49.0000 Du        
   1311 ****        10.2500 -14.0000 -48.7500 Du        
   1312 ****        10.2500 -14.0000 -48.5000 Du        
   1313 ****        10.2500 -14.0000 -48.2500 Du        
   1314 ****        10.2500 -14.0000 -48.0000 Du        
   1315 ****        10.2500 -14.0000 -47.7500 Du        
   1316 ****        10.2500 -14.0000 -47.5000 Du        
   1317 ****        10.2500 -14.0000 -47.2500 Du        
   1318 ****        10.2500 -13.7500 -49.2500 Du        
   1319 ****        10.2500 -13.7500 -49.0000 Du        
   1320 ****        10.2500 -13.7500 -48.7500 Du        
   1321 ****        10.2500 -13.7500 -48.5000 Du        
   1322 ****        10.2500 -13.7500 -48.2500 Du        
   1323 ****        10.2500 -13.7500 -48.0000 Du        
   1324 ****        10.2500 -13.7500 -47.7500 Du        
   1325 ****        10.2500 -13.5000 -49.0000 Du        
   1326 ****        10.2500 -13.5000 -48.7500 Du        
   1327 ****        10.2500 -13.5000 -48.5000 Du        
   1328 ****        10.2500 -13.5000 -48.2500 Du        
   1329 ****        10.2500 -13.5000 -48.0000 Du        
   1330 ****        10.2500 -13.2500 -48.5000 Du        
   1331 ****        10.2500 -13.2500 -48.2500 Du        
   1332 ****        10.5000 -16.0000 -49.7500 Du        
   1333 ****        10.5000 -15.7500 -50.5000 Du        
   1334 ****        10.5000 -15.7500 -50.2500 Du        
   1335 ****        10.5000 -15.7500 -50.0000 Du        
   1336 ****        10.5000 -15.7500 -49.7500 Du        
   1337 ****        10.5000 -15.7500 -49.5000 Du        
   1338 ****        10.5000 -15.7500 -49.2500 Du        
   1339 ****        10.5000 -15.5000 -50.2500 Du        
   1340 ****        10.5000 -15.5000 -50.0000 Du        
   1341 ****        10.5000 -15.5000 -49.7500 Du        
   1342 ****        10.5000 -15.5000 -49.5000 Du        
   1343 ****        10.5000 -15.5000 -49.2500 Du        
   1344 ****        10.5000 -15.5000 -49.0000 Du        
   1345 ****        10.5000 -15.5000 -48.7500 Du        
   1346 ****        10.5000 -15.5000 -48.5000 Du        
   1347 ****        10.5000 -15.2500 -50.2500 Du        
   1348 ****        10.5000 -15.2500 -50.0000 Du        
   1349 ****        10.5000 -15.2500 -49.7500 Du        
   1350 ****        10.5000 -15.2500 -49.5000 Du        
   1351 ****        10.5000 -15.2500 -49.2500 Du        
   1352 ****        10.5000 -15.2500 -49.0000 Du        
   1353 ****        10.5000 -15.2500 -48.7500 Du        
   1354 ****        10.5000 -15.2500 -48.5000 Du        
   1355 ****        10.5000 -15.2500 -48.2500 Du        
   1356 ****        10.5000 -15.2500 -48.0000 Du        
   1357 ****        10.5000 -15.0000 -50.2500 Du        
   1358 ****        10.5000 -15.0000 -50.0000 Du        
   1359 ****        10.5000 -15.0000 -49.7500 Du        
   1360 ****        10.5000 -15.0000 -49.5000 Du        
   1361 ****        10.5000 -15.0000 -49.2500 Du        
   1362 ****        10.5000 -15.0000 -49.0000 Du        
   1363 ****        10.5000 -15.0000 -48.7500 Du        
   1364 ****        10.5000 -15.0000 -48.5000 Du        
   1365 ****        10.5000 -15.0000 -48.2500 Du        
   1366 ****        10.5000 -15.0000 -48.0000 Du        
   1367 ****        10.5000 -15.0000 -47.7500 Du        
   1368 ****        10.5000 -15.0000 -47.5000 Du        
   1369 ****        10.5000 -14.7500 -50.0000 Du        
   1370 ****        10.5000 -14.7500 -49.7500 Du        
   1371 ****        10.5000 -14.7500 -49.5000 Du        
   1372 ****        10.5000 -14.7500 -49.2500 Du        
   1373 ****        10.5000 -14.7500 -49.0000 Du        
   1374 ****        10.5000 -14.7500 -48.7500 Du        
   1375 ****        10.5000 -14.7500 -48.5000 Du        
   1376 ****        10.5000 -14.7500 -48.2500 Du        
   1377 ****        10.5000 -14.7500 -48.0000 Du        
   1378 ****        10.5000 -14.7500 -47.7500 Du        
   1379 ****        10.5000 -14.7500 -47.5000 Du        
   1380 ****        10.5000 -14.7500 -47.2500 Du        
   1381 ****        10.5000 -14.7500 -47.0000 Du        
   1382 ****        10.5000 -14.5000 -50.0000 Du        
   1383 ****        10.5000 -14.5000 -49.7500 Du        
   1384 ****        10.5000 -14.5000 -49.5000 Du        
   1385 ****        10.5000 -14.5000 -49.2500 Du        
   1386 ****        10.5000 -14.5000 -49.0000 Du        
   1387 ****        10.5000 -14.5000 -48.7500 Du        
   1388 ****        10.5000 -14.5000 -48.5000 Du        
   1389 ****        10.5000 -14.5000 -48.2500 Du        
   1390 ****        10.5000 -14.5000 -48.0000 Du        
   1391 ****        10.5000 -14.5000 -47.7500 Du        
   1392 ****        10.5000 -14.5000 -47.5000 Du        
   1393 ****        10.5000 -14.5000 -47.2500 Du        
   1394 ****        10.5000 -14.5000 -47.0000 Du        
   1395 ****        10.5000 -14.5000 -46.7500 Du        
   1396 ****        10.5000 -14.2500 -49.7500 Du        
   1397 ****        10.5000 -14.2500 -49.5000 Du        
   1398 ****        10.5000 -14.2500 -49.2500 Du        
   1399 ****        10.5000 -14.2500 -49.0000 Du        
   1400 ****        10.5000 -14.2500 -48.7500 Du        
   1401 ****        10.5000 -14.2500 -48.5000 Du        
   1402 ****        10.5000 -14.2500 -48.2500 Du        
   1403 ****        10.5000 -14.2500 -48.0000 Du        
   1404 ****        10.5000 -14.2500 -47.7500 Du        
   1405 ****        10.5000 -14.2500 -47.5000 Du        
   1406 ****        10.5000 -14.2500 -47.2500 Du        
   1407 ****        10.5000 -14.2500 -47.0000 Du        
   1408 ****        10.5000 -14.2500 -46.7500 Du        
   1409 ****        10.5000 -14.0000 -49.5000 Du        
   1410 ****        10.5000 -14.0000 -49.2500 Du        
   1411 ****        10.5000 -14.0000 -49.0000 Du        
   1412 ****        10.5000 -14.0000 -48.7500 Du        
   1413 ****        10.5000 -14.0000 -48.5000 Du        
   1414 ****        10.5000 -14.0000 -48.2500 Du        
   1415 ****        10.5000 -14.0000 -48.0000 Du        
   1416 ****        10.5000 -14.0000 -47.7500 Du        
   1417 ****        10.5000 -14.0000 -47.5000 Du        
   1418 ****        10.5000 -14.0000 -47.2500 Du        
   1419 ****        10.5000 -14.0000 -47.0000 Du        
   1420 ****        10.5000 -14.0000 -46.7500 Du        
   1421 ****        10.5000 -13.7500 -49.2500 Du        
   1422 ****        10.5000 -13.7500 -49.0000 Du        
   1423 ****        10.5000 -13.7500 -48.7500 Du        
   1424 ****        10.5000 -13.7500 -48.5000 Du        
   1425 ****        10.5000 -13.7500 -48.2500 Du        
   1426 ****        10.5000 -13.7500 -48.0000 Du        
   1427 ****        10.5000 -13.7500 -47.7500 Du        
   1428 ****        10.5000 -13.7500 -47.5000 Du        
   1429 ****        10.5000 -13.7500 -47.2500 Du        
   1430 ****        10.5000 -13.5000 -49.0000 Du        
   1431 ****        10.5000 -13.5000 -48.7500 Du        
   1432 ****        10.5000 -13.5000 -48.5000 Du        
   1433 ****        10.5000 -13.5000 -48.2500 Du        
   1434 ****        10.5000 -13.5000 -48.0000 Du        
   1435 ****        10.5000 -13.5000 -47.7500 Du        
   1436 ****        10.7500 -15.7500 -50.2500 Du        
   1437 ****        10.7500 -15.7500 -50.0000 Du        
   1438 ****        10.7500 -15.7500 -49.7500 Du        
   1439 ****        10.7500 -15.5000 -50.2500 Du        
   1440 ****        10.7500 -15.5000 -50.0000 Du        
   1441 ****        10.7500 -15.5000 -49.7500 Du        
   1442 ****        10.7500 -15.5000 -49.5000 Du        
   1443 ****        10.7500 -15.5000 -49.2500 Du        
   1444 ****        10.7500 -15.5000 -49.0000 Du        
   1445 ****        10.7500 -15.5000 -48.7500 Du        
   1446 ****        10.7500 -15.2500 -50.2500 Du        
   1447 ****        10.7500 -15.2500 -50.0000 Du        
   1448 ****        10.7500 -15.2500 -49.7500 Du        
   1449 ****        10.7500 -15.2500 -49.5000 Du        
   1450 ****        10.7500 -15.2500 -49.2500 Du        
   1451 ****        10.7500 -15.2500 -49.0000 Du        
   1452 ****        10.7500 -15.2500 -48.7500 Du        
   1453 ****        10.7500 -15.2500 -48.5000 Du        
   1454 ****        10.7500 -15.2500 -48.2500 Du        
   1455 ****        10.7500 -15.2500 -48.0000 Du        
   1456 ****        10.7500 -15.0000 -50.2500 Du        
   1457 ****        10.7500 -15.0000 -50.0000 Du        
   1458 ****        10.7500 -15.0000 -49.7500 Du        
   1459 ****        10.7500 -15.0000 -49.5000 Du        
   1460 ****        10.7500 -15.0000 -49.2500 Du        
   1461 ****        10.7500 -15.0000 -49.0000 Du        
   1462 ****        10.7500 -15.0000 -48.7500 Du        
   1463 ****        10.7500 -15.0000 -48.5000 Du        
   1464 ****        10.7500 -15.0000 -48.2500 Du        
   1465 ****        10.7500 -15.0000 -48.0000 Du        
   1466 ****        10.7500 -15.0000 -47.7500 Du        
   1467 ****        10.7500 -15.0000 -47.5000 Du        
   1468 ****        10.7500 -14.7500 -50.0000 Du        
   1469 ****        10.7500 -14.7500 -49.7500 Du        
   1470 ****        10.7500 -14.7500 -49.5000 Du        
   1471 ****        10.7500 -14.7500 -49.2500 Du        
   1472 ****        10.7500 -14.7500 -49.0000 Du        
   1473 ****        10.7500 -14.7500 -48.7500 Du        
   1474 ****        10.7500 -14.7500 -48.5000 Du        
   1475 ****        10.7500 -14.7500 -48.2500 Du        
   1476 ****        10.7500 -14.7500 -48.0000 Du        
   1477 ****        10.7500 -14.7500 -47.7500 Du        
   1478 ****        10.7500 -14.7500 -47.5000 Du        
   1479 ****        10.7500 -14.7500 -47.2500 Du        
   1480 ****        10.7500 -14.7500 -47.0000 Du        
   1481 ****        10.7500 -14.5000 -49.7500 Du        
   1482 ****        10.7500 -14.5000 -49.5000 Du        
   1483 ****        10.7500 -14.5000 -49.2500 Du        
   1484 ****        10.7500 -14.5000 -49.0000 Du        
   1485 ****        10.7500 -14.5000 -48.7500 Du        
   1486 ****        10.7500 -14.5000 -48.5000 Du        
   1487 ****        10.7500 -14.5000 -48.2500 Du        
   1488 ****        10.7500 -14.5000 -48.0000 Du        
   1489 ****        10.7500 -14.5000 -47.7500 Du        
   1490 ****        10.7500 -14.5000 -47.5000 Du        
   1491 ****        10.7500 -14.5000 -47.2500 Du        
   1492 ****        10.7500 -14.5000 -47.0000 Du        
   1493 ****        10.7500 -14.5000 -46.7500 Du        
   1494 ****        10.7500 -14.5000 -46.5000 Du        
   1495 ****        10.7500 -14.2500 -49.7500 Du        
   1496 ****        10.7500 -14.2500 -49.5000 Du        
   1497 ****        10.7500 -14.2500 -49.2500 Du        
   1498 ****        10.7500 -14.2500 -49.0000 Du        
   1499 ****        10.7500 -14.2500 -48.7500 Du        
   1500 ****        10.7500 -14.2500 -48.5000 Du        
   1501 ****        10.7500 -14.2500 -48.2500 Du        
   1502 ****        10.7500 -14.2500 -48.0000 Du        
   1503 ****        10.7500 -14.2500 -47.7500 Du        
   1504 ****        10.7500 -14.2500 -47.5000 Du        
   1505 ****        10.7500 -14.2500 -47.2500 Du        
   1506 ****        10.7500 -14.2500 -47.0000 Du        
   1507 ****        10.7500 -14.2500 -46.7500 Du        
   1508 ****        10.7500 -14.2500 -46.5000 Du        
   1509 ****        10.7500 -14.2500 -46.2500 Du        
   1510 ****        10.7500 -14.0000 -49.5000 Du        
   1511 ****        10.7500 -14.0000 -49.2500 Du        
   1512 ****        10.7500 -14.0000 -49.0000 Du        
   1513 ****        10.7500 -14.0000 -48.7500 Du        
   1514 ****        10.7500 -14.0000 -48.5000 Du        
   1515 ****        10.7500 -14.0000 -48.2500 Du        
   1516 ****        10.7500 -14.0000 -48.0000 Du        
   1517 ****        10.7500 -14.0000 -47.7500 Du        
   1518 ****        10.7500 -14.0000 -47.5000 Du        
   1519 ****        10.7500 -14.0000 -47.2500 Du        
   1520 ****        10.7500 -14.0000 -47.0000 Du        
   1521 ****        10.7500 -14.0000 -46.7500 Du        
   1522 ****        10.7500 -14.0000 -46.5000 Du        
   1523 ****        10.7500 -14.0000 -46.2500 Du        
   1524 ****        10.7500 -13.7500 -49.2500 Du        
   1525 ****        10.7500 -13.7500 -49.0000 Du        
   1526 ****        10.7500 -13.7500 -48.7500 Du        
   1527 ****        10.7500 -13.7500 -48.5000 Du        
   1528 ****        10.7500 -13.7500 -48.2500 Du        
   1529 ****        10.7500 -13.7500 -48.0000 Du        
   1530 ****        10.7500 -13.7500 -47.7500 Du        
   1531 ****        10.7500 -13.7500 -47.5000 Du        
   1532 ****        10.7500 -13.7500 -47.2500 Du        
   1533 ****        10.7500 -13.7500 -47.0000 Du        
   1534 ****        10.7500 -13.7500 -46.7500 Du        
   1535 ****        10.7500 -13.5000 -48.7500 Du        
   1536 ****        10.7500 -13.5000 -48.5000 Du        
   1537 ****        10.7500 -13.5000 -48.2500 Du        
   1538 ****        10.7500 -13.5000 -48.0000 Du        
   1539 ****        10.7500 -13.5000 -47.7500 Du        
   1540 ****        10.7500 -13.2500 -40.2500 Du        
   1541 ****        10.7500 -13.0000 -40.2500 Du        
   1542 ****        10.7500 -12.7500 -40.2500 Du        
   1543 ****        11.0000 -15.5000 -50.0000 Du        
   1544 ****        11.0000 -15.5000 -49.7500 Du        
   1545 ****        11.0000 -15.5000 -49.5000 Du        
   1546 ****        11.0000 -15.5000 -49.2500 Du        
   1547 ****        11.0000 -15.5000 -49.0000 Du        
   1548 ****        11.0000 -15.2500 -50.0000 Du        
   1549 ****        11.0000 -15.2500 -49.7500 Du        
   1550 ****        11.0000 -15.2500 -49.5000 Du        
   1551 ****        11.0000 -15.2500 -49.2500 Du        
   1552 ****        11.0000 -15.2500 -49.0000 Du        
   1553 ****        11.0000 -15.2500 -48.7500 Du        
   1554 ****        11.0000 -15.2500 -48.5000 Du        
   1555 ****        11.0000 -15.2500 -48.2500 Du        
   1556 ****        11.0000 -15.2500 -48.0000 Du        
   1557 ****        11.0000 -15.0000 -50.0000 Du        
   1558 ****        11.0000 -15.0000 -49.7500 Du        
   1559 ****        11.0000 -15.0000 -49.5000 Du        
   1560 ****        11.0000 -15.0000 -49.2500 Du        
   1561 ****        11.0000 -15.0000 -49.0000 Du        
   1562 ****        11.0000 -15.0000 -48.7500 Du        
   1563 ****        11.0000 -15.0000 -48.5000 Du        
   1564 ****        11.0000 -15.0000 -48.2500 Du        
   1565 ****        11.0000 -15.0000 -48.0000 Du        
   1566 ****        11.0000 -15.0000 -47.7500 Du        
   1567 ****        11.0000 -15.0000 -47.5000 Du        
   1568 ****        11.0000 -14.7500 -50.0000 Du        
   1569 ****        11.0000 -14.7500 -49.7500 Du        
   1570 ****        11.0000 -14.7500 -49.5000 Du        
   1571 ****        11.0000 -14.7500 -49.2500 Du        
   1572 ****        11.0000 -14.7500 -49.0000 Du        
   1573 ****        11.0000 -14.7500 -48.7500 Du        
   1574 ****        11.0000 -14.7500 -48.5000 Du        
   1575 ****        11.0000 -14.7500 -48.2500 Du        
   1576 ****        11.0000 -14.7500 -48.0000 Du        
   1577 ****        11.0000 -14.7500 -47.7500 Du        
   1578 ****        11.0000 -14.7500 -47.5000 Du        
   1579 ****        11.0000 -14.7500 -47.2500 Du        
   1580 ****        11.0000 -14.7500 -47.0000 Du        
   1581 ****        11.0000 -14.5000 -49.7500 Du        
   1582 ****        11.0000 -14.5000 -49.5000 Du        
   1583 ****        11.0000 -14.5000 -49.2500 Du        
   1584 ****        11.0000 -14.5000 -49.0000 Du        
   1585 ****        11.0000 -14.5000 -48.7500 Du        
   1586 ****        11.0000 -14.5000 -48.5000 Du        
   1587 ****        11.0000 -14.5000 -48.2500 Du        
   1588 ****        11.0000 -14.5000 -48.0000 Du        
   1589 ****        11.0000 -14.5000 -47.7500 Du        
   1590 ****        11.0000 -14.5000 -47.5000 Du        
   1591 ****        11.0000 -14.5000 -47.2500 Du        
   1592 ****        11.0000 -14.5000 -47.0000 Du        
   1593 ****        11.0000 -14.5000 -46.7500 Du        
   1594 ****        11.0000 -14.5000 -46.5000 Du        
   1595 ****        11.0000 -14.2500 -49.7500 Du        
   1596 ****        11.0000 -14.2500 -49.5000 Du        
   1597 ****        11.0000 -14.2500 -49.2500 Du        
   1598 ****        11.0000 -14.2500 -49.0000 Du        
   1599 ****        11.0000 -14.2500 -48.7500 Du        
   1600 ****        11.0000 -14.2500 -48.5000 Du        
   1601 ****        11.0000 -14.2500 -48.2500 Du        
   1602 ****        11.0000 -14.2500 -48.0000 Du        
   1603 ****        11.0000 -14.2500 -47.7500 Du        
   1604 ****        11.0000 -14.2500 -47.5000 Du        
   1605 ****        11.0000 -14.2500 -47.2500 Du        
   1606 ****        11.0000 -14.2500 -47.0000 Du        
   1607 ****        11.0000 -14.2500 -46.7500 Du        
   1608 ****        11.0000 -14.2500 -46.5000 Du        
   1609 ****        11.0000 -14.2500 -46.2500 Du        
   1610 ****        11.0000 -14.2500 -46.0000 Du        
   1611 ****        11.0000 -14.0000 -49.5000 Du        
   1612 ****        11.0000 -14.0000 -49.2500 Du        
   1613 ****        11.0000 -14.0000 -49.0000 Du        
   1614 ****        11.0000 -14.0000 -48.7500 Du        
   1615 ****        11.0000 -14.0000 -48.5000 Du        
   1616 ****        11.0000 -14.0000 -48.2500 Du        
   1617 ****        11.0000 -14.0000 -48.0000 Du        
   1618 ****        11.0000 -14.0000 -47.7500 Du        
   1619 ****        11.0000 -14.0000 -47.5000 Du        
   1620 ****        11.0000 -14.0000 -47.2500 Du        
   1621 ****        11.0000 -14.0000 -47.0000 Du        
   1622 ****        11.0000 -14.0000 -46.7500 Du        
   1623 ****        11.0000 -14.0000 -46.5000 Du        
   1624 ****        11.0000 -14.0000 -46.2500 Du        
   1625 ****        11.0000 -14.0000 -46.0000 Du        
   1626 ****        11.0000 -14.0000 -45.7500 Du        
   1627 ****        11.0000 -14.0000 -45.5000 Du        
   1628 ****        11.0000 -13.7500 -49.2500 Du        
   1629 ****        11.0000 -13.7500 -49.0000 Du        
   1630 ****        11.0000 -13.7500 -48.7500 Du        
   1631 ****        11.0000 -13.7500 -48.5000 Du        
   1632 ****        11.0000 -13.7500 -48.2500 Du        
   1633 ****        11.0000 -13.7500 -48.0000 Du        
   1634 ****        11.0000 -13.7500 -47.7500 Du        
   1635 ****        11.0000 -13.7500 -47.5000 Du        
   1636 ****        11.0000 -13.7500 -47.2500 Du        
   1637 ****        11.0000 -13.7500 -47.0000 Du        
   1638 ****        11.0000 -13.7500 -46.7500 Du        
   1639 ****        11.0000 -13.7500 -46.5000 Du        
   1640 ****        11.0000 -13.7500 -46.2500 Du        
   1641 ****        11.0000 -13.7500 -46.0000 Du        
   1642 ****        11.0000 -13.7500 -45.7500 Du        
   1643 ****        11.0000 -13.7500 -45.5000 Du        
   1644 ****        11.0000 -13.7500 -45.2500 Du        
   1645 ****        11.0000 -13.7500 -45.0000 Du        
   1646 ****        11.0000 -13.5000 -48.7500 Du        
   1647 ****        11.0000 -13.5000 -48.5000 Du        
   1648 ****        11.0000 -13.5000 -48.2500 Du        
   1649 ****        11.0000 -13.5000 -48.0000 Du        
   1650 ****        11.2500 -15.5000 -50.0000 Du        
   1651 ****        11.2500 -15.5000 -49.7500 Du        
   1652 ****        11.2500 -15.5000 -49.5000 Du        
   1653 ****        11.2500 -15.5000 -49.2500 Du        
   1654 ****        11.2500 -15.2500 -50.0000 Du        
   1655 ****        11.2500 -15.2500 -49.7500 Du        
   1656 ****        11.2500 -15.2500 -49.5000 Du        
   1657 ****        11.2500 -15.2500 -49.2500 Du        
   1658 ****        11.2500 -15.2500 -49.0000 Du        
   1659 ****        11.2500 -15.2500 -48.7500 Du        
   1660 ****        11.2500 -15.2500 -48.5000 Du        
   1661 ****        11.2500 -15.0000 -50.0000 Du        
   1662 ****        11.2500 -15.0000 -49.7500 Du        
   1663 ****        11.2500 -15.0000 -49.5000 Du        
   1664 ****        11.2500 -15.0000 -49.2500 Du        
   1665 ****        11.2500 -15.0000 -49.0000 Du        
   1666 ****        11.2500 -15.0000 -48.7500 Du        
   1667 ****        11.2500 -15.0000 -48.5000 Du        
   1668 ****        11.2500 -15.0000 -48.2500 Du        
   1669 ****        11.2500 -15.0000 -48.0000 Du        
   1670 ****        11.2500 -15.0000 -47.7500 Du        
   1671 ****        11.2500 -15.0000 -47.5000 Du        
   1672 ****        11.2500 -14.7500 -49.7500 Du        
   1673 ****        11.2500 -14.7500 -49.5000 Du        
   1674 ****        11.2500 -14.7500 -49.2500 Du        
   1675 ****        11.2500 -14.7500 -49.0000 Du        
   1676 ****        11.2500 -14.7500 -48.7500 Du        
   1677 ****        11.2500 -14.7500 -48.5000 Du        
   1678 ****        11.2500 -14.7500 -48.2500 Du        
   1679 ****        11.2500 -14.7500 -48.0000 Du        
   1680 ****        11.2500 -14.7500 -47.7500 Du        
   1681 ****        11.2500 -14.7500 -47.5000 Du        
   1682 ****        11.2500 -14.7500 -47.2500 Du        
   1683 ****        11.2500 -14.7500 -47.0000 Du        
   1684 ****        11.2500 -14.5000 -49.7500 Du        
   1685 ****        11.2500 -14.5000 -49.5000 Du        
   1686 ****        11.2500 -14.5000 -49.2500 Du        
   1687 ****        11.2500 -14.5000 -49.0000 Du        
   1688 ****        11.2500 -14.5000 -48.7500 Du        
   1689 ****        11.2500 -14.5000 -48.5000 Du        
   1690 ****        11.2500 -14.5000 -48.2500 Du        
   1691 ****        11.2500 -14.5000 -48.0000 Du        
   1692 ****        11.2500 -14.5000 -47.7500 Du        
   1693 ****        11.2500 -14.5000 -47.5000 Du        
   1694 ****        11.2500 -14.5000 -47.2500 Du        
   1695 ****        11.2500 -14.5000 -47.0000 Du        
   1696 ****        11.2500 -14.5000 -46.7500 Du        
   1697 ****        11.2500 -14.5000 -46.5000 Du        
   1698 ****        11.2500 -14.2500 -49.5000 Du        
   1699 ****        11.2500 -14.2500 -49.2500 Du        
   1700 ****        11.2500 -14.2500 -49.0000 Du        
   1701 ****        11.2500 -14.2500 -48.7500 Du        
   1702 ****        11.2500 -14.2500 -48.5000 Du        
   1703 ****        11.2500 -14.2500 -48.2500 Du        
   1704 ****        11.2500 -14.2500 -48.0000 Du        
   1705 ****        11.2500 -14.2500 -47.7500 Du        
   1706 ****        11.2500 -14.2500 -47.5000 Du        
   1707 ****        11.2500 -14.2500 -47.2500 Du        
   1708 ****        11.2500 -14.2500 -47.0000 Du        
   1709 ****        11.2500 -14.2500 -46.7500 Du        
   1710 ****        11.2500 -14.2500 -46.5000 Du        
   1711 ****        11.2500 -14.2500 -46.2500 Du        
   1712 ****        11.2500 -14.2500 -46.0000 Du        
   1713 ****        11.2500 -14.0000 -49.5000 Du        
   1714 ****        11.2500 -14.0000 -49.2500 Du        
   1715 ****        11.2500 -14.0000 -49.0000 Du        
   1716 ****        11.2500 -14.0000 -48.7500 Du        
   1717 ****        11.2500 -14.0000 -48.5000 Du        
   1718 ****        11.2500 -14.0000 -48.2500 Du        
   1719 ****        11.2500 -14.0000 -48.0000 Du        
   1720 ****        11.2500 -14.0000 -47.7500 Du        
   1721 ****        11.2500 -14.0000 -47.5000 Du        
   1722 ****        11.2500 -14.0000 -47.2500 Du        
   1723 ****        11.2500 -14.0000 -47.0000 Du        
   1724 ****        11.2500 -14.0000 -46.7500 Du        
   1725 ****        11.2500 -14.0000 -46.5000 Du        
   1726 ****        11.2500 -14.0000 -46.2500 Du        
   1727 ****        11.2500 -14.0000 -46.0000 Du        
   1728 ****        11.2500 -14.0000 -45.7500 Du        
   1729 ****        11.2500 -14.0000 -45.5000 Du        
   1730 ****        11.2500 -14.0000 -45.2500 Du        
   1731 ****        11.2500 -14.0000 -45.0000 Du        
   1732 ****        11.2500 -14.0000 -44.7500 Du        
   1733 ****        11.2500 -13.7500 -49.2500 Du        
   1734 ****        11.2500 -13.7500 -49.0000 Du        
   1735 ****        11.2500 -13.7500 -48.7500 Du        
   1736 ****        11.2500 -13.7500 -48.5000 Du        
   1737 ****        11.2500 -13.7500 -48.2500 Du        
   1738 ****        11.2500 -13.7500 -48.0000 Du        
   1739 ****        11.2500 -13.7500 -47.7500 Du        
   1740 ****        11.2500 -13.7500 -47.5000 Du        
   1741 ****        11.2500 -13.7500 -47.2500 Du        
   1742 ****        11.2500 -13.7500 -47.0000 Du        
   1743 ****        11.2500 -13.7500 -46.7500 Du        
   1744 ****        11.2500 -13.7500 -46.5000 Du        
   1745 ****        11.2500 -13.7500 -46.2500 Du        
   1746 ****        11.2500 -13.7500 -46.0000 Du        
   1747 ****        11.2500 -13.7500 -45.7500 Du        
   1748 ****        11.2500 -13.7500 -45.5000 Du        
   1749 ****        11.2500 -13.7500 -45.2500 Du        
   1750 ****        11.2500 -13.7500 -45.0000 Du        
   1751 ****        11.2500 -13.7500 -44.7500 Du        
   1752 ****        11.2500 -13.7500 -44.5000 Du        
   1753 ****        11.2500 -13.7500 -44.2500 Du        
   1754 ****        11.2500 -13.7500 -44.0000 Du        
   1755 ****        11.2500 -13.7500 -43.7500 Du        
   1756 ****        11.2500 -13.5000 -48.5000 Du        
   1757 ****        11.2500 -13.5000 -48.2500 Du        
   1758 ****        11.2500 -13.5000 -45.5000 Du        
   1759 ****        11.2500 -13.5000 -45.2500 Du        
   1760 ****        11.2500 -13.5000 -45.0000 Du        
   1761 ****        11.2500 -13.5000 -44.7500 Du        
   1762 ****        11.2500 -13.5000 -44.5000 Du        
   1763 ****        11.2500 -13.5000 -44.2500 Du        
   1764 ****        11.2500 -13.5000 -44.0000 Du        
   1765 ****        11.2500 -13.5000 -43.7500 Du        
   1766 ****        11.2500 -13.2500 -45.2500 Du        
   1767 ****        11.2500 -13.2500 -45.0000 Du        
   1768 ****        11.2500 -13.2500 -44.7500 Du        
   1769 ****        11.2500 -13.2500 -44.5000 Du        
   1770 ****        11.2500 -13.2500 -44.2500 Du        
   1771 ****        11.2500 -13.2500 -44.0000 Du        
   1772 ****        11.2500 -13.2500 -43.7500 Du        
   1773 ****        11.2500 -13.0000 -44.7500 Du        
   1774 ****        11.2500 -13.0000 -44.5000 Du        
   1775 ****        11.2500 -13.0000 -44.2500 Du        
   1776 ****        11.2500 -13.0000 -44.0000 Du        
   1777 ****        11.2500 -13.0000 -43.7500 Du        
   1778 ****        11.2500 -12.7500 -44.5000 Du        
   1779 ****        11.2500 -12.7500 -44.2500 Du        
   1780 ****        11.2500 -12.7500 -44.0000 Du        
   1781 ****        11.2500 -12.7500 -43.7500 Du        
   1782 ****        11.2500 -12.5000 -44.2500 Du        
   1783 ****        11.2500 -12.5000 -44.0000 Du        
   1784 ****        11.2500 -12.5000 -43.7500 Du        
   1785 ****        11.5000 -15.0000 -49.2500 Du        
   1786 ****        11.5000 -15.0000 -49.0000 Du        
   1787 ****        11.5000 -15.0000 -48.7500 Du        
   1788 ****        11.5000 -15.0000 -48.5000 Du        
   1789 ****        11.5000 -15.0000 -48.2500 Du        
   1790 ****        11.5000 -15.0000 -48.0000 Du        
   1791 ****        11.5000 -14.7500 -49.2500 Du        
   1792 ****        11.5000 -14.7500 -49.0000 Du        
   1793 ****        11.5000 -14.7500 -48.7500 Du        
   1794 ****        11.5000 -14.7500 -48.5000 Du        
   1795 ****        11.5000 -14.7500 -48.2500 Du        
   1796 ****        11.5000 -14.7500 -48.0000 Du        
   1797 ****        11.5000 -14.7500 -47.7500 Du        
   1798 ****        11.5000 -14.7500 -47.5000 Du        
   1799 ****        11.5000 -14.7500 -47.2500 Du        
   1800 ****        11.5000 -14.5000 -49.5000 Du        
   1801 ****        11.5000 -14.5000 -49.2500 Du        
   1802 ****        11.5000 -14.5000 -49.0000 Du        
   1803 ****        11.5000 -14.5000 -48.7500 Du        
   1804 ****        11.5000 -14.5000 -48.5000 Du        
   1805 ****        11.5000 -14.5000 -48.2500 Du        
   1806 ****        11.5000 -14.5000 -48.0000 Du        
   1807 ****        11.5000 -14.5000 -47.7500 Du        
   1808 ****        11.5000 -14.5000 -47.5000 Du        
   1809 ****        11.5000 -14.5000 -47.2500 Du        
   1810 ****        11.5000 -14.5000 -47.0000 Du        
   1811 ****        11.5000 -14.5000 -46.7500 Du        
   1812 ****        11.5000 -14.2500 -49.5000 Du        
   1813 ****        11.5000 -14.2500 -49.2500 Du        
   1814 ****        11.5000 -14.2500 -49.0000 Du        
   1815 ****        11.5000 -14.2500 -48.7500 Du        
   1816 ****        11.5000 -14.2500 -48.5000 Du        
   1817 ****        11.5000 -14.2500 -48.2500 Du        
   1818 ****        11.5000 -14.2500 -48.0000 Du        
   1819 ****        11.5000 -14.2500 -47.7500 Du        
   1820 ****        11.5000 -14.2500 -47.5000 Du        
   1821 ****        11.5000 -14.2500 -47.2500 Du        
   1822 ****        11.5000 -14.2500 -47.0000 Du        
   1823 ****        11.5000 -14.2500 -46.7500 Du        
   1824 ****        11.5000 -14.2500 -46.5000 Du        
   1825 ****        11.5000 -14.2500 -46.2500 Du        
   1826 ****        11.5000 -14.2500 -46.0000 Du        
   1827 ****        11.5000 -14.0000 -49.2500 Du        
   1828 ****        11.5000 -14.0000 -49.0000 Du        
   1829 ****        11.5000 -14.0000 -48.7500 Du        
   1830 ****        11.5000 -14.0000 -48.5000 Du        
   1831 ****        11.5000 -14.0000 -48.2500 Du        
   1832 ****        11.5000 -14.0000 -48.0000 Du        
   1833 ****        11.5000 -14.0000 -47.7500 Du        
   1834 ****        11.5000 -14.0000 -47.5000 Du        
   1835 ****        11.5000 -14.0000 -47.2500 Du        
   1836 ****        11.5000 -14.0000 -47.0000 Du        
   1837 ****        11.5000 -14.0000 -46.7500 Du        
   1838 ****        11.5000 -14.0000 -46.5000 Du        
   1839 ****        11.5000 -14.0000 -46.2500 Du        
   1840 ****        11.5000 -14.0000 -46.0000 Du        
   1841 ****        11.5000 -14.0000 -45.7500 Du        
   1842 ****        11.5000 -14.0000 -45.5000 Du        
   1843 ****        11.5000 -14.0000 -45.2500 Du        
   1844 ****        11.5000 -14.0000 -45.0000 Du        
   1845 ****        11.5000 -14.0000 -44.7500 Du        
   1846 ****        11.5000 -14.0000 -44.5000 Du        
   1847 ****        11.5000 -13.7500 -49.0000 Du        
   1848 ****        11.5000 -13.7500 -48.7500 Du        
   1849 ****        11.5000 -13.7500 -48.5000 Du        
   1850 ****        11.5000 -13.7500 -48.2500 Du        
   1851 ****        11.5000 -13.7500 -48.0000 Du        
   1852 ****        11.5000 -13.7500 -47.7500 Du        
   1853 ****        11.5000 -13.7500 -47.5000 Du        
   1854 ****        11.5000 -13.7500 -47.2500 Du        
   1855 ****        11.5000 -13.7500 -46.2500 Du        
   1856 ****        11.5000 -13.7500 -46.0000 Du        
   1857 ****        11.5000 -13.7500 -45.7500 Du        
   1858 ****        11.5000 -13.7500 -45.5000 Du        
   1859 ****        11.5000 -13.7500 -45.2500 Du        
   1860 ****        11.5000 -13.7500 -45.0000 Du        
   1861 ****        11.5000 -13.7500 -44.7500 Du        
   1862 ****        11.5000 -13.7500 -44.5000 Du        
   1863 ****        11.5000 -13.7500 -44.2500 Du        
   1864 ****        11.5000 -13.7500 -44.0000 Du        
   1865 ****        11.5000 -13.7500 -43.7500 Du        
   1866 ****        11.5000 -13.7500 -43.5000 Du        
   1867 ****        11.5000 -13.7500 -43.2500 Du        
   1868 ****        11.5000 -13.7500 -43.0000 Du        
   1869 ****        11.5000 -13.7500 -42.7500 Du        
   1870 ****        11.5000 -13.5000 -45.5000 Du        
   1871 ****        11.5000 -13.5000 -45.2500 Du        
   1872 ****        11.5000 -13.5000 -45.0000 Du        
   1873 ****        11.5000 -13.5000 -44.7500 Du        
   1874 ****        11.5000 -13.5000 -44.5000 Du        
   1875 ****        11.5000 -13.5000 -44.2500 Du        
   1876 ****        11.5000 -13.5000 -44.0000 Du        
   1877 ****        11.5000 -13.5000 -43.7500 Du        
   1878 ****        11.5000 -13.5000 -43.5000 Du        
   1879 ****        11.5000 -13.5000 -43.2500 Du        
   1880 ****        11.5000 -13.5000 -43.0000 Du        
   1881 ****        11.5000 -13.5000 -42.7500 Du        
   1882 ****        11.5000 -13.2500 -45.2500 Du        
   1883 ****        11.5000 -13.2500 -45.0000 Du        
   1884 ****        11.5000 -13.2500 -44.7500 Du        
   1885 ****        11.5000 -13.2500 -44.5000 Du        
   1886 ****        11.5000 -13.2500 -44.2500 Du        
   1887 ****        11.5000 -13.2500 -44.0000 Du        
   1888 ****        11.5000 -13.2500 -43.7500 Du        
   1889 ****        11.5000 -13.2500 -43.5000 Du        
   1890 ****        11.5000 -13.2500 -43.2500 Du        
   1891 ****        11.5000 -13.2500 -43.0000 Du        
   1892 ****        11.5000 -13.2500 -42.7500 Du        
   1893 ****        11.5000 -13.0000 -45.0000 Du        
   1894 ****        11.5000 -13.0000 -44.7500 Du        
   1895 ****        11.5000 -13.0000 -44.5000 Du        
   1896 ****        11.5000 -13.0000 -44.2500 Du        
   1897 ****        11.5000 -13.0000 -44.0000 Du        
   1898 ****        11.5000 -13.0000 -43.7500 Du        
   1899 ****        11.5000 -13.0000 -43.5000 Du        
   1900 ****        11.5000 -13.0000 -43.2500 Du        
   1901 ****        11.5000 -13.0000 -43.0000 Du        
   1902 ****        11.5000 -13.0000 -42.7500 Du        
   1903 ****        11.5000 -12.7500 -44.5000 Du        
   1904 ****        11.5000 -12.7500 -44.2500 Du        
   1905 ****        11.5000 -12.7500 -44.0000 Du        
   1906 ****        11.5000 -12.7500 -43.7500 Du        
   1907 ****        11.5000 -12.7500 -43.5000 Du        
   1908 ****        11.5000 -12.7500 -43.2500 Du        
   1909 ****        11.5000 -12.7500 -43.0000 Du        
   1910 ****        11.5000 -12.7500 -42.7500 Du        
   1911 ****        11.5000 -12.5000 -44.2500 Du        
   1912 ****        11.5000 -12.5000 -44.0000 Du        
   1913 ****        11.5000 -12.5000 -43.7500 Du        
   1914 ****        11.5000 -12.5000 -43.5000 Du        
   1915 ****        11.5000 -12.5000 -43.2500 Du        
   1916 ****        11.5000 -12.5000 -43.0000 Du        
   1917 ****        11.5000 -12.5000 -42.7500 Du        
   1918 ****        11.5000 -12.2500 -44.0000 Du        
   1919 ****        11.5000 -12.2500 -43.7500 Du        
   1920 ****        11.5000 -12.2500 -43.5000 Du        
   1921 ****        11.5000 -12.2500 -43.2500 Du        
   1922 ****        11.5000 -12.2500 -43.0000 Du        
   1923 ****        11.5000 -12.2500 -42.7500 Du        
   1924 ****        11.5000 -12.0000 -43.7500 Du        
   1925 ****        11.5000 -12.0000 -43.5000 Du        
   1926 ****        11.5000 -12.0000 -43.2500 Du        
   1927 ****        11.5000 -12.0000 -43.0000 Du        
   1928 ****        11.5000 -12.0000 -42.7500 Du        
   1929 ****        11.5000 -12.0000 -42.5000 Du        
   1930 ****        11.5000 -11.7500 -43.5000 Du        
   1931 ****        11.5000 -11.7500 -43.2500 Du        
   1932 ****        11.5000 -11.7500 -43.0000 Du        
   1933 ****        11.5000 -11.7500 -42.7500 Du        
   1934 ****        11.7500 -15.0000 -49.0000 Du        
   1935 ****        11.7500 -15.0000 -48.5000 Du        
   1936 ****        11.7500 -15.0000 -48.2500 Du        
   1937 ****        11.7500 -15.0000 -48.0000 Du        
   1938 ****        11.7500 -14.7500 -49.2500 Du        
   1939 ****        11.7500 -14.7500 -49.0000 Du        
   1940 ****        11.7500 -14.7500 -48.7500 Du        
   1941 ****        11.7500 -14.7500 -48.5000 Du        
   1942 ****        11.7500 -14.7500 -48.2500 Du        
   1943 ****        11.7500 -14.7500 -48.0000 Du        
   1944 ****        11.7500 -14.7500 -47.7500 Du        
   1945 ****        11.7500 -14.7500 -47.5000 Du        
   1946 ****        11.7500 -14.7500 -47.2500 Du        
   1947 ****        11.7500 -14.5000 -49.5000 Du        
   1948 ****        11.7500 -14.5000 -49.2500 Du        
   1949 ****        11.7500 -14.5000 -49.0000 Du        
   1950 ****        11.7500 -14.5000 -48.7500 Du        
   1951 ****        11.7500 -14.5000 -48.5000 Du        
   1952 ****        11.7500 -14.5000 -48.2500 Du        
   1953 ****        11.7500 -14.5000 -48.0000 Du        
   1954 ****        11.7500 -14.5000 -47.7500 Du        
   1955 ****        11.7500 -14.5000 -47.5000 Du        
   1956 ****        11.7500 -14.5000 -47.2500 Du        
   1957 ****        11.7500 -14.5000 -47.0000 Du        
   1958 ****        11.7500 -14.5000 -46.7500 Du        
   1959 ****        11.7500 -14.2500 -49.5000 Du        
   1960 ****        11.7500 -14.2500 -49.2500 Du        
   1961 ****        11.7500 -14.2500 -49.0000 Du        
   1962 ****        11.7500 -14.2500 -48.7500 Du        
   1963 ****        11.7500 -14.2500 -48.5000 Du        
   1964 ****        11.7500 -14.2500 -48.2500 Du        
   1965 ****        11.7500 -14.2500 -48.0000 Du        
   1966 ****        11.7500 -14.2500 -47.7500 Du        
   1967 ****        11.7500 -14.2500 -47.5000 Du        
   1968 ****        11.7500 -14.2500 -47.2500 Du        
   1969 ****        11.7500 -14.2500 -47.0000 Du        
   1970 ****        11.7500 -14.2500 -46.7500 Du        
   1971 ****        11.7500 -14.2500 -46.5000 Du        
   1972 ****        11.7500 -14.2500 -46.2500 Du        
   1973 ****        11.7500 -14.2500 -46.0000 Du        
   1974 ****        11.7500 -14.0000 -49.5000 Du        
   1975 ****        11.7500 -14.0000 -49.2500 Du        
   1976 ****        11.7500 -14.0000 -49.0000 Du        
   1977 ****        11.7500 -14.0000 -48.7500 Du        
   1978 ****        11.7500 -14.0000 -48.5000 Du        
   1979 ****        11.7500 -14.0000 -48.2500 Du        
   1980 ****        11.7500 -14.0000 -48.0000 Du        
   1981 ****        11.7500 -14.0000 -47.7500 Du        
   1982 ****        11.7500 -14.0000 -47.5000 Du        
   1983 ****        11.7500 -14.0000 -47.2500 Du        
   1984 ****        11.7500 -14.0000 -47.0000 Du        
   1985 ****        11.7500 -14.0000 -46.7500 Du        
   1986 ****        11.7500 -14.0000 -46.5000 Du        
   1987 ****        11.7500 -14.0000 -46.2500 Du        
   1988 ****        11.7500 -14.0000 -46.0000 Du        
   1989 ****        11.7500 -14.0000 -45.7500 Du        
   1990 ****        11.7500 -14.0000 -45.5000 Du        
   1991 ****        11.7500 -14.0000 -45.2500 Du        
   1992 ****        11.7500 -14.0000 -45.0000 Du        
   1993 ****        11.7500 -14.0000 -44.7500 Du        
   1994 ****        11.7500 -14.0000 -44.5000 Du        
   1995 ****        11.7500 -14.0000 -44.2500 Du        
   1996 ****        11.7500 -14.0000 -44.0000 Du        
   1997 ****        11.7500 -14.0000 -43.7500 Du        
   1998 ****        11.7500 -13.7500 -49.0000 Du        
   1999 ****        11.7500 -13.7500 -48.7500 Du        
   2000 ****        11.7500 -13.7500 -48.5000 Du        
   2001 ****        11.7500 -13.7500 -48.2500 Du        
   2002 ****        11.7500 -13.7500 -48.0000 Du        
   2003 ****        11.7500 -13.7500 -47.7500 Du        
   2004 ****        11.7500 -13.7500 -46.0000 Du        
   2005 ****        11.7500 -13.7500 -45.7500 Du        
   2006 ****        11.7500 -13.7500 -45.5000 Du        
   2007 ****        11.7500 -13.7500 -45.2500 Du        
   2008 ****        11.7500 -13.7500 -45.0000 Du        
   2009 ****        11.7500 -13.7500 -44.7500 Du        
   2010 ****        11.7500 -13.7500 -44.5000 Du        
   2011 ****        11.7500 -13.7500 -44.2500 Du        
   2012 ****        11.7500 -13.7500 -44.0000 Du        
   2013 ****        11.7500 -13.7500 -43.7500 Du        
   2014 ****        11.7500 -13.7500 -43.5000 Du        
   2015 ****        11.7500 -13.7500 -43.2500 Du        
   2016 ****        11.7500 -13.7500 -43.0000 Du        
   2017 ****        11.7500 -13.7500 -42.7500 Du        
   2018 ****        11.7500 -13.7500 -42.5000 Du        
   2019 ****        11.7500 -13.5000 -45.5000 Du        
   2020 ****        11.7500 -13.5000 -45.2500 Du        
   2021 ****        11.7500 -13.5000 -45.0000 Du        
   2022 ****        11.7500 -13.5000 -44.7500 Du        
   2023 ****        11.7500 -13.5000 -44.5000 Du        
   2024 ****        11.7500 -13.5000 -44.2500 Du        
   2025 ****        11.7500 -13.5000 -44.0000 Du        
   2026 ****        11.7500 -13.5000 -43.7500 Du        
   2027 ****        11.7500 -13.5000 -43.5000 Du        
   2028 ****        11.7500 -13.5000 -43.2500 Du        
   2029 ****        11.7500 -13.5000 -43.0000 Du        
   2030 ****        11.7500 -13.5000 -42.7500 Du        
   2031 ****        11.7500 -13.5000 -42.5000 Du        
   2032 ****        11.7500 -13.2500 -45.2500 Du        
   2033 ****        11.7500 -13.2500 -45.0000 Du        
   2034 ****        11.7500 -13.2500 -44.7500 Du        
   2035 ****        11.7500 -13.2500 -44.5000 Du        
   2036 ****        11.7500 -13.2500 -44.2500 Du        
   2037 ****        11.7500 -13.2500 -44.0000 Du        
   2038 ****        11.7500 -13.2500 -43.7500 Du        
   2039 ****        11.7500 -13.2500 -43.5000 Du        
   2040 ****        11.7500 -13.2500 -43.2500 Du        
   2041 ****        11.7500 -13.2500 -43.0000 Du        
   2042 ****        11.7500 -13.2500 -42.7500 Du        
   2043 ****        11.7500 -13.2500 -42.5000 Du        
   2044 ****        11.7500 -13.0000 -44.7500 Du        
   2045 ****        11.7500 -13.0000 -44.5000 Du        
   2046 ****        11.7500 -13.0000 -44.2500 Du        
   2047 ****        11.7500 -13.0000 -44.0000 Du        
   2048 ****        11.7500 -13.0000 -43.7500 Du        
   2049 ****        11.7500 -13.0000 -43.5000 Du        
   2050 ****        11.7500 -13.0000 -43.2500 Du        
   2051 ****        11.7500 -13.0000 -43.0000 Du        
   2052 ****        11.7500 -13.0000 -42.7500 Du        
   2053 ****        11.7500 -13.0000 -42.5000 Du        
   2054 ****        11.7500 -12.7500 -44.5000 Du        
   2055 ****        11.7500 -12.7500 -44.2500 Du        
   2056 ****        11.7500 -12.7500 -44.0000 Du        
   2057 ****        11.7500 -12.7500 -43.7500 Du        
   2058 ****        11.7500 -12.7500 -43.5000 Du        
   2059 ****        11.7500 -12.7500 -43.2500 Du        
   2060 ****        11.7500 -12.7500 -43.0000 Du        
   2061 ****        11.7500 -12.7500 -42.7500 Du        
   2062 ****        11.7500 -12.7500 -42.5000 Du        
   2063 ****        11.7500 -12.5000 -44.2500 Du        
   2064 ****        11.7500 -12.5000 -44.0000 Du        
   2065 ****        11.7500 -12.5000 -43.7500 Du        
   2066 ****        11.7500 -12.5000 -43.5000 Du        
   2067 ****        11.7500 -12.5000 -43.2500 Du        
   2068 ****        11.7500 -12.5000 -43.0000 Du        
   2069 ****        11.7500 -12.5000 -42.7500 Du        
   2070 ****        11.7500 -12.5000 -42.5000 Du        
   2071 ****        11.7500 -12.2500 -44.0000 Du        
   2072 ****        11.7500 -12.2500 -43.7500 Du        
   2073 ****        11.7500 -12.2500 -43.5000 Du        
   2074 ****        11.7500 -12.2500 -43.2500 Du        
   2075 ****        11.7500 -12.2500 -43.0000 Du        
   2076 ****        11.7500 -12.2500 -42.7500 Du        
   2077 ****        11.7500 -12.2500 -42.5000 Du        
   2078 ****        11.7500 -12.0000 -43.7500 Du        
   2079 ****        11.7500 -12.0000 -43.5000 Du        
   2080 ****        11.7500 -12.0000 -43.2500 Du        
   2081 ****        11.7500 -12.0000 -43.0000 Du        
   2082 ****        11.7500 -12.0000 -42.7500 Du        
   2083 ****        11.7500 -12.0000 -42.5000 Du        
   2084 ****        11.7500 -11.7500 -43.5000 Du        
   2085 ****        11.7500 -11.7500 -43.2500 Du        
   2086 ****        11.7500 -11.7500 -43.0000 Du        
   2087 ****        11.7500 -11.7500 -42.7500 Du        
   2088 ****        11.7500 -11.7500 -42.5000 Du        
   2089 ****        11.7500 -11.5000 -43.2500 Du        
   2090 ****        11.7500 -11.5000 -43.0000 Du        
   2091 ****        11.7500 -11.5000 -42.7500 Du        
   2092 ****        11.7500 -11.5000 -42.5000 Du        
   2093 ****        12.0000 -15.0000 -49.0000 Du        
   2094 ****        12.0000 -15.0000 -48.5000 Du        
   2095 ****        12.0000 -14.7500 -49.0000 Du        
   2096 ****        12.0000 -14.7500 -48.7500 Du        
   2097 ****        12.0000 -14.7500 -48.5000 Du        
   2098 ****        12.0000 -14.7500 -48.2500 Du        
   2099 ****        12.0000 -14.7500 -48.0000 Du        
   2100 ****        12.0000 -14.7500 -47.7500 Du        
   2101 ****        12.0000 -14.7500 -47.5000 Du        
   2102 ****        12.0000 -14.5000 -49.5000 Du        
   2103 ****        12.0000 -14.5000 -49.2500 Du        
   2104 ****        12.0000 -14.5000 -49.0000 Du        
   2105 ****        12.0000 -14.5000 -48.7500 Du        
   2106 ****        12.0000 -14.5000 -48.5000 Du        
   2107 ****        12.0000 -14.5000 -48.2500 Du        
   2108 ****        12.0000 -14.5000 -48.0000 Du        
   2109 ****        12.0000 -14.5000 -47.7500 Du        
   2110 ****        12.0000 -14.5000 -47.5000 Du        
   2111 ****        12.0000 -14.5000 -47.2500 Du        
   2112 ****        12.0000 -14.5000 -47.0000 Du        
   2113 ****        12.0000 -14.5000 -46.7500 Du        
   2114 ****        12.0000 -14.2500 -49.5000 Du        
   2115 ****        12.0000 -14.2500 -49.2500 Du        
   2116 ****        12.0000 -14.2500 -49.0000 Du        
   2117 ****        12.0000 -14.2500 -48.7500 Du        
   2118 ****        12.0000 -14.2500 -48.5000 Du        
   2119 ****        12.0000 -14.2500 -48.2500 Du        
   2120 ****        12.0000 -14.2500 -48.0000 Du        
   2121 ****        12.0000 -14.2500 -47.7500 Du        
   2122 ****        12.0000 -14.2500 -47.5000 Du        
   2123 ****        12.0000 -14.2500 -47.2500 Du        
   2124 ****        12.0000 -14.2500 -47.0000 Du        
   2125 ****        12.0000 -14.2500 -46.7500 Du        
   2126 ****        12.0000 -14.2500 -46.5000 Du        
   2127 ****        12.0000 -14.2500 -46.2500 Du        
   2128 ****        12.0000 -14.2500 -46.0000 Du        
   2129 ****        12.0000 -14.0000 -49.2500 Du        
   2130 ****        12.0000 -14.0000 -49.0000 Du        
   2131 ****        12.0000 -14.0000 -48.7500 Du        
   2132 ****        12.0000 -14.0000 -48.5000 Du        
   2133 ****        12.0000 -14.0000 -48.2500 Du        
   2134 ****        12.0000 -14.0000 -48.0000 Du        
   2135 ****        12.0000 -14.0000 -47.7500 Du        
   2136 ****        12.0000 -14.0000 -47.5000 Du        
   2137 ****        12.0000 -14.0000 -47.2500 Du        
   2138 ****        12.0000 -14.0000 -47.0000 Du        
   2139 ****        12.0000 -14.0000 -46.7500 Du        
   2140 ****        12.0000 -14.0000 -46.5000 Du        
   2141 ****        12.0000 -14.0000 -46.2500 Du        
   2142 ****        12.0000 -14.0000 -46.0000 Du        
   2143 ****        12.0000 -14.0000 -45.7500 Du        
   2144 ****        12.0000 -14.0000 -45.5000 Du        
   2145 ****        12.0000 -14.0000 -45.2500 Du        
   2146 ****        12.0000 -14.0000 -45.0000 Du        
   2147 ****        12.0000 -14.0000 -44.7500 Du        
   2148 ****        12.0000 -14.0000 -44.5000 Du        
   2149 ****        12.0000 -14.0000 -44.2500 Du        
   2150 ****        12.0000 -14.0000 -44.0000 Du        
   2151 ****        12.0000 -14.0000 -43.7500 Du        
   2152 ****        12.0000 -14.0000 -43.5000 Du        
   2153 ****        12.0000 -14.0000 -43.2500 Du        
   2154 ****        12.0000 -14.0000 -43.0000 Du        
   2155 ****        12.0000 -13.7500 -49.0000 Du        
   2156 ****        12.0000 -13.7500 -48.7500 Du        
   2157 ****        12.0000 -13.7500 -48.5000 Du        
   2158 ****        12.0000 -13.7500 -48.2500 Du        
   2159 ****        12.0000 -13.7500 -48.0000 Du        
   2160 ****        12.0000 -13.7500 -46.0000 Du        
   2161 ****        12.0000 -13.7500 -45.7500 Du        
   2162 ****        12.0000 -13.7500 -45.5000 Du        
   2163 ****        12.0000 -13.7500 -45.2500 Du        
   2164 ****        12.0000 -13.7500 -45.0000 Du        
   2165 ****        12.0000 -13.7500 -44.7500 Du        
   2166 ****        12.0000 -13.7500 -44.5000 Du        
   2167 ****        12.0000 -13.7500 -44.2500 Du        
   2168 ****        12.0000 -13.7500 -44.0000 Du        
   2169 ****        12.0000 -13.7500 -43.7500 Du        
   2170 ****        12.0000 -13.7500 -43.5000 Du        
   2171 ****        12.0000 -13.7500 -43.2500 Du        
   2172 ****        12.0000 -13.7500 -43.0000 Du        
   2173 ****        12.0000 -13.7500 -42.7500 Du        
   2174 ****        12.0000 -13.5000 -45.5000 Du        
   2175 ****        12.0000 -13.5000 -45.2500 Du        
   2176 ****        12.0000 -13.5000 -45.0000 Du        
   2177 ****        12.0000 -13.5000 -44.7500 Du        
   2178 ****        12.0000 -13.5000 -44.5000 Du        
   2179 ****        12.0000 -13.5000 -44.2500 Du        
   2180 ****        12.0000 -13.5000 -44.0000 Du        
   2181 ****        12.0000 -13.5000 -43.7500 Du        
   2182 ****        12.0000 -13.5000 -43.5000 Du        
   2183 ****        12.0000 -13.5000 -43.2500 Du        
   2184 ****        12.0000 -13.5000 -43.0000 Du        
   2185 ****        12.0000 -13.5000 -42.7500 Du        
   2186 ****        12.0000 -13.2500 -45.2500 Du        
   2187 ****        12.0000 -13.2500 -45.0000 Du        
   2188 ****        12.0000 -13.2500 -44.7500 Du        
   2189 ****        12.0000 -13.2500 -44.5000 Du        
   2190 ****        12.0000 -13.2500 -44.2500 Du        
   2191 ****        12.0000 -13.2500 -44.0000 Du        
   2192 ****        12.0000 -13.2500 -43.7500 Du        
   2193 ****        12.0000 -13.2500 -43.5000 Du        
   2194 ****        12.0000 -13.2500 -43.2500 Du        
   2195 ****        12.0000 -13.2500 -43.0000 Du        
   2196 ****        12.0000 -13.2500 -42.7500 Du        
   2197 ****        12.0000 -13.2500 -42.5000 Du        
   2198 ****        12.0000 -13.0000 -44.7500 Du        
   2199 ****        12.0000 -13.0000 -44.5000 Du        
   2200 ****        12.0000 -13.0000 -44.2500 Du        
   2201 ****        12.0000 -13.0000 -44.0000 Du        
   2202 ****        12.0000 -13.0000 -43.7500 Du        
   2203 ****        12.0000 -13.0000 -43.5000 Du        
   2204 ****        12.0000 -13.0000 -43.2500 Du        
   2205 ****        12.0000 -13.0000 -43.0000 Du        
   2206 ****        12.0000 -13.0000 -42.7500 Du        
   2207 ****        12.0000 -13.0000 -42.5000 Du        
   2208 ****        12.0000 -12.7500 -44.5000 Du        
   2209 ****        12.0000 -12.7500 -44.2500 Du        
   2210 ****        12.0000 -12.7500 -44.0000 Du        
   2211 ****        12.0000 -12.7500 -43.7500 Du        
   2212 ****        12.0000 -12.7500 -43.5000 Du        
   2213 ****        12.0000 -12.7500 -43.2500 Du        
   2214 ****        12.0000 -12.7500 -43.0000 Du        
   2215 ****        12.0000 -12.7500 -42.7500 Du        
   2216 ****        12.0000 -12.5000 -44.2500 Du        
   2217 ****        12.0000 -12.5000 -44.0000 Du        
   2218 ****        12.0000 -12.5000 -43.7500 Du        
   2219 ****        12.0000 -12.5000 -43.5000 Du        
   2220 ****        12.0000 -12.5000 -43.2500 Du        
   2221 ****        12.0000 -12.5000 -43.0000 Du        
   2222 ****        12.0000 -12.5000 -42.7500 Du        
   2223 ****        12.0000 -12.2500 -44.0000 Du        
   2224 ****        12.0000 -12.2500 -43.7500 Du        
   2225 ****        12.0000 -12.2500 -43.5000 Du        
   2226 ****        12.0000 -12.2500 -43.2500 Du        
   2227 ****        12.0000 -12.2500 -43.0000 Du        
   2228 ****        12.0000 -12.2500 -42.7500 Du        
   2229 ****        12.0000 -12.0000 -44.0000 Du        
   2230 ****        12.0000 -12.0000 -43.7500 Du        
   2231 ****        12.0000 -12.0000 -43.5000 Du        
   2232 ****        12.0000 -12.0000 -43.2500 Du        
   2233 ****        12.0000 -12.0000 -43.0000 Du        
   2234 ****        12.0000 -12.0000 -42.7500 Du        
   2235 ****        12.0000 -11.7500 -43.7500 Du        
   2236 ****        12.0000 -11.7500 -43.5000 Du        
   2237 ****        12.0000 -11.7500 -43.2500 Du        
   2238 ****        12.0000 -11.7500 -43.0000 Du        
   2239 ****        12.0000 -11.7500 -42.7500 Du        
   2240 ****        12.0000 -11.5000 -43.2500 Du        
   2241 ****        12.0000 -11.5000 -43.0000 Du        
   2242 ****        12.0000 -11.5000 -42.7500 Du        
   2243 ****        12.0000 -11.2500 -43.0000 Du        
   2244 ****        12.0000 -11.2500 -42.7500 Du        
   2245 ****        12.2500 -14.7500 -48.2500 Du        
   2246 ****        12.2500 -14.7500 -48.0000 Du        
   2247 ****        12.2500 -14.7500 -47.7500 Du        
   2248 ****        12.2500 -14.5000 -49.2500 Du        
   2249 ****        12.2500 -14.5000 -49.0000 Du        
   2250 ****        12.2500 -14.5000 -48.7500 Du        
   2251 ****        12.2500 -14.5000 -48.5000 Du        
   2252 ****        12.2500 -14.5000 -48.2500 Du        
   2253 ****        12.2500 -14.5000 -48.0000 Du        
   2254 ****        12.2500 -14.5000 -47.7500 Du        
   2255 ****        12.2500 -14.5000 -47.5000 Du        
   2256 ****        12.2500 -14.5000 -47.2500 Du        
   2257 ****        12.2500 -14.5000 -47.0000 Du        
   2258 ****        12.2500 -14.2500 -49.5000 Du        
   2259 ****        12.2500 -14.2500 -49.2500 Du        
   2260 ****        12.2500 -14.2500 -49.0000 Du        
   2261 ****        12.2500 -14.2500 -48.7500 Du        
   2262 ****        12.2500 -14.2500 -48.5000 Du        
   2263 ****        12.2500 -14.2500 -48.2500 Du        
   2264 ****        12.2500 -14.2500 -48.0000 Du        
   2265 ****        12.2500 -14.2500 -47.7500 Du        
   2266 ****        12.2500 -14.2500 -47.5000 Du        
   2267 ****        12.2500 -14.2500 -47.2500 Du        
   2268 ****        12.2500 -14.2500 -47.0000 Du        
   2269 ****        12.2500 -14.2500 -46.7500 Du        
   2270 ****        12.2500 -14.2500 -46.5000 Du        
   2271 ****        12.2500 -14.2500 -46.2500 Du        
   2272 ****        12.2500 -14.0000 -49.5000 Du        
   2273 ****        12.2500 -14.0000 -49.2500 Du        
   2274 ****        12.2500 -14.0000 -49.0000 Du        
   2275 ****        12.2500 -14.0000 -48.7500 Du        
   2276 ****        12.2500 -14.0000 -48.5000 Du        
   2277 ****        12.2500 -14.0000 -48.2500 Du        
   2278 ****        12.2500 -14.0000 -48.0000 Du        
   2279 ****        12.2500 -14.0000 -47.7500 Du        
   2280 ****        12.2500 -14.0000 -47.5000 Du        
   2281 ****        12.2500 -14.0000 -47.2500 Du        
   2282 ****        12.2500 -14.0000 -47.0000 Du        
   2283 ****        12.2500 -14.0000 -46.7500 Du        
   2284 ****        12.2500 -14.0000 -46.5000 Du        
   2285 ****        12.2500 -14.0000 -46.2500 Du        
   2286 ****        12.2500 -14.0000 -46.0000 Du        
   2287 ****        12.2500 -14.0000 -45.7500 Du        
   2288 ****        12.2500 -14.0000 -45.5000 Du        
   2289 ****        12.2500 -14.0000 -45.2500 Du        
   2290 ****        12.2500 -14.0000 -45.0000 Du        
   2291 ****        12.2500 -14.0000 -44.7500 Du        
   2292 ****        12.2500 -14.0000 -44.5000 Du        
   2293 ****        12.2500 -14.0000 -44.2500 Du        
   2294 ****        12.2500 -14.0000 -44.0000 Du        
   2295 ****        12.2500 -14.0000 -43.7500 Du        
   2296 ****        12.2500 -14.0000 -43.5000 Du        
   2297 ****        12.2500 -14.0000 -43.2500 Du        
   2298 ****        12.2500 -13.7500 -49.2500 Du        
   2299 ****        12.2500 -13.7500 -49.0000 Du        
   2300 ****        12.2500 -13.7500 -48.7500 Du        
   2301 ****        12.2500 -13.7500 -48.2500 Du        
   2302 ****        12.2500 -13.7500 -48.0000 Du        
   2303 ****        12.2500 -13.7500 -46.0000 Du        
   2304 ****        12.2500 -13.7500 -45.7500 Du        
   2305 ****        12.2500 -13.7500 -45.5000 Du        
   2306 ****        12.2500 -13.7500 -45.2500 Du        
   2307 ****        12.2500 -13.7500 -45.0000 Du        
   2308 ****        12.2500 -13.7500 -44.7500 Du        
   2309 ****        12.2500 -13.7500 -44.5000 Du        
   2310 ****        12.2500 -13.7500 -44.2500 Du        
   2311 ****        12.2500 -13.7500 -44.0000 Du        
   2312 ****        12.2500 -13.7500 -43.7500 Du        
   2313 ****        12.2500 -13.7500 -43.5000 Du        
   2314 ****        12.2500 -13.7500 -43.2500 Du        
   2315 ****        12.2500 -13.7500 -43.0000 Du        
   2316 ****        12.2500 -13.5000 -45.5000 Du        
   2317 ****        12.2500 -13.5000 -45.2500 Du        
   2318 ****        12.2500 -13.5000 -45.0000 Du        
   2319 ****        12.2500 -13.5000 -44.7500 Du        
   2320 ****        12.2500 -13.5000 -44.5000 Du        
   2321 ****        12.2500 -13.5000 -44.2500 Du        
   2322 ****        12.2500 -13.5000 -44.0000 Du        
   2323 ****        12.2500 -13.5000 -43.7500 Du        
   2324 ****        12.2500 -13.5000 -43.5000 Du        
   2325 ****        12.2500 -13.5000 -43.2500 Du        
   2326 ****        12.2500 -13.5000 -43.0000 Du        
   2327 ****        12.2500 -13.5000 -42.7500 Du        
   2328 ****        12.2500 -13.2500 -45.0000 Du        
   2329 ****        12.2500 -13.2500 -44.7500 Du        
   2330 ****        12.2500 -13.2500 -44.5000 Du        
   2331 ****        12.2500 -13.2500 -44.2500 Du        
   2332 ****        12.2500 -13.2500 -44.0000 Du        
   2333 ****        12.2500 -13.2500 -43.7500 Du        
   2334 ****        12.2500 -13.2500 -43.5000 Du        
   2335 ****        12.2500 -13.2500 -43.2500 Du        
   2336 ****        12.2500 -13.2500 -43.0000 Du        
   2337 ****        12.2500 -13.2500 -42.7500 Du        
   2338 ****        12.2500 -13.0000 -44.7500 Du        
   2339 ****        12.2500 -13.0000 -44.5000 Du        
   2340 ****        12.2500 -13.0000 -44.2500 Du        
   2341 ****        12.2500 -13.0000 -44.0000 Du        
   2342 ****        12.2500 -13.0000 -43.7500 Du        
   2343 ****        12.2500 -13.0000 -43.5000 Du        
   2344 ****        12.2500 -13.0000 -43.2500 Du        
   2345 ****        12.2500 -13.0000 -43.0000 Du        
   2346 ****        12.2500 -13.0000 -42.7500 Du        
   2347 ****        12.2500 -12.7500 -44.5000 Du        
   2348 ****        12.2500 -12.7500 -44.2500 Du        
   2349 ****        12.2500 -12.7500 -44.0000 Du        
   2350 ****        12.2500 -12.7500 -43.7500 Du        
   2351 ****        12.2500 -12.7500 -43.5000 Du        
   2352 ****        12.2500 -12.7500 -43.2500 Du        
   2353 ****        12.2500 -12.7500 -43.0000 Du        
   2354 ****        12.2500 -12.7500 -42.7500 Du        
   2355 ****        12.2500 -12.5000 -44.2500 Du        
   2356 ****        12.2500 -12.5000 -44.0000 Du        
   2357 ****        12.2500 -12.5000 -43.7500 Du        
   2358 ****        12.2500 -12.5000 -43.5000 Du        
   2359 ****        12.2500 -12.5000 -43.2500 Du        
   2360 ****        12.2500 -12.5000 -43.0000 Du        
   2361 ****        12.2500 -12.5000 -42.7500 Du        
   2362 ****        12.2500 -12.2500 -44.0000 Du        
   2363 ****        12.2500 -12.2500 -43.7500 Du        
   2364 ****        12.2500 -12.2500 -43.5000 Du        
   2365 ****        12.2500 -12.2500 -43.2500 Du        
   2366 ****        12.2500 -12.2500 -43.0000 Du        
   2367 ****        12.2500 -12.2500 -42.7500 Du        
   2368 ****        12.2500 -12.0000 -43.7500 Du        
   2369 ****        12.2500 -12.0000 -43.5000 Du        
   2370 ****        12.2500 -12.0000 -43.2500 Du        
   2371 ****        12.2500 -12.0000 -43.0000 Du        
   2372 ****        12.2500 -12.0000 -42.7500 Du        
   2373 ****        12.2500 -11.7500 -43.7500 Du        
   2374 ****        12.2500 -11.7500 -43.5000 Du        
   2375 ****        12.2500 -11.7500 -43.2500 Du        
   2376 ****        12.2500 -11.7500 -43.0000 Du        
   2377 ****        12.2500 -11.7500 -42.7500 Du        
   2378 ****        12.2500 -11.5000 -43.2500 Du        
   2379 ****        12.2500 -11.5000 -43.0000 Du        
   2380 ****        12.2500 -11.2500 -43.2500 Du        
   2381 ****        12.2500 -11.2500 -43.0000 Du        
   2382 ****        12.2500 -11.0000 -43.0000 Du        
   2383 ****        12.5000 -14.2500 -49.2500 Du        
   2384 ****        12.5000 -14.2500 -49.0000 Du        
   2385 ****        12.5000 -14.2500 -48.7500 Du        
   2386 ****        12.5000 -14.2500 -48.5000 Du        
   2387 ****        12.5000 -14.2500 -48.2500 Du        
   2388 ****        12.5000 -14.2500 -48.0000 Du        
   2389 ****        12.5000 -14.2500 -47.5000 Du        
   2390 ****        12.5000 -14.2500 -47.2500 Du        
   2391 ****        12.5000 -14.2500 -47.0000 Du        
   2392 ****        12.5000 -14.2500 -46.7500 Du        
   2393 ****        12.5000 -14.2500 -46.5000 Du        
   2394 ****        12.5000 -14.0000 -49.2500 Du        
   2395 ****        12.5000 -14.0000 -49.0000 Du        
   2396 ****        12.5000 -14.0000 -48.7500 Du        
   2397 ****        12.5000 -14.0000 -48.5000 Du        
   2398 ****        12.5000 -14.0000 -48.2500 Du        
   2399 ****        12.5000 -14.0000 -46.5000 Du        
   2400 ****        12.5000 -14.0000 -46.2500 Du        
   2401 ****        12.5000 -14.0000 -46.0000 Du        
   2402 ****        12.5000 -14.0000 -45.7500 Du        
   2403 ****        12.5000 -14.0000 -45.5000 Du        
   2404 ****        12.5000 -14.0000 -45.2500 Du        
   2405 ****        12.5000 -14.0000 -45.0000 Du        
   2406 ****        12.5000 -14.0000 -44.7500 Du        
   2407 ****        12.5000 -14.0000 -44.5000 Du        
   2408 ****        12.5000 -14.0000 -44.2500 Du        
   2409 ****        12.5000 -14.0000 -44.0000 Du        
   2410 ****        12.5000 -14.0000 -43.7500 Du        
   2411 ****        12.5000 -13.7500 -45.7500 Du        
   2412 ****        12.5000 -13.7500 -45.5000 Du        
   2413 ****        12.5000 -13.7500 -45.2500 Du        
   2414 ****        12.5000 -13.7500 -45.0000 Du        
   2415 ****        12.5000 -13.7500 -44.7500 Du        
   2416 ****        12.5000 -13.7500 -44.5000 Du        
   2417 ****        12.5000 -13.7500 -44.2500 Du        
   2418 ****        12.5000 -13.7500 -44.0000 Du        
   2419 ****        12.5000 -13.7500 -43.7500 Du        
   2420 ****        12.5000 -13.7500 -43.5000 Du        
   2421 ****        12.5000 -13.7500 -43.2500 Du        
   2422 ****        12.5000 -13.5000 -45.2500 Du        
   2423 ****        12.5000 -13.5000 -45.0000 Du        
   2424 ****        12.5000 -13.5000 -44.7500 Du        
   2425 ****        12.5000 -13.5000 -44.5000 Du        
   2426 ****        12.5000 -13.5000 -44.2500 Du        
   2427 ****        12.5000 -13.5000 -44.0000 Du        
   2428 ****        12.5000 -13.5000 -43.7500 Du        
   2429 ****        12.5000 -13.5000 -43.5000 Du        
   2430 ****        12.5000 -13.5000 -43.2500 Du        
   2431 ****        12.5000 -13.2500 -45.0000 Du        
   2432 ****        12.5000 -13.2500 -44.7500 Du        
   2433 ****        12.5000 -13.2500 -44.5000 Du        
   2434 ****        12.5000 -13.2500 -44.2500 Du        
   2435 ****        12.5000 -13.2500 -44.0000 Du        
   2436 ****        12.5000 -13.2500 -43.7500 Du        
   2437 ****        12.5000 -13.2500 -43.5000 Du        
   2438 ****        12.5000 -13.2500 -43.2500 Du        
   2439 ****        12.5000 -13.2500 -43.0000 Du        
   2440 ****        12.5000 -13.0000 -44.7500 Du        
   2441 ****        12.5000 -13.0000 -44.5000 Du        
   2442 ****        12.5000 -13.0000 -44.2500 Du        
   2443 ****        12.5000 -13.0000 -44.0000 Du        
   2444 ****        12.5000 -13.0000 -43.7500 Du        
   2445 ****        12.5000 -13.0000 -43.5000 Du        
   2446 ****        12.5000 -13.0000 -43.2500 Du        
   2447 ****        12.5000 -13.0000 -43.0000 Du        
   2448 ****        12.5000 -12.7500 -44.5000 Du        
   2449 ****        12.5000 -12.7500 -44.2500 Du        
   2450 ****        12.5000 -12.7500 -44.0000 Du        
   2451 ****        12.5000 -12.7500 -43.7500 Du        
   2452 ****        12.5000 -12.7500 -43.5000 Du        
   2453 ****        12.5000 -12.7500 -43.2500 Du        
   2454 ****        12.5000 -12.7500 -43.0000 Du        
   2455 ****        12.5000 -12.5000 -44.2500 Du        
   2456 ****        12.5000 -12.5000 -44.0000 Du        
   2457 ****        12.5000 -12.5000 -43.7500 Du        
   2458 ****        12.5000 -12.5000 -43.5000 Du        
   2459 ****        12.5000 -12.5000 -43.2500 Du        
   2460 ****        12.5000 -12.2500 -44.0000 Du        
   2461 ****        12.5000 -12.2500 -43.7500 Du        
   2462 ****        12.5000 -12.2500 -43.5000 Du        
   2463 ****        12.5000 -12.2500 -43.2500 Du        
   2464 ****        12.5000 -12.0000 -43.7500 Du        
   2465 ****        12.5000 -12.0000 -43.5000 Du        
   2466 ****        12.5000 -12.0000 -43.2500 Du        
   2467 ****        12.5000 -11.7500 -43.5000 Du        
   2468 ****        12.5000 -11.7500 -43.2500 Du        
   2469 ****        12.5000 -11.5000 -43.2500 Du        
   2470 ****        12.5000 -11.2500 -43.2500 Du        
   2471 ****        12.7500 -14.2500 -49.2500 Du        
   2472 ****        12.7500 -14.2500 -49.0000 Du        
   2473 ****        12.7500 -14.2500 -48.7500 Du        
   2474 ****        12.7500 -14.2500 -48.5000 Du        
   2475 ****        12.7500 -14.2500 -48.2500 Du        
   2476 ****        12.7500 -14.2500 -47.2500 Du        
   2477 ****        12.7500 -14.2500 -47.0000 Du        
   2478 ****        12.7500 -14.0000 -49.0000 Du        
   2479 ****        12.7500 -14.0000 -48.7500 Du        
   2480 ****        12.7500 -14.0000 -48.5000 Du        
   2481 ****        12.7500 -14.0000 -48.2500 Du        
   2482 ****        12.7500 -14.0000 -46.5000 Du        
   2483 ****        12.7500 -14.0000 -46.2500 Du        
   2484 ****        12.7500 -14.0000 -46.0000 Du        
   2485 ****        12.7500 -14.0000 -45.7500 Du        
   2486 ****        12.7500 -14.0000 -45.5000 Du        
   2487 ****        12.7500 -14.0000 -45.2500 Du        
   2488 ****        12.7500 -14.0000 -45.0000 Du        
   2489 ****        12.7500 -14.0000 -44.7500 Du        
   2490 ****        12.7500 -14.0000 -44.5000 Du        
   2491 ****        12.7500 -14.0000 -44.2500 Du        
   2492 ****        12.7500 -14.0000 -44.0000 Du        
   2493 ****        12.7500 -14.0000 -43.7500 Du        
   2494 ****        12.7500 -13.7500 -45.7500 Du        
   2495 ****        12.7500 -13.7500 -45.5000 Du        
   2496 ****        12.7500 -13.7500 -45.2500 Du        
   2497 ****        12.7500 -13.7500 -45.0000 Du        
   2498 ****        12.7500 -13.7500 -44.7500 Du        
   2499 ****        12.7500 -13.7500 -44.5000 Du        
   2500 ****        12.7500 -13.7500 -44.2500 Du        
   2501 ****        12.7500 -13.7500 -44.0000 Du        
   2502 ****        12.7500 -13.7500 -43.7500 Du        
   2503 ****        12.7500 -13.7500 -43.5000 Du        
   2504 ****        12.7500 -13.5000 -45.5000 Du        
   2505 ****        12.7500 -13.5000 -45.2500 Du        
   2506 ****        12.7500 -13.5000 -45.0000 Du        
   2507 ****        12.7500 -13.5000 -44.7500 Du        
   2508 ****        12.7500 -13.5000 -44.5000 Du        
   2509 ****        12.7500 -13.5000 -44.2500 Du        
   2510 ****        12.7500 -13.5000 -44.0000 Du        
   2511 ****        12.7500 -13.5000 -43.7500 Du        
   2512 ****        12.7500 -13.5000 -43.5000 Du        
   2513 ****        12.7500 -13.5000 -43.2500 Du        
   2514 ****        12.7500 -13.2500 -45.0000 Du        
   2515 ****        12.7500 -13.2500 -44.7500 Du        
   2516 ****        12.7500 -13.2500 -44.5000 Du        
   2517 ****        12.7500 -13.2500 -44.2500 Du        
   2518 ****        12.7500 -13.2500 -44.0000 Du        
   2519 ****        12.7500 -13.2500 -43.7500 Du        
   2520 ****        12.7500 -13.2500 -43.5000 Du        
   2521 ****        12.7500 -13.2500 -43.2500 Du        
   2522 ****        12.7500 -13.0000 -44.7500 Du        
   2523 ****        12.7500 -13.0000 -44.5000 Du        
   2524 ****        12.7500 -13.0000 -44.2500 Du        
   2525 ****        12.7500 -13.0000 -44.0000 Du        
   2526 ****        12.7500 -13.0000 -43.7500 Du        
   2527 ****        12.7500 -13.0000 -43.5000 Du        
   2528 ****        12.7500 -13.0000 -43.2500 Du        
   2529 ****        12.7500 -12.7500 -44.5000 Du        
   2530 ****        12.7500 -12.7500 -44.2500 Du        
   2531 ****        12.7500 -12.7500 -44.0000 Du        
   2532 ****        12.7500 -12.7500 -43.7500 Du        
   2533 ****        12.7500 -12.7500 -43.5000 Du        
   2534 ****        12.7500 -12.7500 -43.2500 Du        
   2535 ****        12.7500 -12.5000 -44.2500 Du        
   2536 ****        12.7500 -12.5000 -44.0000 Du        
   2537 ****        12.7500 -12.5000 -43.7500 Du        
   2538 ****        12.7500 -12.5000 -43.5000 Du        
   2539 ****        12.7500 -12.2500 -44.0000 Du        
   2540 ****        12.7500 -12.2500 -43.7500 Du        
   2541 ****        12.7500 -12.2500 -43.5000 Du        
   2542 ****        12.7500 -12.0000 -43.7500 Du        
   2543 ****        12.7500 -12.0000 -43.5000 Du        
   2544 ****        12.7500 -12.0000 -43.2500 Du        
   2545 ****        12.7500 -11.7500 -43.5000 Du        
   2546 ****        12.7500 -11.7500 -43.2500 Du        
   2547 ****        13.0000 -14.0000 -49.0000 Du        
   2548 ****        13.0000 -14.0000 -46.0000 Du        
   2549 ****        13.0000 -14.0000 -45.7500 Du        
   2550 ****        13.0000 -14.0000 -45.5000 Du        
   2551 ****        13.0000 -14.0000 -45.2500 Du        
   2552 ****        13.0000 -14.0000 -45.0000 Du        
   2553 ****        13.0000 -14.0000 -44.7500 Du        
   2554 ****        13.0000 -14.0000 -44.5000 Du        
   2555 ****        13.0000 -14.0000 -44.2500 Du        
   2556 ****        13.0000 -14.0000 -44.0000 Du        
   2557 ****        13.0000 -14.0000 -43.7500 Du        
   2558 ****        13.0000 -13.7500 -45.7500 Du        
   2559 ****        13.0000 -13.7500 -45.5000 Du        
   2560 ****        13.0000 -13.7500 -45.2500 Du        
   2561 ****        13.0000 -13.7500 -45.0000 Du        
   2562 ****        13.0000 -13.7500 -44.7500 Du        
   2563 ****        13.0000 -13.7500 -44.5000 Du        
   2564 ****        13.0000 -13.7500 -44.2500 Du        
   2565 ****        13.0000 -13.7500 -44.0000 Du        
   2566 ****        13.0000 -13.7500 -43.7500 Du        
   2567 ****        13.0000 -13.7500 -43.5000 Du        
   2568 ****        13.0000 -13.5000 -45.5000 Du        
   2569 ****        13.0000 -13.5000 -45.2500 Du        
   2570 ****        13.0000 -13.5000 -45.0000 Du        
   2571 ****        13.0000 -13.5000 -44.7500 Du        
   2572 ****        13.0000 -13.5000 -44.5000 Du        
   2573 ****        13.0000 -13.5000 -44.2500 Du        
   2574 ****        13.0000 -13.5000 -44.0000 Du        
   2575 ****        13.0000 -13.5000 -43.7500 Du        
   2576 ****        13.0000 -13.5000 -43.5000 Du        
   2577 ****        13.0000 -13.2500 -45.0000 Du        
   2578 ****        13.0000 -13.2500 -44.7500 Du        
   2579 ****        13.0000 -13.2500 -44.5000 Du        
   2580 ****        13.0000 -13.2500 -44.2500 Du        
   2581 ****        13.0000 -13.2500 -44.0000 Du        
   2582 ****        13.0000 -13.2500 -43.7500 Du        
   2583 ****        13.0000 -13.2500 -43.5000 Du        
   2584 ****        13.0000 -13.0000 -44.7500 Du        
   2585 ****        13.0000 -13.0000 -44.5000 Du        
   2586 ****        13.0000 -13.0000 -44.2500 Du        
   2587 ****        13.0000 -13.0000 -44.0000 Du        
   2588 ****        13.0000 -13.0000 -43.7500 Du        
   2589 ****        13.0000 -13.0000 -43.5000 Du        
   2590 ****        13.0000 -12.7500 -44.5000 Du        
   2591 ****        13.0000 -12.7500 -44.2500 Du        
   2592 ****        13.0000 -12.7500 -44.0000 Du        
   2593 ****        13.0000 -12.7500 -43.7500 Du        
   2594 ****        13.0000 -12.7500 -43.5000 Du        
   2595 ****        13.0000 -12.5000 -44.2500 Du        
   2596 ****        13.0000 -12.5000 -44.0000 Du        
   2597 ****        13.0000 -12.5000 -43.7500 Du        
   2598 ****        13.0000 -12.5000 -43.5000 Du        
   2599 ****        13.0000 -12.2500 -44.0000 Du        
   2600 ****        13.0000 -12.2500 -43.7500 Du        
   2601 ****        13.0000 -12.2500 -43.5000 Du        
   2602 ****        13.0000 -12.0000 -43.7500 Du        
   2603 ****        13.0000 -12.0000 -43.5000 Du        
   2604 ****        13.0000 -11.7500 -43.5000 Du        
   2605 ****        13.2500 -14.0000 -46.0000 Du        
   2606 ****        13.2500 -14.0000 -45.7500 Du        
   2607 ****        13.2500 -14.0000 -45.5000 Du        
   2608 ****        13.2500 -14.0000 -45.2500 Du        
   2609 ****        13.2500 -14.0000 -45.0000 Du        
   2610 ****        13.2500 -14.0000 -44.5000 Du        
   2611 ****        13.2500 -14.0000 -44.2500 Du        
   2612 ****        13.2500 -14.0000 -44.0000 Du        
   2613 ****        13.2500 -13.7500 -46.0000 Du        
   2614 ****        13.2500 -13.7500 -45.7500 Du        
   2615 ****        13.2500 -13.7500 -45.5000 Du        
   2616 ****        13.2500 -13.7500 -45.2500 Du        
   2617 ****        13.2500 -13.7500 -45.0000 Du        
   2618 ****        13.2500 -13.7500 -44.7500 Du        
   2619 ****        13.2500 -13.7500 -44.5000 Du        
   2620 ****        13.2500 -13.7500 -44.2500 Du        
   2621 ****        13.2500 -13.7500 -44.0000 Du        
   2622 ****        13.2500 -13.7500 -43.7500 Du        
   2623 ****        13.2500 -13.5000 -45.5000 Du        
   2624 ****        13.2500 -13.5000 -45.2500 Du        
   2625 ****        13.2500 -13.5000 -45.0000 Du        
   2626 ****        13.2500 -13.5000 -44.7500 Du        
   2627 ****        13.2500 -13.5000 -44.5000 Du        
   2628 ****        13.2500 -13.5000 -44.2500 Du        
   2629 ****        13.2500 -13.5000 -44.0000 Du        
   2630 ****        13.2500 -13.5000 -43.7500 Du        
   2631 ****        13.2500 -13.2500 -45.0000 Du        
   2632 ****        13.2500 -13.2500 -44.7500 Du        
   2633 ****        13.2500 -13.2500 -44.5000 Du        
   2634 ****        13.2500 -13.2500 -44.2500 Du        
   2635 ****        13.2500 -13.2500 -44.0000 Du        
   2636 ****        13.2500 -13.2500 -43.7500 Du        
   2637 ****        13.2500 -13.0000 -44.7500 Du        
   2638 ****        13.2500 -13.0000 -44.5000 Du        
   2639 ****        13.2500 -13.0000 -44.2500 Du        
   2640 ****        13.2500 -13.0000 -44.0000 Du        
   2641 ****        13.2500 -13.0000 -43.7500 Du        
   2642 ****        13.2500 -12.7500 -44.2500 Du        
   2643 ****        13.2500 -12.7500 -44.0000 Du        
   2644 ****        13.2500 -12.7500 -43.7500 Du        
   2645 ****        13.2500 -12.5000 -44.2500 Du        
   2646 ****        13.2500 -12.5000 -44.0000 Du        
   2647 ****        13.2500 -12.5000 -43.7500 Du        
   2648 ****        13.2500 -12.2500 -44.0000 Du        
   2649 ****        13.2500 -12.2500 -43.7500 Du        
   2650 ****        13.2500 -12.0000 -43.7500 Du        
   2651 ****        13.5000 -13.7500 -44.2500 Du        
   2652 ****        13.5000 -13.7500 -44.0000 Du        
   2653 ****        13.5000 -13.5000 -44.2500 Du        
   2654 ****        13.5000 -13.2500 -44.2500 Du        
   2655 ****        13.5000 -13.2500 -44.0000 Du        
