#       Name:                CT1002167954
#       Creating user name   hitesit
#       Creation time:       Sun Apr 16 02:22:43 2023


#       File generated by GOLD software.
#

@<TRIPOS>MOLECULE
CT1002167954|ligand_prepared|mol2|1|dock5
    29    30     1
SMALL
NO_CHARGES


@<TRIPOS>ATOM
      1 C1          10.2942 -14.7853 -49.0983 C.3            1 RES1               0.0000
      2 C2          11.0126 -14.5149 -47.7605 C.ar           1 RES1               0.0000
      3 C3          10.0850 -16.2948 -49.1749 C.2            1 RES1               0.0000
      4 C4           9.0007 -13.9791 -49.0584 C.2            1 RES1               0.0000
      5 C5          11.0983 -14.3371 -50.3409 C.3            1 RES1               0.0000
      6 C6          10.3360 -14.6536 -46.5523 C.ar           1 RES1               0.0000
      7 C7          12.3498 -14.1295 -47.7185 C.ar           1 RES1               0.0000
      8 N8           8.8212 -16.7682 -48.9790 N.am           1 RES1               0.0000
      9 O9          11.0216 -17.0608 -49.3650 O.2            1 RES1               0.0000
     10 N10          7.8157 -14.6671 -49.0417 N.am           1 RES1               0.0000
     11 O11          8.9973 -12.7548 -49.0245 O.2            1 RES1               0.0000
     12 C12         10.3957 -14.6179 -51.6599 C.3            1 RES1               0.0000
     13 C13         10.9740 -14.4184 -45.3456 C.ar           1 RES1               0.0000
     14 C14         12.9858 -13.8945 -46.5107 C.ar           1 RES1               0.0000
     15 C15          7.6680 -16.0254 -48.9691 C.2            1 RES1               0.0000
     16 C16         12.2992 -14.0392 -45.3240 C.ar           1 RES1               0.0000
     17 O17          6.5688 -16.5682 -48.9026 O.2            1 RES1               0.0000
     18 H18         11.2922 -13.2600 -50.2664 H              1 RES1               0.0000
     19 H19         12.0665 -14.8529 -50.3399 H              1 RES1               0.0000
     20 H20          9.2921 -14.9489 -46.5496 H              1 RES1               0.0000
     21 H21         12.9095 -14.0084 -48.6398 H              1 RES1               0.0000
     22 H22          8.7245 -17.7669 -48.8255 H              1 RES1               0.0000
     23 H23          6.9648 -14.1154 -49.0878 H              1 RES1               0.0000
     24 H24         11.0027 -14.2842 -52.4989 H              1 RES1               0.0000
     25 H25         10.2098 -15.6833 -51.7787 H              1 RES1               0.0000
     26 H26          9.4400 -14.0999 -51.7057 H              1 RES1               0.0000
     27 H27         10.4288 -14.5324 -44.4145 H              1 RES1               0.0000
     28 H28         14.0288 -13.5956 -46.4984 H              1 RES1               0.0000
     29 H29         12.7989 -13.8554 -44.3785 H              1 RES1               0.0000
@<TRIPOS>BOND
    1    1    2 1     
    2    1    3 1     
    3    1    4 1     
    4    1    5 1     
    5    2    6 ar    
    6    2    7 ar    
    7    3    8 1     
    8    3    9 2     
    9    4   10 1     
   10    4   11 2     
   11    5   12 1     
   12    5   18 1     
   13    5   19 1     
   14    6   13 ar    
   15    6   20 1     
   16    7   14 ar    
   17    7   21 1     
   18    8   15 1     
   19    8   22 1     
   20   10   15 1     
   21   10   23 1     
   22   12   24 1     
   23   12   25 1     
   24   12   26 1     
   25   13   16 ar    
   26   13   27 1     
   27   14   16 ar    
   28   14   28 1     
   29   15   17 2     
   30   16   29 1     
@<TRIPOS>SUBSTRUCTURE
      1 RES1           1
@<TRIPOS>SET
DONOR_HYDROGENS      STATIC     ATOMS    <user>   **** ""
2 22 23
ATOM$RED        STATIC     ATOMS    COLORGROUP SYSTEM
2 22 23
@<TRIPOS>COMMENT
> <Gold.Version>
2022.3.0

> <Gold.Id.Protein>
unknown|7kl0_clean|pdb

> <Gold.Protein.RotatedTorsions>
[ 3255 3234 3235 3236 ] final -104.53 input   29.64 | X-H torsion
[ 3263 3245 3244 3242 ] final -142.11 input   60.01 | X-H torsion
[ 3290 3276 3277 3278 ] final  -62.12 input   80.30 | X-H torsion
[ 3319 3312 3313 3314 ] final  108.54 input  125.66 | X-H torsion
[ 6344 6325 6326 6327 ] final  -47.40 input   95.32 | X-H torsion
[ 6378 6362 6363 6364 ] final -126.15 input   48.34 | X-H torsion
[ 6398 6391 6392 6393 ] final  -25.36 input  -98.70 | X-H torsion
[ 7269 7260 7261 7262 ] final  145.13 input  118.90 | X-H torsion
[ 7309 7295 7296 7297 ] final   43.79 input   89.68 | X-H torsion
[ 7345 7337 7338 7339 ] final   91.08 input  116.36 | X-H torsion
[ 7367 7360 7361 7362 ] final   -4.52 input   69.83 | X-H torsion
[ 7373 7366 7364 7361 ] final -152.91 input   60.03 | X-H torsion
[ 7395 7388 7389 7390 ] final  -94.10 input   93.08 | X-H torsion
[ 3352 3337 3338 3339 ] final  115.94 input  120.41 | X-H torsion
[ 3327 3317 3316 3313 ] final  155.99 input   60.01 | X-H torsion
[ 7427 7420 7421 7422 ] final -135.47 input  116.71 | X-H torsion
[ 8541 3279 3278 3277 ] final   16.72 input   -0.00 | X-H torsion
[ 8546 6290 6289 6288 ] final  -70.53 input    0.00 | X-H torsion
[ 8549 6328 6327 6326 ] final  174.07 input    0.00 | X-H torsion
[ 8552 6365 6364 6363 ] final   77.97 input    0.00 | X-H torsion
[ 8555 7183 7182 7181 ] final  -60.21 input   -0.00 | X-H torsion
[ 8557 7233 7232 7231 ] final -125.64 input   -0.00 | X-H torsion
[ 8560 7263 7262 7261 ] final   24.91 input    0.00 | X-H torsion
[ 8567 7298 7297 7296 ] final  -56.61 input    0.00 | X-H torsion
[ 8571 7363 7362 7361 ] final   65.81 input   -0.00 | X-H torsion
[ 8576 7340 7339 7338 ] final   42.85 input   -0.00 | X-H torsion
[ 8578 7391 7390 7389 ] final  150.17 input    0.00 | X-H torsion
[ 8580 3204 3203 3202 ] final  -34.44 input   -0.00 | X-H torsion
[ 8582 3237 3236 3235 ] final    9.37 input    0.00 | X-H torsion
[ 8584 3315 3314 3313 ] final   16.48 input    0.00 | X-H torsion

> <Gold.Protein.ActiveResidues>
 GLU105  TYR106  TYR107  SER108  GLU109  ALA112  LEU206  LEU207  VAL208  GLY209 
 TYR210  PRO233  SER234  PRO235  GLU236  TRP237  ASP238  THR239  VAL240  THR241 
 LYS245 

> <Gold.Protein.RotatedAtoms>
    8.4598  -18.5915  -41.2826 H   0  0  0  0  0  0  0  0  0  0  0  0  # atno 3255 bound_to 3234
   13.9657  -18.6261  -46.1959 H   0  0  0  0  0  0  0  0  0  0  0  0  # atno 3263 bound_to 3245
    7.5291  -19.1120  -44.8438 H   0  0  0  0  0  0  0  0  0  0  0  0  # atno 3290 bound_to 3276
    6.8784  -21.6529  -47.8705 H   0  0  0  0  0  0  0  0  0  0  0  0  # atno 3319 bound_to 3312
    6.3866  -23.2488  -51.1845 H   0  0  0  0  0  0  0  0  0  0  0  0  # atno 3327 bound_to 3317
    6.5754  -19.1886  -51.8425 H   0  0  0  0  0  0  0  0  0  0  0  0  # atno 3352 bound_to 3337
    4.1697  -15.5194  -44.7024 H   0  0  0  0  0  0  0  0  0  0  0  0  # atno 6344 bound_to 6325
    6.3374  -14.2451  -45.7733 H   0  0  0  0  0  0  0  0  0  0  0  0  # atno 6378 bound_to 6362
    6.2703  -12.8675  -42.4412 H   0  0  0  0  0  0  0  0  0  0  0  0  # atno 6398 bound_to 6391
   13.8396   -8.1593  -47.4855 H   0  0  0  0  0  0  0  0  0  0  0  0  # atno 7269 bound_to 7260
   11.6654   -7.9858  -49.7104 H   0  0  0  0  0  0  0  0  0  0  0  0  # atno 7309 bound_to 7295
   12.0655   -8.5223  -51.4975 H   0  0  0  0  0  0  0  0  0  0  0  0  # atno 7345 bound_to 7337
   10.7157   -9.9202  -53.4059 H   0  0  0  0  0  0  0  0  0  0  0  0  # atno 7367 bound_to 7360
   13.1338  -12.7572  -51.8646 H   0  0  0  0  0  0  0  0  0  0  0  0  # atno 7373 bound_to 7366
    9.8709  -12.2086  -54.0547 H   0  0  0  0  0  0  0  0  0  0  0  0  # atno 7395 bound_to 7388
    7.2697  -12.4772  -55.5500 H   0  0  0  0  0  0  0  0  0  0  0  0  # atno 7427 bound_to 7420
    9.8012  -18.6473  -42.4103 LP  0  0  0  0  0  0  0  0  0  0  0  0  # atno 8537 bound_to 3234
   13.6172  -17.5592  -47.3744 LP  0  0  0  0  0  0  0  0  0  0  0  0  # atno 8538 bound_to 3245
   13.1138  -19.1079  -47.4962 LP  0  0  0  0  0  0  0  0  0  0  0  0  # atno 8539 bound_to 3245
    5.8774  -18.7135  -44.3907 LP  0  0  0  0  0  0  0  0  0  0  0  0  # atno 8540 bound_to 3276
    6.4689  -17.8897  -46.8112 LP  0  0  0  0  0  0  0  0  0  0  0  0  # atno 8541 bound_to 3279
    6.6022  -18.2323  -48.5038 LP  0  0  0  0  0  0  0  0  0  0  0  0  # atno 8542 bound_to 3279
    6.8910  -19.9285  -47.5498 LP  0  0  0  0  0  0  0  0  0  0  0  0  # atno 8543 bound_to 3312
    5.2227  -17.1704  -43.9600 LP  0  0  0  0  0  0  0  0  0  0  0  0  # atno 8546 bound_to 6290
    4.8127  -17.6137  -45.5834 LP  0  0  0  0  0  0  0  0  0  0  0  0  # atno 8547 bound_to 6290
    2.9787  -14.6585  -45.6547 LP  0  0  0  0  0  0  0  0  0  0  0  0  # atno 8548 bound_to 6325
    8.1587  -14.3267  -46.4937 LP  0  0  0  0  0  0  0  0  0  0  0  0  # atno 8549 bound_to 6328
    7.1687  -15.3126  -47.5174 LP  0  0  0  0  0  0  0  0  0  0  0  0  # atno 8550 bound_to 6328
    5.4357  -13.3839  -44.5460 LP  0  0  0  0  0  0  0  0  0  0  0  0  # atno 8551 bound_to 6362
    9.0962  -12.0804  -42.2554 LP  0  0  0  0  0  0  0  0  0  0  0  0  # atno 8552 bound_to 6365
    9.5020  -13.7642  -42.2666 LP  0  0  0  0  0  0  0  0  0  0  0  0  # atno 8553 bound_to 6365
    7.0817  -14.3009  -43.0342 LP  0  0  0  0  0  0  0  0  0  0  0  0  # atno 8554 bound_to 6391
   10.7951   -6.2546  -47.2064 LP  0  0  0  0  0  0  0  0  0  0  0  0  # atno 8555 bound_to 7183
   10.8008   -6.2615  -48.9384 LP  0  0  0  0  0  0  0  0  0  0  0  0  # atno 8556 bound_to 7183
   12.8100   -8.6138  -50.9004 LP  0  0  0  0  0  0  0  0  0  0  0  0  # atno 8557 bound_to 7233
   14.4821   -8.9798  -51.1654 LP  0  0  0  0  0  0  0  0  0  0  0  0  # atno 8558 bound_to 7233
   13.5407   -8.0657  -49.2045 LP  0  0  0  0  0  0  0  0  0  0  0  0  # atno 8559 bound_to 7260
   11.3725  -11.7513  -49.2641 LP  0  0  0  0  0  0  0  0  0  0  0  0  # atno 8560 bound_to 7263
   10.7046  -10.9351  -50.6380 LP  0  0  0  0  0  0  0  0  0  0  0  0  # atno 8561 bound_to 7263
   10.9378   -9.3233  -48.8437 LP  0  0  0  0  0  0  0  0  0  0  0  0  # atno 8566 bound_to 7295
    8.7227   -9.3359  -52.8917 LP  0  0  0  0  0  0  0  0  0  0  0  0  # atno 8567 bound_to 7298
    9.0821   -7.7434  -53.4702 LP  0  0  0  0  0  0  0  0  0  0  0  0  # atno 8568 bound_to 7298
   10.4779   -7.9365  -51.9413 LP  0  0  0  0  0  0  0  0  0  0  0  0  # atno 8569 bound_to 7337
   12.4363   -9.7634  -53.7353 LP  0  0  0  0  0  0  0  0  0  0  0  0  # atno 8570 bound_to 7360
   10.4403  -14.1708  -54.3468 LP  0  0  0  0  0  0  0  0  0  0  0  0  # atno 8571 bound_to 7363
    9.3281  -13.5158  -55.5018 LP  0  0  0  0  0  0  0  0  0  0  0  0  # atno 8572 bound_to 7363
   11.6495  -13.3323  -52.2024 LP  0  0  0  0  0  0  0  0  0  0  0  0  # atno 8573 bound_to 7366
   11.8940  -11.7232  -52.0691 LP  0  0  0  0  0  0  0  0  0  0  0  0  # atno 8574 bound_to 7366
    9.4518  -10.6808  -53.3059 LP  0  0  0  0  0  0  0  0  0  0  0  0  # atno 8575 bound_to 7388
   12.1486   -8.3437  -56.1283 LP  0  0  0  0  0  0  0  0  0  0  0  0  # atno 8576 bound_to 7340
   10.8325   -9.4697  -56.1181 LP  0  0  0  0  0  0  0  0  0  0  0  0  # atno 8577 bound_to 7340
    7.2556  -10.0290  -56.2064 LP  0  0  0  0  0  0  0  0  0  0  0  0  # atno 8578 bound_to 7391
    7.4890   -9.5922  -54.5467 LP  0  0  0  0  0  0  0  0  0  0  0  0  # atno 8579 bound_to 7391
    7.8529  -16.7783  -39.8398 LP  0  0  0  0  0  0  0  0  0  0  0  0  # atno 8580 bound_to 3204
    8.0143  -16.2236  -41.4727 LP  0  0  0  0  0  0  0  0  0  0  0  0  # atno 8581 bound_to 3204
    8.9820  -20.3982  -43.3588 LP  0  0  0  0  0  0  0  0  0  0  0  0  # atno 8582 bound_to 3237
    8.1754  -21.0842  -44.7295 LP  0  0  0  0  0  0  0  0  0  0  0  0  # atno 8583 bound_to 3237
    4.7423  -20.3299  -48.5146 LP  0  0  0  0  0  0  0  0  0  0  0  0  # atno 8584 bound_to 3315
    3.7602  -19.9320  -49.8846 LP  0  0  0  0  0  0  0  0  0  0  0  0  # atno 8585 bound_to 3315
    5.6712  -19.6736  -50.4241 LP  0  0  0  0  0  0  0  0  0  0  0  0  # atno 8586 bound_to 3337
    5.4296  -22.1265  -50.4968 LP  0  0  0  0  0  0  0  0  0  0  0  0  # atno 8587 bound_to 3317
    6.2772  -23.1640  -49.5631 LP  0  0  0  0  0  0  0  0  0  0  0  0  # atno 8588 bound_to 3317

> <Gold.Score>
     Fitness  S(hb_ext) S(vdw_ext)  S(hb_int)    S(int)      intcor
     37.12       0.00      27.64       0.00      -0.89      -0.76

> <Gold.Goldscore.Fitness>
37.1202

> <Gold.Goldscore.Internal.Vdw>
-1.2847

> <Gold.Goldscore.Internal.Torsion>
-0.3687

> <Gold.Goldscore.External.Vdw>
27.6427

> <Gold.Goldscore.Internal.HBond>
0.0000

> <Gold.Goldscore.External.HBond>
0.0000

> <Gold.Goldscore.Internal.Correction>
-0.7650

> <Gold.Goldscore.Internal.Vdw.Weighted>
-1.2847

> <Gold.Goldscore.Internal.Torsion.Weighted>
-0.3687

> <Gold.Goldscore.External.Vdw.Weighted>
38.0087

> <Gold.Goldscore.Internal.HBond.Weighted>
0.0000

> <Gold.Goldscore.External.HBond.Weighted>
0.0000

> <Gold.Goldscore.Internal.Correction.Weighted>
-0.7650

> <Gold.Rescore>
     Score     S(PLP)   S(hbond)     S(cho)   S(metal)  DE(clash)   DE(tors)     intcor
     10.14     -12.05       0.00       0.00       0.00       0.00       0.96       ----

> <Gold.PLP.Fitness>
10.1361

> <Gold.PLP.PLP>
-12.0474

> <Gold.PLP.part.hbond>
-1.0000

> <Gold.PLP.part.metal>
0.0000

> <Gold.PLP.part.buried>
16.7810

> <Gold.PLP.part.nonpolar>
-35.9227

> <Gold.PLP.part.repulsive>
6.8758

> <Gold.PLP.ligand.clash>
0.0000

> <Gold.PLP.ligand.torsion>
0.9556

> <Gold.PLP.Chemscore.Hbond>
0.0000

> <Gold.PLP.Chemscore.CHOScore>
0.0000

> <Gold.PLP.Chemscore.Metal>
0.0000

> <Gold.PLP.Chemscore.Internal.Correction>
   9.000000E+99

