#       Name:                CT1002167954
#       Creating user name   hitesit
#       Creation time:       Sun Apr 16 02:22:44 2023


#       File generated by GOLD software.
#

@<TRIPOS>MOLECULE
CT1002167954|ligand_prepared|mol2|1|dock7
    29    30     1
SMALL
NO_CHARGES


@<TRIPOS>ATOM
      1 C1          13.4906 -14.4871 -48.6067 C.3            1 RES1               0.0000
      2 C2          12.6476 -14.2177 -47.3435 C.ar           1 RES1               0.0000
      3 C3          12.8257 -13.7104 -49.7393 C.2            1 RES1               0.0000
      4 C4          14.9063 -14.0234 -48.2817 C.2            1 RES1               0.0000
      5 C5          13.5567 -15.9794 -49.0071 C.3            1 RES1               0.0000
      6 C6          11.3654 -14.7448 -47.2216 C.ar           1 RES1               0.0000
      7 C7          13.1387 -13.4475 -46.2927 C.ar           1 RES1               0.0000
      8 N8          13.4466 -12.5785 -50.1789 N.am           1 RES1               0.0000
      9 O9          11.7527 -14.0639 -50.2126 O.2            1 RES1               0.0000
     10 N10         15.4078 -12.9552 -48.9782 N.am           1 RES1               0.0000
     11 O11         15.5858 -14.5630 -47.4172 O.2            1 RES1               0.0000
     12 C12         14.3979 -16.2451 -50.2457 C.3            1 RES1               0.0000
     13 C13         10.6029 -14.5129 -46.0889 C.ar           1 RES1               0.0000
     14 C14         12.3743 -13.2166 -45.1609 C.ar           1 RES1               0.0000
     15 C15         14.7309 -12.1925 -49.8905 C.2            1 RES1               0.0000
     16 C16         11.1068 -13.7492 -45.0577 C.ar           1 RES1               0.0000
     17 O17         15.2325 -11.2133 -50.4354 O.2            1 RES1               0.0000
     18 H18         13.9721 -16.5519 -48.1687 H              1 RES1               0.0000
     19 H19         12.5373 -16.3419 -49.1883 H              1 RES1               0.0000
     20 H20         10.9511 -15.3462 -48.0238 H              1 RES1               0.0000
     21 H21         14.1328 -13.0176 -46.3525 H              1 RES1               0.0000
     22 H22         12.9060 -11.9621 -50.7773 H              1 RES1               0.0000
     23 H23         16.3755 -12.7057 -48.8003 H              1 RES1               0.0000
     24 H24         14.4108 -17.3069 -50.4826 H              1 RES1               0.0000
     25 H25         13.9983 -15.7109 -51.1052 H              1 RES1               0.0000
     26 H26         15.4247 -15.9197 -50.0917 H              1 RES1               0.0000
     27 H27          9.6054 -14.9332 -46.0131 H              1 RES1               0.0000
     28 H28         12.7747 -12.6144 -44.3521 H              1 RES1               0.0000
     29 H29         10.5094 -13.5680 -44.1703 H              1 RES1               0.0000
@<TRIPOS>BOND
    1    1    2 1     
    2    1    3 1     
    3    1    4 1     
    4    1    5 1     
    5    2    6 ar    
    6    2    7 ar    
    7    3    8 1     
    8    3    9 2     
    9    4   10 1     
   10    4   11 2     
   11    5   12 1     
   12    5   18 1     
   13    5   19 1     
   14    6   13 ar    
   15    6   20 1     
   16    7   14 ar    
   17    7   21 1     
   18    8   15 1     
   19    8   22 1     
   20   10   15 1     
   21   10   23 1     
   22   12   24 1     
   23   12   25 1     
   24   12   26 1     
   25   13   16 ar    
   26   13   27 1     
   27   14   16 ar    
   28   14   28 1     
   29   15   17 2     
   30   16   29 1     
@<TRIPOS>SUBSTRUCTURE
      1 RES1           1
@<TRIPOS>SET
DONOR_HYDROGENS      STATIC     ATOMS    <user>   **** ""
2 22 23
ATOM$RED        STATIC     ATOMS    COLORGROUP SYSTEM
2 22 23
@<TRIPOS>COMMENT
> <Gold.Version>
2022.3.0

> <Gold.Id.Protein>
unknown|7kl0_clean|pdb

> <Gold.Protein.RotatedTorsions>
[ 3255 3234 3235 3236 ] final  119.83 input   29.64 | X-H torsion
[ 3263 3245 3244 3242 ] final  -30.57 input   60.01 | X-H torsion
[ 3290 3276 3277 3278 ] final  167.47 input   80.30 | X-H torsion
[ 3319 3312 3313 3314 ] final  136.96 input  125.66 | X-H torsion
[ 6344 6325 6326 6327 ] final   29.37 input   95.32 | X-H torsion
[ 6378 6362 6363 6364 ] final   38.58 input   48.34 | X-H torsion
[ 6398 6391 6392 6393 ] final  -78.94 input  -98.70 | X-H torsion
[ 7269 7260 7261 7262 ] final  -43.51 input  118.90 | X-H torsion
[ 7309 7295 7296 7297 ] final  -32.58 input   89.68 | X-H torsion
[ 7345 7337 7338 7339 ] final  -69.08 input  116.36 | X-H torsion
[ 7367 7360 7361 7362 ] final -159.40 input   69.83 | X-H torsion
[ 7373 7366 7364 7361 ] final   43.05 input   60.03 | X-H torsion
[ 7395 7388 7389 7390 ] final  164.78 input   93.08 | X-H torsion
[ 3352 3337 3338 3339 ] final -167.89 input  120.41 | X-H torsion
[ 3327 3317 3316 3313 ] final   41.70 input   60.01 | X-H torsion
[ 7427 7420 7421 7422 ] final   36.56 input  116.71 | X-H torsion
[ 8541 3279 3278 3277 ] final  -18.32 input   -0.00 | X-H torsion
[ 8546 6290 6289 6288 ] final  -67.49 input    0.00 | X-H torsion
[ 8549 6328 6327 6326 ] final  173.06 input    0.00 | X-H torsion
[ 8552 6365 6364 6363 ] final   54.79 input    0.00 | X-H torsion
[ 8555 7183 7182 7181 ] final  -76.03 input   -0.00 | X-H torsion
[ 8557 7233 7232 7231 ] final   77.30 input   -0.00 | X-H torsion
[ 8560 7263 7262 7261 ] final -143.54 input    0.00 | X-H torsion
[ 8567 7298 7297 7296 ] final -149.18 input    0.00 | X-H torsion
[ 8571 7363 7362 7361 ] final   12.61 input   -0.00 | X-H torsion
[ 8576 7340 7339 7338 ] final    5.58 input   -0.00 | X-H torsion
[ 8578 7391 7390 7389 ] final  -42.39 input    0.00 | X-H torsion
[ 8580 3204 3203 3202 ] final  -33.78 input   -0.00 | X-H torsion
[ 8582 3237 3236 3235 ] final  -99.98 input    0.00 | X-H torsion
[ 8584 3315 3314 3313 ] final  144.72 input    0.00 | X-H torsion

> <Gold.Protein.ActiveResidues>
 GLU105  TYR106  TYR107  SER108  GLU109  ALA112  LEU206  LEU207  VAL208  GLY209 
 TYR210  PRO233  SER234  PRO235  GLU236  TRP237  ASP238  THR239  VAL240  THR241 
 LYS245 

> <Gold.Protein.RotatedAtoms>
    9.7302  -18.0262  -42.1867 H   0  0  0  0  0  0  0  0  0  0  0  0  # atno 3255 bound_to 3234
   13.1491  -19.1855  -47.3867 H   0  0  0  0  0  0  0  0  0  0  0  0  # atno 3263 bound_to 3245
    6.1235  -19.3024  -44.0134 H   0  0  0  0  0  0  0  0  0  0  0  0  # atno 3290 bound_to 3276
    7.3049  -21.5549  -47.8239 H   0  0  0  0  0  0  0  0  0  0  0  0  # atno 3319 bound_to 3312
    5.4448  -22.1388  -50.5886 H   0  0  0  0  0  0  0  0  0  0  0  0  # atno 3327 bound_to 3317
    6.3559  -18.5967  -50.9442 H   0  0  0  0  0  0  0  0  0  0  0  0  # atno 3352 bound_to 3337
    3.9640  -14.4325  -44.7259 H   0  0  0  0  0  0  0  0  0  0  0  0  # atno 6344 bound_to 6325
    5.4775  -13.5607  -44.3978 H   0  0  0  0  0  0  0  0  0  0  0  0  # atno 6378 bound_to 6362
    5.8073  -13.4994  -42.6151 H   0  0  0  0  0  0  0  0  0  0  0  0  # atno 6398 bound_to 6391
   13.6471   -8.1391  -49.2379 H   0  0  0  0  0  0  0  0  0  0  0  0  # atno 7269 bound_to 7260
   11.7481   -9.0645  -49.9269 H   0  0  0  0  0  0  0  0  0  0  0  0  # atno 7309 bound_to 7295
   10.4273   -8.2208  -52.0331 H   0  0  0  0  0  0  0  0  0  0  0  0  # atno 7345 bound_to 7337
   12.3228   -9.6599  -54.0949 H   0  0  0  0  0  0  0  0  0  0  0  0  # atno 7367 bound_to 7360
   11.3190  -12.7114  -52.2427 H   0  0  0  0  0  0  0  0  0  0  0  0  # atno 7373 bound_to 7366
    9.7197  -11.6399  -52.8071 H   0  0  0  0  0  0  0  0  0  0  0  0  # atno 7395 bound_to 7388
    5.7230  -12.2219  -54.7048 H   0  0  0  0  0  0  0  0  0  0  0  0  # atno 7427 bound_to 7420
    8.5851  -19.1884  -41.5447 LP  0  0  0  0  0  0  0  0  0  0  0  0  # atno 8537 bound_to 3234
   14.0093  -18.4945  -46.1904 LP  0  0  0  0  0  0  0  0  0  0  0  0  # atno 8538 bound_to 3245
   13.5438  -17.6095  -47.4815 LP  0  0  0  0  0  0  0  0  0  0  0  0  # atno 8539 bound_to 3245
    7.2002  -18.5343  -45.1721 LP  0  0  0  0  0  0  0  0  0  0  0  0  # atno 8540 bound_to 3276
    5.9853  -17.9327  -47.0012 LP  0  0  0  0  0  0  0  0  0  0  0  0  # atno 8541 bound_to 3279
    7.0858  -18.1894  -48.3138 LP  0  0  0  0  0  0  0  0  0  0  0  0  # atno 8542 bound_to 3279
    6.4833  -20.0223  -47.5944 LP  0  0  0  0  0  0  0  0  0  0  0  0  # atno 8543 bound_to 3312
    5.1911  -17.2003  -43.9452 LP  0  0  0  0  0  0  0  0  0  0  0  0  # atno 8546 bound_to 6290
    4.8444  -17.5838  -45.5983 LP  0  0  0  0  0  0  0  0  0  0  0  0  # atno 8547 bound_to 6290
    3.1773  -15.7078  -45.6319 LP  0  0  0  0  0  0  0  0  0  0  0  0  # atno 8548 bound_to 6325
    8.1563  -14.3149  -46.5031 LP  0  0  0  0  0  0  0  0  0  0  0  0  # atno 8549 bound_to 6328
    7.1710  -15.3245  -47.5080 LP  0  0  0  0  0  0  0  0  0  0  0  0  # atno 8550 bound_to 6328
    6.2696  -14.0475  -45.8799 LP  0  0  0  0  0  0  0  0  0  0  0  0  # atno 8551 bound_to 6362
    9.2473  -12.1138  -42.5669 LP  0  0  0  0  0  0  0  0  0  0  0  0  # atno 8552 bound_to 6365
    9.3509  -13.7309  -41.9550 LP  0  0  0  0  0  0  0  0  0  0  0  0  # atno 8553 bound_to 6365
    7.5292  -13.6902  -42.8661 LP  0  0  0  0  0  0  0  0  0  0  0  0  # atno 8554 bound_to 6391
   11.0266   -6.3015  -47.2382 LP  0  0  0  0  0  0  0  0  0  0  0  0  # atno 8555 bound_to 7183
   10.5693   -6.2146  -48.9065 LP  0  0  0  0  0  0  0  0  0  0  0  0  # atno 8556 bound_to 7183
   14.3707   -9.2708  -51.0185 LP  0  0  0  0  0  0  0  0  0  0  0  0  # atno 8557 bound_to 7233
   12.9214   -8.3228  -51.0473 LP  0  0  0  0  0  0  0  0  0  0  0  0  # atno 8558 bound_to 7233
   13.7288   -8.0854  -47.4933 LP  0  0  0  0  0  0  0  0  0  0  0  0  # atno 8559 bound_to 7260
   10.8648  -10.9527  -50.7043 LP  0  0  0  0  0  0  0  0  0  0  0  0  # atno 8560 bound_to 7263
   11.2123  -11.7336  -49.1978 LP  0  0  0  0  0  0  0  0  0  0  0  0  # atno 8561 bound_to 7263
   10.8581   -8.2844  -48.6351 LP  0  0  0  0  0  0  0  0  0  0  0  0  # atno 8566 bound_to 7295
    9.5023   -8.8332  -53.7323 LP  0  0  0  0  0  0  0  0  0  0  0  0  # atno 8567 bound_to 7298
    8.3025   -8.2462  -52.6296 LP  0  0  0  0  0  0  0  0  0  0  0  0  # atno 8568 bound_to 7298
   12.0666   -8.2289  -51.4219 LP  0  0  0  0  0  0  0  0  0  0  0  0  # atno 8569 bound_to 7337
   10.9242  -10.0083  -53.0870 LP  0  0  0  0  0  0  0  0  0  0  0  0  # atno 8570 bound_to 7360
   10.7390  -13.9399  -55.0244 LP  0  0  0  0  0  0  0  0  0  0  0  0  # atno 8571 bound_to 7363
    9.0295  -13.7466  -54.8242 LP  0  0  0  0  0  0  0  0  0  0  0  0  # atno 8572 bound_to 7363
   12.5858  -11.7407  -51.9250 LP  0  0  0  0  0  0  0  0  0  0  0  0  # atno 8573 bound_to 7366
   12.7851  -13.3609  -51.9658 LP  0  0  0  0  0  0  0  0  0  0  0  0  # atno 8574 bound_to 7366
    9.5972  -11.2278  -54.5058 LP  0  0  0  0  0  0  0  0  0  0  0  0  # atno 8575 bound_to 7388
   11.6782   -8.0652  -56.0414 LP  0  0  0  0  0  0  0  0  0  0  0  0  # atno 8576 bound_to 7340
   11.3029   -9.7481  -56.2051 LP  0  0  0  0  0  0  0  0  0  0  0  0  # atno 8577 bound_to 7340
    7.3022   -9.5597  -54.5506 LP  0  0  0  0  0  0  0  0  0  0  0  0  # atno 8578 bound_to 7391
    7.4424  -10.0615  -56.2025 LP  0  0  0  0  0  0  0  0  0  0  0  0  # atno 8579 bound_to 7391
    7.8613  -16.7733  -39.8373 LP  0  0  0  0  0  0  0  0  0  0  0  0  # atno 8580 bound_to 3204
    8.0059  -16.2286  -41.4751 LP  0  0  0  0  0  0  0  0  0  0  0  0  # atno 8581 bound_to 3204
    8.9917  -20.5052  -44.7679 LP  0  0  0  0  0  0  0  0  0  0  0  0  # atno 8582 bound_to 3237
    8.1657  -20.9773  -43.3205 LP  0  0  0  0  0  0  0  0  0  0  0  0  # atno 8583 bound_to 3237
    3.9603  -19.3523  -49.4424 LP  0  0  0  0  0  0  0  0  0  0  0  0  # atno 8584 bound_to 3315
    4.5422  -20.9096  -48.9567 LP  0  0  0  0  0  0  0  0  0  0  0  0  # atno 8585 bound_to 3315
    5.8835  -20.2459  -51.2927 LP  0  0  0  0  0  0  0  0  0  0  0  0  # atno 8586 bound_to 3337
    6.2210  -23.0979  -49.5275 LP  0  0  0  0  0  0  0  0  0  0  0  0  # atno 8587 bound_to 3317
    6.4343  -23.3106  -51.1325 LP  0  0  0  0  0  0  0  0  0  0  0  0  # atno 8588 bound_to 3317

> <Gold.Score>
     Fitness  S(hb_ext) S(vdw_ext)  S(hb_int)    S(int)      intcor
     26.37       0.02      20.59       0.00      -1.96      -0.76

> <Gold.Goldscore.Fitness>
26.3671

> <Gold.Goldscore.Internal.Vdw>
-2.3609

> <Gold.Goldscore.Internal.Torsion>
-0.3667

> <Gold.Goldscore.External.Vdw>
20.5884

> <Gold.Goldscore.Internal.HBond>
0.0000

> <Gold.Goldscore.External.HBond>
0.0208

> <Gold.Goldscore.Internal.Correction>
-0.7650

> <Gold.Goldscore.Hbonds>
donor molecule, donor type, donor heavy atom, donor atom, acceptor molecule, acceptor atom, score
      L1  H     8    22       P1  7366  0.01

> <Gold.Goldscore.Internal.Vdw.Weighted>
-2.3609

> <Gold.Goldscore.Internal.Torsion.Weighted>
-0.3667

> <Gold.Goldscore.External.Vdw.Weighted>
28.3090

> <Gold.Goldscore.Internal.HBond.Weighted>
0.0000

> <Gold.Goldscore.External.HBond.Weighted>
0.0208

> <Gold.Goldscore.Internal.Correction.Weighted>
-0.7650

> <Gold.Rescore>
     Score     S(PLP)   S(hbond)     S(cho)   S(metal)  DE(clash)   DE(tors)     intcor
     35.77     -35.66       0.62       0.00       0.00       1.12       0.32       ----

> <Gold.PLP.Fitness>
35.7715

> <Gold.PLP.PLP>
-35.6643

> <Gold.PLP.part.hbond>
-2.4654

> <Gold.PLP.part.metal>
0.0000

> <Gold.PLP.part.buried>
-1.2971

> <Gold.PLP.part.nonpolar>
-32.1477

> <Gold.PLP.part.repulsive>
0.2011

> <Gold.PLP.ligand.clash>
1.1190

> <Gold.PLP.ligand.torsion>
0.3229

> <Gold.PLP.Chemscore.Hbond>
0.6240

> <Gold.PLP.Chemscore.CHOScore>
0.0000

> <Gold.PLP.Chemscore.Metal>
0.0000

> <Gold.Chemscore.Hbonds>
donor molecule, donor type, donor heavy atom, donor atom, acceptor molecule, acceptor atom, score
      L1  H     8    22       P1  7366  0.38

> <Gold.PLP.Chemscore.Internal.Correction>
   9.000000E+99

