#       Name:                CT1002167954
#       Creating user name   hitesit
#       Creation time:       Sun Apr 16 02:22:45 2023


#       File generated by GOLD software.
#

@<TRIPOS>MOLECULE
CT1002167954|ligand_prepared|mol2|1|dock9
    29    30     1
SMALL
NO_CHARGES


@<TRIPOS>ATOM
      1 C1          11.5311 -14.6421 -48.2042 C.3            1 RES1               0.0000
      2 C2          11.6926 -14.2764 -46.7146 C.ar           1 RES1               0.0000
      3 C3          11.2827 -13.3303 -48.9429 C.2            1 RES1               0.0000
      4 C4          12.8180 -15.3512 -48.6113 C.2            1 RES1               0.0000
      5 C5          10.3487 -15.5974 -48.4885 C.3            1 RES1               0.0000
      6 C6          12.8643 -13.6838 -46.2534 C.ar           1 RES1               0.0000
      7 C7          10.6794 -14.5226 -45.7919 C.ar           1 RES1               0.0000
      8 N8          12.3017 -12.8266 -49.6965 N.am           1 RES1               0.0000
      9 O9          10.2224 -12.7266 -48.8343 O.2            1 RES1               0.0000
     10 N10         13.6266 -14.7364 -49.5312 N.am           1 RES1               0.0000
     11 O11         13.1473 -16.4290 -48.1315 O.2            1 RES1               0.0000
     12 C12         10.3425 -16.1621 -49.9003 C.3            1 RES1               0.0000
     13 C13         13.0166 -13.3468 -44.9187 C.ar           1 RES1               0.0000
     14 C14         10.8339 -14.1850 -44.4574 C.ar           1 RES1               0.0000
     15 C15         13.4419 -13.4920 -50.0692 C.2            1 RES1               0.0000
     16 C16         12.0015 -13.5967 -44.0199 C.ar           1 RES1               0.0000
     17 O17         14.2421 -12.9839 -50.8494 O.2            1 RES1               0.0000
     18 H18         10.3882 -16.4300 -47.7753 H              1 RES1               0.0000
     19 H19          9.4093 -15.0563 -48.3205 H              1 RES1               0.0000
     20 H20         13.6750 -13.4818 -46.9455 H              1 RES1               0.0000
     21 H21          9.7526 -14.9855 -46.1133 H              1 RES1               0.0000
     22 H22         12.2074 -11.8665 -50.0119 H              1 RES1               0.0000
     23 H23         14.4415 -15.2546 -49.8438 H              1 RES1               0.0000
     24 H24          9.4927 -16.8256 -50.0465 H              1 RES1               0.0000
     25 H25         10.2784 -15.3625 -50.6353 H              1 RES1               0.0000
     26 H26         11.2515 -16.7280 -50.0934 H              1 RES1               0.0000
     27 H27         13.9380 -12.8853 -44.5791 H              1 RES1               0.0000
     28 H28         10.0326 -14.3841 -43.7535 H              1 RES1               0.0000
     29 H29         12.1208 -13.3323 -42.9745 H              1 RES1               0.0000
@<TRIPOS>BOND
    1    1    2 1     
    2    1    3 1     
    3    1    4 1     
    4    1    5 1     
    5    2    6 ar    
    6    2    7 ar    
    7    3    8 1     
    8    3    9 2     
    9    4   10 1     
   10    4   11 2     
   11    5   12 1     
   12    5   18 1     
   13    5   19 1     
   14    6   13 ar    
   15    6   20 1     
   16    7   14 ar    
   17    7   21 1     
   18    8   15 1     
   19    8   22 1     
   20   10   15 1     
   21   10   23 1     
   22   12   24 1     
   23   12   25 1     
   24   12   26 1     
   25   13   16 ar    
   26   13   27 1     
   27   14   16 ar    
   28   14   28 1     
   29   15   17 2     
   30   16   29 1     
@<TRIPOS>SUBSTRUCTURE
      1 RES1           1
@<TRIPOS>SET
DONOR_HYDROGENS      STATIC     ATOMS    <user>   **** ""
2 22 23
ATOM$RED        STATIC     ATOMS    COLORGROUP SYSTEM
2 22 23
@<TRIPOS>COMMENT
> <Gold.Version>
2022.3.0

> <Gold.Id.Protein>
unknown|7kl0_clean|pdb

> <Gold.Protein.RotatedTorsions>
[ 3255 3234 3235 3236 ] final   11.05 input   29.64 | X-H torsion
[ 3263 3245 3244 3242 ] final   -2.38 input   60.01 | X-H torsion
[ 3290 3276 3277 3278 ] final  -51.06 input   80.30 | X-H torsion
[ 3319 3312 3313 3314 ] final -131.53 input  125.66 | X-H torsion
[ 6344 6325 6326 6327 ] final   81.37 input   95.32 | X-H torsion
[ 6378 6362 6363 6364 ] final -130.82 input   48.34 | X-H torsion
[ 6398 6391 6392 6393 ] final   58.36 input  -98.70 | X-H torsion
[ 7269 7260 7261 7262 ] final   73.23 input  118.90 | X-H torsion
[ 7309 7295 7296 7297 ] final   14.40 input   89.68 | X-H torsion
[ 7345 7337 7338 7339 ] final -161.60 input  116.36 | X-H torsion
[ 7367 7360 7361 7362 ] final   59.52 input   69.83 | X-H torsion
[ 7373 7366 7364 7361 ] final   -4.33 input   60.03 | X-H torsion
[ 7395 7388 7389 7390 ] final  -85.77 input   93.08 | X-H torsion
[ 3352 3337 3338 3339 ] final  -34.20 input  120.41 | X-H torsion
[ 3327 3317 3316 3313 ] final  -44.84 input   60.01 | X-H torsion
[ 7427 7420 7421 7422 ] final -104.65 input  116.71 | X-H torsion
[ 8541 3279 3278 3277 ] final   71.77 input   -0.00 | X-H torsion
[ 8546 6290 6289 6288 ] final  -70.93 input    0.00 | X-H torsion
[ 8549 6328 6327 6326 ] final  137.65 input    0.00 | X-H torsion
[ 8552 6365 6364 6363 ] final  131.62 input    0.00 | X-H torsion
[ 8555 7183 7182 7181 ] final -110.75 input   -0.00 | X-H torsion
[ 8557 7233 7232 7231 ] final   12.26 input   -0.00 | X-H torsion
[ 8560 7263 7262 7261 ] final  140.51 input    0.00 | X-H torsion
[ 8567 7298 7297 7296 ] final -126.03 input    0.00 | X-H torsion
[ 8571 7363 7362 7361 ] final  -94.83 input   -0.00 | X-H torsion
[ 8576 7340 7339 7338 ] final   42.24 input   -0.00 | X-H torsion
[ 8578 7391 7390 7389 ] final   -4.19 input    0.00 | X-H torsion
[ 8580 3204 3203 3202 ] final -103.78 input   -0.00 | X-H torsion
[ 8582 3237 3236 3235 ] final  -43.31 input    0.00 | X-H torsion
[ 8584 3315 3314 3313 ] final -100.78 input    0.00 | X-H torsion

> <Gold.Protein.ActiveResidues>
 GLU105  TYR106  TYR107  SER108  GLU109  ALA112  LEU206  LEU207  VAL208  GLY209 
 TYR210  PRO233  SER234  PRO235  GLU236  TRP237  ASP238  THR239  VAL240  THR241 
 LYS245 

> <Gold.Protein.RotatedAtoms>
    9.2739  -19.4068  -42.2671 H   0  0  0  0  0  0  0  0  0  0  0  0  # atno 3255 bound_to 3234
   13.0723  -18.8563  -47.6928 H   0  0  0  0  0  0  0  0  0  0  0  0  # atno 3263 bound_to 3245
    7.5095  -18.9847  -44.9616 H   0  0  0  0  0  0  0  0  0  0  0  0  # atno 3290 bound_to 3276
    7.6652  -20.3422  -47.6011 H   0  0  0  0  0  0  0  0  0  0  0  0  # atno 3319 bound_to 3312
    5.8755  -22.6820  -49.5086 H   0  0  0  0  0  0  0  0  0  0  0  0  # atno 3327 bound_to 3317
    5.6299  -20.0404  -50.6857 H   0  0  0  0  0  0  0  0  0  0  0  0  # atno 3352 bound_to 3337
    3.4020  -14.2058  -45.2187 H   0  0  0  0  0  0  0  0  0  0  0  0  # atno 6344 bound_to 6325
    6.3283  -14.1875  -45.8162 H   0  0  0  0  0  0  0  0  0  0  0  0  # atno 6378 bound_to 6362
    7.4183  -13.1071  -42.6312 H   0  0  0  0  0  0  0  0  0  0  0  0  # atno 6398 bound_to 6391
   13.0269   -7.6992  -47.9386 H   0  0  0  0  0  0  0  0  0  0  0  0  # atno 7269 bound_to 7260
   11.8053   -8.3555  -49.9312 H   0  0  0  0  0  0  0  0  0  0  0  0  # atno 7309 bound_to 7295
   11.2478   -7.3504  -51.5683 H   0  0  0  0  0  0  0  0  0  0  0  0  # atno 7345 bound_to 7337
   11.3824  -10.2380  -52.7920 H   0  0  0  0  0  0  0  0  0  0  0  0  # atno 7367 bound_to 7360
   11.5285  -11.9933  -52.1622 H   0  0  0  0  0  0  0  0  0  0  0  0  # atno 7373 bound_to 7366
    9.8507  -12.1481  -54.1676 H   0  0  0  0  0  0  0  0  0  0  0  0  # atno 7395 bound_to 7388
    7.2384  -12.0243  -55.4122 H   0  0  0  0  0  0  0  0  0  0  0  0  # atno 7427 bound_to 7420
    9.0219  -17.8668  -41.4678 LP  0  0  0  0  0  0  0  0  0  0  0  0  # atno 8537 bound_to 3234
   13.8491  -18.9185  -46.2642 LP  0  0  0  0  0  0  0  0  0  0  0  0  # atno 8538 bound_to 3245
   13.7812  -17.5170  -47.0995 LP  0  0  0  0  0  0  0  0  0  0  0  0  # atno 8539 bound_to 3245
    5.8958  -18.8333  -44.2797 LP  0  0  0  0  0  0  0  0  0  0  0  0  # atno 8540 bound_to 3276
    7.2051  -17.9458  -47.1204 LP  0  0  0  0  0  0  0  0  0  0  0  0  # atno 8541 bound_to 3279
    5.8660  -18.1762  -48.1946 LP  0  0  0  0  0  0  0  0  0  0  0  0  # atno 8542 bound_to 3279
    6.1389  -21.1815  -47.8073 LP  0  0  0  0  0  0  0  0  0  0  0  0  # atno 8543 bound_to 3312
    5.2268  -17.1665  -43.9622 LP  0  0  0  0  0  0  0  0  0  0  0  0  # atno 8546 bound_to 6290
    4.8086  -17.6175  -45.5813 LP  0  0  0  0  0  0  0  0  0  0  0  0  # atno 8547 bound_to 6290
    3.7199  -15.9267  -45.1563 LP  0  0  0  0  0  0  0  0  0  0  0  0  # atno 8548 bound_to 6325
    7.9865  -14.0222  -46.9067 LP  0  0  0  0  0  0  0  0  0  0  0  0  # atno 8549 bound_to 6328
    7.3408  -15.6171  -47.1043 LP  0  0  0  0  0  0  0  0  0  0  0  0  # atno 8550 bound_to 6328
    5.4446  -13.4397  -44.5044 LP  0  0  0  0  0  0  0  0  0  0  0  0  # atno 8551 bound_to 6362
    8.9031  -12.4940  -41.6209 LP  0  0  0  0  0  0  0  0  0  0  0  0  # atno 8552 bound_to 6365
    9.6951  -13.3507  -42.9011 LP  0  0  0  0  0  0  0  0  0  0  0  0  # atno 8553 bound_to 6365
    5.9724  -14.0693  -42.8506 LP  0  0  0  0  0  0  0  0  0  0  0  0  # atno 8554 bound_to 6391
   11.4515   -6.3884  -47.5193 LP  0  0  0  0  0  0  0  0  0  0  0  0  # atno 8555 bound_to 7183
   10.1444   -6.1278  -48.6254 LP  0  0  0  0  0  0  0  0  0  0  0  0  # atno 8556 bound_to 7183
   14.3442   -8.4072  -51.3659 LP  0  0  0  0  0  0  0  0  0  0  0  0  # atno 8557 bound_to 7233
   12.9480   -9.1864  -50.7000 LP  0  0  0  0  0  0  0  0  0  0  0  0  # atno 8558 bound_to 7233
   14.3344   -8.5150  -48.7620 LP  0  0  0  0  0  0  0  0  0  0  0  0  # atno 8559 bound_to 7260
   10.2031  -11.1245  -49.8867 LP  0  0  0  0  0  0  0  0  0  0  0  0  # atno 8560 bound_to 7263
   11.8740  -11.5618  -50.0154 LP  0  0  0  0  0  0  0  0  0  0  0  0  # atno 8561 bound_to 7263
   10.8030   -8.9673  -48.6310 LP  0  0  0  0  0  0  0  0  0  0  0  0  # atno 8566 bound_to 7295
    9.3939   -9.1280  -53.5839 LP  0  0  0  0  0  0  0  0  0  0  0  0  # atno 8567 bound_to 7298
    8.4109   -7.9514  -52.7780 LP  0  0  0  0  0  0  0  0  0  0  0  0  # atno 8568 bound_to 7298
   11.2709   -9.0731  -51.8727 LP  0  0  0  0  0  0  0  0  0  0  0  0  # atno 8569 bound_to 7337
   11.8090   -9.4644  -54.3129 LP  0  0  0  0  0  0  0  0  0  0  0  0  # atno 8570 bound_to 7360
    9.5755  -13.4931  -55.6537 LP  0  0  0  0  0  0  0  0  0  0  0  0  # atno 8571 bound_to 7363
   10.1929  -14.1934  -54.1948 LP  0  0  0  0  0  0  0  0  0  0  0  0  # atno 8572 bound_to 7363
   13.0960  -12.2951  -51.8463 LP  0  0  0  0  0  0  0  0  0  0  0  0  # atno 8573 bound_to 7366
   12.0640  -13.5295  -52.1256 LP  0  0  0  0  0  0  0  0  0  0  0  0  # atno 8574 bound_to 7366
    9.4713  -10.7391  -53.1974 LP  0  0  0  0  0  0  0  0  0  0  0  0  # atno 8575 bound_to 7388
   12.1427   -8.3368  -56.1268 LP  0  0  0  0  0  0  0  0  0  0  0  0  # atno 8576 bound_to 7340
   10.8385   -9.4765  -56.1197 LP  0  0  0  0  0  0  0  0  0  0  0  0  # atno 8577 bound_to 7340
    7.8432   -9.6888  -54.6601 LP  0  0  0  0  0  0  0  0  0  0  0  0  # atno 8578 bound_to 7391
    6.9014   -9.9325  -56.0931 LP  0  0  0  0  0  0  0  0  0  0  0  0  # atno 8579 bound_to 7391
    7.2288  -16.9968  -40.5700 LP  0  0  0  0  0  0  0  0  0  0  0  0  # atno 8580 bound_to 3204
    8.6384  -16.0051  -40.7424 LP  0  0  0  0  0  0  0  0  0  0  0  0  # atno 8581 bound_to 3204
    9.2839  -20.2386  -44.0472 LP  0  0  0  0  0  0  0  0  0  0  0  0  # atno 8582 bound_to 3237
    7.8735  -21.2439  -44.0411 LP  0  0  0  0  0  0  0  0  0  0  0  0  # atno 8583 bound_to 3237
    4.0117  -20.7818  -49.7183 LP  0  0  0  0  0  0  0  0  0  0  0  0  # atno 8584 bound_to 3315
    4.4908  -19.4801  -48.6809 LP  0  0  0  0  0  0  0  0  0  0  0  0  # atno 8585 bound_to 3315
    6.5855  -18.8499  -51.5427 LP  0  0  0  0  0  0  0  0  0  0  0  0  # atno 8586 bound_to 3337
    6.6165  -23.5403  -50.6757 LP  0  0  0  0  0  0  0  0  0  0  0  0  # atno 8587 bound_to 3317
    5.6051  -22.3211  -51.0721 LP  0  0  0  0  0  0  0  0  0  0  0  0  # atno 8588 bound_to 3317

> <Gold.Score>
     Fitness  S(hb_ext) S(vdw_ext)  S(hb_int)    S(int)      intcor
     29.98       0.13      21.80       0.00      -0.13      -0.76

> <Gold.Goldscore.Fitness>
29.9752

> <Gold.Goldscore.Internal.Vdw>
-0.3490

> <Gold.Goldscore.Internal.Torsion>
-0.5464

> <Gold.Goldscore.External.Vdw>
21.8028

> <Gold.Goldscore.Internal.HBond>
0.0000

> <Gold.Goldscore.External.HBond>
0.1267

> <Gold.Goldscore.Internal.Correction>
-0.7650

> <Gold.Goldscore.Hbonds>
donor molecule, donor type, donor heavy atom, donor atom, acceptor molecule, acceptor atom, score
      L1  H     8    22       P1  7263  0.06

> <Gold.Goldscore.Internal.Vdw.Weighted>
-0.3490

> <Gold.Goldscore.Internal.Torsion.Weighted>
-0.5464

> <Gold.Goldscore.External.Vdw.Weighted>
29.9789

> <Gold.Goldscore.Internal.HBond.Weighted>
0.0000

> <Gold.Goldscore.External.HBond.Weighted>
0.1267

> <Gold.Goldscore.Internal.Correction.Weighted>
-0.7650

> <Gold.Rescore>
     Score     S(PLP)   S(hbond)     S(cho)   S(metal)  DE(clash)   DE(tors)     intcor
     30.20     -32.59       0.04       0.00       0.00       1.85       0.33       ----

> <Gold.PLP.Fitness>
30.1966

> <Gold.PLP.PLP>
-32.5936

> <Gold.PLP.part.hbond>
-3.0023

> <Gold.PLP.part.metal>
0.0000

> <Gold.PLP.part.buried>
-0.8323

> <Gold.PLP.part.nonpolar>
-31.8642

> <Gold.PLP.part.repulsive>
3.2863

> <Gold.PLP.ligand.clash>
1.8494

> <Gold.PLP.ligand.torsion>
0.3283

> <Gold.PLP.Chemscore.Hbond>
0.0363

> <Gold.PLP.Chemscore.CHOScore>
0.0000

> <Gold.PLP.Chemscore.Metal>
0.0000

> <Gold.Chemscore.Hbonds>
donor molecule, donor type, donor heavy atom, donor atom, acceptor molecule, acceptor atom, score
      L1  H     8    22       P1  7263  0.37

> <Gold.PLP.Chemscore.Internal.Correction>
   9.000000E+99

