#       Name:                CT1002167954
#       Creating user name   hitesit
#       Creation time:       Sun Apr 16 02:22:40 2023


#       File generated by GOLD software.
#

@<TRIPOS>MOLECULE
CT1002167954|ligand_prepared|mol2|1|dock1
    29    30     1
SMALL
NO_CHARGES


@<TRIPOS>ATOM
      1 C1          10.5528 -15.6424 -49.3996 C.3            1 RES1               0.0000
      2 C2          11.2211 -15.1374 -48.1046 C.ar           1 RES1               0.0000
      3 C3          10.5666 -14.4687 -50.3746 C.2            1 RES1               0.0000
      4 C4          11.3701 -16.8440 -49.8609 C.2            1 RES1               0.0000
      5 C5           9.0896 -16.1048 -49.2083 C.3            1 RES1               0.0000
      6 C6          10.4861 -14.4320 -47.1565 C.ar           1 RES1               0.0000
      7 C7          12.5686 -15.3711 -47.8432 C.ar           1 RES1               0.0000
      8 N8          11.4527 -14.5180 -51.4101 N.am           1 RES1               0.0000
      9 O9           9.8388 -13.4967 -50.2149 O.2            1 RES1               0.0000
     10 N10         12.0583 -16.7376 -51.0411 N.am           1 RES1               0.0000
     11 O11         11.4377 -17.8760 -49.2046 O.2            1 RES1               0.0000
     12 C12          8.5100 -16.8215 -50.4177 C.3            1 RES1               0.0000
     13 C13         11.0760 -13.9792 -45.9880 C.ar           1 RES1               0.0000
     14 C14         13.1566 -14.9172 -46.6741 C.ar           1 RES1               0.0000
     15 C15         12.1613 -15.6183 -51.8212 C.2            1 RES1               0.0000
     16 C16         12.4113 -14.2218 -45.7458 C.ar           1 RES1               0.0000
     17 O17         12.8439 -15.5839 -52.8410 O.2            1 RES1               0.0000
     18 H18          9.0421 -16.7774 -48.3430 H              1 RES1               0.0000
     19 H19          8.4684 -15.2283 -48.9862 H              1 RES1               0.0000
     20 H20          9.4346 -14.2294 -47.3308 H              1 RES1               0.0000
     21 H21         13.1746 -15.9151 -48.5597 H              1 RES1               0.0000
     22 H22         11.6025 -13.6571 -51.9266 H              1 RES1               0.0000
     23 H23         12.5381 -17.5701 -51.3684 H              1 RES1               0.0000
     24 H24          7.4819 -17.1244 -50.2305 H              1 RES1               0.0000
     25 H25          8.5183 -16.1727 -51.2911 H              1 RES1               0.0000
     26 H26          9.0886 -17.7127 -50.6519 H              1 RES1               0.0000
     27 H27         10.4855 -13.4312 -45.2612 H              1 RES1               0.0000
     28 H28         14.2080 -15.1099 -46.4880 H              1 RES1               0.0000
     29 H29         12.8731 -13.8673 -44.8302 H              1 RES1               0.0000
@<TRIPOS>BOND
    1    1    2 1     
    2    1    3 1     
    3    1    4 1     
    4    1    5 1     
    5    2    6 ar    
    6    2    7 ar    
    7    3    8 1     
    8    3    9 2     
    9    4   10 1     
   10    4   11 2     
   11    5   12 1     
   12    5   18 1     
   13    5   19 1     
   14    6   13 ar    
   15    6   20 1     
   16    7   14 ar    
   17    7   21 1     
   18    8   15 1     
   19    8   22 1     
   20   10   15 1     
   21   10   23 1     
   22   12   24 1     
   23   12   25 1     
   24   12   26 1     
   25   13   16 ar    
   26   13   27 1     
   27   14   16 ar    
   28   14   28 1     
   29   15   17 2     
   30   16   29 1     
@<TRIPOS>SUBSTRUCTURE
      1 RES1           1
@<TRIPOS>SET
DONOR_HYDROGENS      STATIC     ATOMS    <user>   **** ""
2 22 23
ATOM$RED        STATIC     ATOMS    COLORGROUP SYSTEM
2 22 23
@<TRIPOS>COMMENT
> <Gold.Version>
2022.3.0

> <Gold.Id.Protein>
unknown|7kl0_clean|pdb

> <Gold.Protein.RotatedTorsions>
[ 3255 3234 3235 3236 ] final  -71.09 input   29.64 | X-H torsion
[ 3263 3245 3244 3242 ] final -110.95 input   60.01 | X-H torsion
[ 3290 3276 3277 3278 ] final  -27.49 input   80.30 | X-H torsion
[ 3319 3312 3313 3314 ] final  158.47 input  125.66 | X-H torsion
[ 6344 6325 6326 6327 ] final  112.35 input   95.32 | X-H torsion
[ 6378 6362 6363 6364 ] final  -42.26 input   48.34 | X-H torsion
[ 6398 6391 6392 6393 ] final  154.21 input  -98.70 | X-H torsion
[ 7269 7260 7261 7262 ] final  -63.38 input  118.90 | X-H torsion
[ 7309 7295 7296 7297 ] final  157.49 input   89.68 | X-H torsion
[ 7345 7337 7338 7339 ] final   65.90 input  116.36 | X-H torsion
[ 7367 7360 7361 7362 ] final   13.72 input   69.83 | X-H torsion
[ 7373 7366 7364 7361 ] final  -66.64 input   60.03 | X-H torsion
[ 7395 7388 7389 7390 ] final -158.82 input   93.08 | X-H torsion
[ 3352 3337 3338 3339 ] final  144.66 input  120.41 | X-H torsion
[ 3327 3317 3316 3313 ] final   76.84 input   60.01 | X-H torsion
[ 7427 7420 7421 7422 ] final   50.27 input  116.71 | X-H torsion
[ 8541 3279 3278 3277 ] final  100.91 input   -0.00 | X-H torsion
[ 8546 6290 6289 6288 ] final -135.48 input    0.00 | X-H torsion
[ 8549 6328 6327 6326 ] final   -7.33 input    0.00 | X-H torsion
[ 8552 6365 6364 6363 ] final  -15.63 input    0.00 | X-H torsion
[ 8555 7183 7182 7181 ] final -157.94 input   -0.00 | X-H torsion
[ 8557 7233 7232 7231 ] final  -49.72 input   -0.00 | X-H torsion
[ 8560 7263 7262 7261 ] final -100.53 input    0.00 | X-H torsion
[ 8567 7298 7297 7296 ] final -152.68 input    0.00 | X-H torsion
[ 8571 7363 7362 7361 ] final   16.94 input   -0.00 | X-H torsion
[ 8576 7340 7339 7338 ] final -159.77 input   -0.00 | X-H torsion
[ 8578 7391 7390 7389 ] final   -2.55 input    0.00 | X-H torsion
[ 8580 3204 3203 3202 ] final  -92.44 input   -0.00 | X-H torsion
[ 8582 3237 3236 3235 ] final  -67.36 input    0.00 | X-H torsion
[ 8584 3315 3314 3313 ] final   66.19 input    0.00 | X-H torsion

> <Gold.Protein.ActiveResidues>
 GLU105  TYR106  TYR107  SER108  GLU109  ALA112  LEU206  LEU207  VAL208  GLY209 
 TYR210  PRO233  SER234  PRO235  GLU236  TRP237  ASP238  THR239  VAL240  THR241 
 LYS245 

> <Gold.Protein.RotatedAtoms>
    8.4798  -19.0729  -41.4655 H   0  0  0  0  0  0  0  0  0  0  0  0  # atno 3255 bound_to 3234
   13.7585  -19.0574  -46.3508 H   0  0  0  0  0  0  0  0  0  0  0  0  # atno 3263 bound_to 3245
    7.3660  -18.7127  -45.1671 H   0  0  0  0  0  0  0  0  0  0  0  0  # atno 3290 bound_to 3276
    7.5655  -21.3515  -47.7721 H   0  0  0  0  0  0  0  0  0  0  0  0  # atno 3319 bound_to 3312
    5.6224  -22.3380  -51.0868 H   0  0  0  0  0  0  0  0  0  0  0  0  # atno 3327 bound_to 3317
    6.5856  -18.8340  -51.5796 H   0  0  0  0  0  0  0  0  0  0  0  0  # atno 3352 bound_to 3337
    3.1017  -14.4019  -45.5314 H   0  0  0  0  0  0  0  0  0  0  0  0  # atno 6344 bound_to 6325
    6.0286  -14.5364  -44.6645 H   0  0  0  0  0  0  0  0  0  0  0  0  # atno 6378 bound_to 6362
    7.1035  -14.3297  -43.0222 H   0  0  0  0  0  0  0  0  0  0  0  0  # atno 6398 bound_to 6391
   13.9073   -8.2918  -49.1926 H   0  0  0  0  0  0  0  0  0  0  0  0  # atno 7269 bound_to 7260
   10.7781   -8.4136  -48.5868 H   0  0  0  0  0  0  0  0  0  0  0  0  # atno 7309 bound_to 7295
   11.8892   -8.8434  -51.6232 H   0  0  0  0  0  0  0  0  0  0  0  0  # atno 7345 bound_to 7337
   10.8189  -10.0382  -53.1655 H   0  0  0  0  0  0  0  0  0  0  0  0  # atno 7367 bound_to 7360
   12.4271  -11.6938  -51.9586 H   0  0  0  0  0  0  0  0  0  0  0  0  # atno 7373 bound_to 7366
    9.8516  -12.0921  -53.1060 H   0  0  0  0  0  0  0  0  0  0  0  0  # atno 7395 bound_to 7388
    5.6821  -12.4281  -54.7399 H   0  0  0  0  0  0  0  0  0  0  0  0  # atno 7427 bound_to 7420
    9.7821  -18.1864  -42.2351 LP  0  0  0  0  0  0  0  0  0  0  0  0  # atno 8537 bound_to 3234
   13.8660  -17.5418  -46.9338 LP  0  0  0  0  0  0  0  0  0  0  0  0  # atno 8538 bound_to 3245
   13.0735  -18.6911  -47.7809 LP  0  0  0  0  0  0  0  0  0  0  0  0  # atno 8539 bound_to 3245
    6.0309  -19.0892  -44.0864 LP  0  0  0  0  0  0  0  0  0  0  0  0  # atno 8540 bound_to 3276
    7.3878  -18.0230  -47.5084 LP  0  0  0  0  0  0  0  0  0  0  0  0  # atno 8541 bound_to 3279
    5.6833  -18.0991  -47.8066 LP  0  0  0  0  0  0  0  0  0  0  0  0  # atno 8542 bound_to 3279
    6.2342  -20.2167  -47.6438 LP  0  0  0  0  0  0  0  0  0  0  0  0  # atno 8543 bound_to 3312
    5.6400  -16.7939  -44.7010 LP  0  0  0  0  0  0  0  0  0  0  0  0  # atno 8546 bound_to 6290
    4.3955  -17.9902  -44.8425 LP  0  0  0  0  0  0  0  0  0  0  0  0  # atno 8547 bound_to 6290
    4.0098  -15.7373  -44.8543 LP  0  0  0  0  0  0  0  0  0  0  0  0  # atno 8548 bound_to 6325
    7.1719  -15.3290  -47.5043 LP  0  0  0  0  0  0  0  0  0  0  0  0  # atno 8549 bound_to 6328
    8.1554  -14.3103  -46.5067 LP  0  0  0  0  0  0  0  0  0  0  0  0  # atno 8550 bound_to 6328
    5.7352  -13.1014  -45.6213 LP  0  0  0  0  0  0  0  0  0  0  0  0  # atno 8551 bound_to 6362
    9.6535  -12.8875  -43.0504 LP  0  0  0  0  0  0  0  0  0  0  0  0  # atno 8552 bound_to 6365
    8.9447  -12.9571  -41.4716 LP  0  0  0  0  0  0  0  0  0  0  0  0  # atno 8553 bound_to 6365
    6.2765  -12.8878  -42.4728 LP  0  0  0  0  0  0  0  0  0  0  0  0  # atno 8554 bound_to 6391
   11.6394   -6.4286  -48.1855 LP  0  0  0  0  0  0  0  0  0  0  0  0  # atno 8555 bound_to 7183
    9.9564   -6.0876  -47.9592 LP  0  0  0  0  0  0  0  0  0  0  0  0  # atno 8556 bound_to 7183
   13.5553   -7.9922  -51.3401 LP  0  0  0  0  0  0  0  0  0  0  0  0  # atno 8557 bound_to 7233
   13.7368   -9.6014  -50.7257 LP  0  0  0  0  0  0  0  0  0  0  0  0  # atno 8558 bound_to 7233
   13.4747   -7.9363  -47.5374 LP  0  0  0  0  0  0  0  0  0  0  0  0  # atno 8559 bound_to 7260
   11.4694  -11.1448  -50.6757 LP  0  0  0  0  0  0  0  0  0  0  0  0  # atno 8560 bound_to 7263
   10.6077  -11.5416  -49.2265 LP  0  0  0  0  0  0  0  0  0  0  0  0  # atno 8561 bound_to 7263
   11.7924   -8.9113  -49.9258 LP  0  0  0  0  0  0  0  0  0  0  0  0  # atno 8566 bound_to 7295
    9.5105   -8.7831  -53.7475 LP  0  0  0  0  0  0  0  0  0  0  0  0  # atno 8567 bound_to 7298
    8.2942   -8.2963  -52.6144 LP  0  0  0  0  0  0  0  0  0  0  0  0  # atno 8568 bound_to 7298
   10.6489   -7.6252  -51.8195 LP  0  0  0  0  0  0  0  0  0  0  0  0  # atno 8569 bound_to 7337
   12.3392   -9.6524  -53.9615 LP  0  0  0  0  0  0  0  0  0  0  0  0  # atno 8570 bound_to 7360
   10.7407  -13.9651  -54.9639 LP  0  0  0  0  0  0  0  0  0  0  0  0  # atno 8571 bound_to 7363
    9.0277  -13.7214  -54.8847 LP  0  0  0  0  0  0  0  0  0  0  0  0  # atno 8572 bound_to 7363
   12.9077  -13.2483  -51.9344 LP  0  0  0  0  0  0  0  0  0  0  0  0  # atno 8573 bound_to 7366
   11.3475  -12.8778  -52.2425 LP  0  0  0  0  0  0  0  0  0  0  0  0  # atno 8574 bound_to 7366
    9.4704  -10.7929  -54.2183 LP  0  0  0  0  0  0  0  0  0  0  0  0  # atno 8575 bound_to 7388
   11.0966   -9.6763  -56.1731 LP  0  0  0  0  0  0  0  0  0  0  0  0  # atno 8576 bound_to 7340
   11.8846   -8.1371  -56.0734 LP  0  0  0  0  0  0  0  0  0  0  0  0  # atno 8577 bound_to 7340
    7.8634   -9.6960  -54.6725 LP  0  0  0  0  0  0  0  0  0  0  0  0  # atno 8578 bound_to 7391
    6.8812   -9.9253  -56.0806 LP  0  0  0  0  0  0  0  0  0  0  0  0  # atno 8579 bound_to 7391
    7.2779  -17.0086  -40.4066 LP  0  0  0  0  0  0  0  0  0  0  0  0  # atno 8580 bound_to 3204
    8.5893  -15.9933  -40.9059 LP  0  0  0  0  0  0  0  0  0  0  0  0  # atno 8581 bound_to 3204
    9.2351  -20.3018  -44.3992 LP  0  0  0  0  0  0  0  0  0  0  0  0  # atno 8582 bound_to 3237
    7.9223  -21.1806  -43.6891 LP  0  0  0  0  0  0  0  0  0  0  0  0  # atno 8583 bound_to 3237
    4.5814  -19.6230  -48.5807 LP  0  0  0  0  0  0  0  0  0  0  0  0  # atno 8584 bound_to 3315
    3.9211  -20.6389  -49.8184 LP  0  0  0  0  0  0  0  0  0  0  0  0  # atno 8585 bound_to 3315
    5.6614  -20.0164  -50.6784 LP  0  0  0  0  0  0  0  0  0  0  0  0  # atno 8586 bound_to 3337
    5.8557  -22.6617  -49.5092 LP  0  0  0  0  0  0  0  0  0  0  0  0  # atno 8587 bound_to 3317
    6.6208  -23.5461  -50.6490 LP  0  0  0  0  0  0  0  0  0  0  0  0  # atno 8588 bound_to 3317

> <Gold.Score>
     Fitness  S(hb_ext) S(vdw_ext)  S(hb_int)    S(int)      intcor
     29.25       1.14      21.05       0.00      -0.84      -0.76

> <Gold.Goldscore.Fitness>
29.2490

> <Gold.Goldscore.Internal.Vdw>
-1.0815

> <Gold.Goldscore.Internal.Torsion>
-0.5195

> <Gold.Goldscore.External.Vdw>
21.0503

> <Gold.Goldscore.Internal.HBond>
0.0000

> <Gold.Goldscore.External.HBond>
1.1408

> <Gold.Goldscore.Internal.Correction>
-0.7650

> <Gold.Goldscore.Hbonds>
donor molecule, donor type, donor heavy atom, donor atom, acceptor molecule, acceptor atom, score
      L1  H     8    22       P1  7366  0.57

> <Gold.Goldscore.Internal.Vdw.Weighted>
-1.0815

> <Gold.Goldscore.Internal.Torsion.Weighted>
-0.5195

> <Gold.Goldscore.External.Vdw.Weighted>
28.9442

> <Gold.Goldscore.Internal.HBond.Weighted>
0.0000

> <Gold.Goldscore.External.HBond.Weighted>
1.1408

> <Gold.Goldscore.Internal.Correction.Weighted>
-0.7650

> <Gold.Rescore>
     Score     S(PLP)   S(hbond)     S(cho)   S(metal)  DE(clash)   DE(tors)     intcor
     30.44     -31.26       0.31       0.00       0.00       0.00       0.88       ----

> <Gold.PLP.Fitness>
30.4429

> <Gold.PLP.PLP>
-31.2629

> <Gold.PLP.part.hbond>
-2.2865

> <Gold.PLP.part.metal>
0.0000

> <Gold.PLP.part.buried>
4.3273

> <Gold.PLP.part.nonpolar>
-34.3241

> <Gold.PLP.part.repulsive>
0.2325

> <Gold.PLP.ligand.clash>
0.0000

> <Gold.PLP.ligand.torsion>
0.8780

> <Gold.PLP.Chemscore.Hbond>
0.3120

> <Gold.PLP.Chemscore.CHOScore>
0.0000

> <Gold.PLP.Chemscore.Metal>
0.0000

> <Gold.Chemscore.Hbonds>
donor molecule, donor type, donor heavy atom, donor atom, acceptor molecule, acceptor atom, score
      L1  H     8    22       P1  7366  0.37

> <Gold.PLP.Chemscore.Internal.Correction>
   9.000000E+99

