@<TRIPOS>MOLECULE
B:THR5
   267   268    18     0     1
SMALL
NO_CHARGES
****
Generated from the CSD

@<TRIPOS>ATOM
     1 N       10.6670  12.9020  18.4390   N.3       1 THR5   0.0000
     2 CA      11.8420  13.1670  17.6260   C.3       1 THR5   0.0000
     3 C       11.8730  12.1710  16.4920   C.2       1 THR5   0.0000
     4 O       11.3250  11.0730  16.6090   O.2       1 THR5   0.0000
     5 CB      13.1460  13.0140  18.4230   C.3       1 THR5   0.0000
     6 CG2     13.0610  13.7940  19.7300   C.3       1 THR5   0.0000
     7 OG1     13.3970  11.6230  18.6780   O.3       1 THR5   0.0000
     8 N       12.5190  12.5530  15.3970   N.am      2 THR6   0.0000
     9 CA      12.5570  11.6920  14.2320   C.3       2 THR6   0.0000
    10 C       13.3500  10.4360  14.5430   C.2       2 THR6   0.0000
    11 O       12.9450   9.3470  14.1530   O.2       2 THR6   0.0000
    12 CB      13.1600  12.3920  13.0050   C.3       2 THR6   0.0000
    13 CG2     12.9350  11.5380  11.7570   C.3       2 THR6   0.0000
    14 OG1     12.5290  13.6640  12.8290   O.3       2 THR6   0.0000
    15 N       14.4740  10.5960  15.2420   N.am      3 TYR7   0.0000
    16 CA      15.2550   9.4500  15.7010   C.3       3 TYR7   0.0000
    17 C       14.3730   8.4810  16.5000   C.2       3 TYR7   0.0000
    18 O       14.4110   7.2820  16.2550   O.2       3 TYR7   0.0000
    19 CB      16.4930   9.8990  16.5030   C.3       3 TYR7   0.0000
    20 CG      17.1750   8.8070  17.3030   C.ar      3 TYR7   0.0000
    21 CD1     16.8480   8.6090  18.6390   C.ar      3 TYR7   0.0000
    22 CD2     18.1440   7.9800  16.7370   C.ar      3 TYR7   0.0000
    23 CE1     17.4590   7.6270  19.3970   C.ar      3 TYR7   0.0000
    24 CE2     18.7690   6.9790  17.4940   C.ar      3 TYR7   0.0000
    25 CZ      18.4120   6.8140  18.8280   C.ar      3 TYR7   0.0000
    26 OH      18.9910   5.8430  19.6240   O.3       3 TYR7   0.0000
    27 N       13.5630   9.0030  17.4250   N.am      4 ALA8   0.0000
    28 CA      12.6240   8.1680  18.2000   C.3       4 ALA8   0.0000
    29 C       11.5840   7.4890  17.3070   C.2       4 ALA8   0.0000
    30 O       11.2020   6.3600  17.5540   O.2       4 ALA8   0.0000
    31 CB      11.9180   8.9880  19.2900   C.3       4 ALA8   0.0000
    32 N       11.1230   8.1870  16.2750   N.am      5 ASP9   0.0000
    33 CA      10.1780   7.6000  15.3320   C.3       5 ASP9   0.0000
    34 C       10.8340   6.4760  14.5190   C.2       5 ASP9   0.0000
    35 O       10.2570   5.4000  14.3560   O.2       5 ASP9   0.0000
    36 CB       9.5850   8.6730  14.4130   C.3       5 ASP9   0.0000
    37 CG       8.5310   9.5280  15.1150   C.ar      5 ASP9   0.0000
    38 OD1      7.9580   9.0660  16.1280   O.co2     5 ASP9   0.0000
    39 OD2      8.2620  10.6540  14.6440   O.co2     5 ASP9   0.0000
    40 N       12.0440   6.7310  14.0290   N.am      6 PHE10   0.0000
    41 CA      12.8310   5.7130  13.3390   C.3       6 PHE10   0.0000
    42 C       13.0250   4.4790  14.2140   C.2       6 PHE10   0.0000
    43 O       12.6010   3.3950  13.8620   O.2       6 PHE10   0.0000
    44 CB      14.1990   6.2710  12.9270   C.3       6 PHE10   0.0000
    45 CG      15.0700   5.2760  12.2180   C.ar      6 PHE10   0.0000
    46 CD1     14.6760   4.7300  11.0060   C.ar      6 PHE10   0.0000
    47 CD2     16.3000   4.8970  12.7540   C.ar      6 PHE10   0.0000
    48 CE1     15.4910   3.8110  10.3290   C.ar      6 PHE10   0.0000
    49 CE2     17.1230   3.9750  12.0900   C.ar      6 PHE10   0.0000
    50 CZ      16.7170   3.4320  10.8750   C.ar      6 PHE10   0.0000
    51 N       13.6630   4.6680  15.3590   N.am      7 ILE11   0.0000
    52 CA      13.9210   3.5850  16.3010   C.3       7 ILE11   0.0000
    53 C       12.6610   2.7860  16.6560   C.2       7 ILE11   0.0000
    54 O       12.7420   1.5990  16.9570   O.2       7 ILE11   0.0000
    55 CB      14.5710   4.1340  17.5830   C.3       7 ILE11   0.0000
    56 CG1     15.9550   4.6990  17.2600   C.3       7 ILE11   0.0000
    57 CG2     14.6920   3.0520  18.6400   C.3       7 ILE11   0.0000
    58 CD1     16.9180   3.6670  16.6990   C.3       7 ILE11   0.0000
    59 N       11.4970   3.4340  16.6230   N.am      8 ALA12   0.0000
    60 CA      10.2550   2.7480  16.9560   C.3       8 ALA12   0.0000
    61 C        9.5720   2.1730  15.7090   C.2       8 ALA12   0.0000
    62 O        8.5690   1.4700  15.8120   O.2       8 ALA12   0.0000
    63 CB       9.3190   3.6800  17.7040   C.3       8 ALA12   0.0000
    64 N       10.1230   2.4850  14.5350   N.am      9 SER13   0.0000
    65 CA       9.5920   2.0000  13.2660   C.3       9 SER13   0.0000
    66 C       10.0060   0.5430  13.0620   C.2       9 SER13   0.0000
    67 O       10.8650   0.0310  13.7710   O.2       9 SER13   0.0000
    68 CB      10.1550   2.8370  12.1150   C.3       9 SER13   0.0000
    69 OG      11.4730   2.3990  11.7750   O.3       9 SER13   0.0000
    70 N        9.4150  -0.1240  12.0800   N.am     10 GLY14   0.0000
    71 CA       9.8030  -1.4910  11.7830   C.3      10 GLY14   0.0000
    72 C       10.9830  -1.6450  10.8290   C.2      10 GLY14   0.0000
    73 O       11.2230  -2.7370  10.3410   O.2      10 GLY14   0.0000
    74 N       11.7280  -0.5750  10.5620   N.am     11 ARG15   0.0000
    75 CA      12.8000  -0.6420   9.5640   C.3      11 ARG15   0.0000
    76 C       14.1840  -0.1450  10.0290   C.2      11 ARG15   0.0000
    77 O       14.8990   0.5310   9.2810   O.2      11 ARG15   0.0000
    78 CB      12.3710   0.0590   8.2640   C.3      11 ARG15   0.0000
    79 CG      11.1660  -0.6200   7.5940   C.3      11 ARG15   0.0000
    80 CD      10.7810   0.0030   6.2660   C.3      11 ARG15   0.0000
    81 NE      11.7810  -0.2010   5.2220   N.2      11 ARG15   0.0000
    82 CZ      11.8530  -1.2770   4.4400   C.ar     11 ARG15   0.0000
    83 NH1     12.8030  -1.3600   3.5200   N.2      11 ARG15   0.0000
    84 NH2     10.9910  -2.2790   4.5840   N.2      11 ARG15   0.0000
    85 N       14.5610  -0.5070  11.2490   N.am     12 THR16   0.0000
    86 CA      15.8910  -0.1950  11.7730   C.3      12 THR16   0.0000
    87 C       16.8580  -1.3750  11.6520   C.2      12 THR16   0.0000
    88 O       18.0500  -1.2510  11.9440   O.2      12 THR16   0.0000
    89 CB      15.8280   0.2050  13.2530   C.3      12 THR16   0.0000
    90 CG2     14.7690   1.2700  13.4680   C.3      12 THR16   0.0000
    91 OG1     15.5020  -0.9460  14.0440   O.3      12 THR16   0.0000
    92 N       16.3510  -2.5320  11.2480   N.am     13 GLY17   0.0000
    93 CA      17.2250  -3.6760  11.0180   C.3      13 GLY17   0.0000
    94 C       17.8020  -3.6130   9.6130   C.2      13 GLY17   0.0000
    95 O       17.5710  -2.6410   8.8960   O.2      13 GLY17   0.0000
    96 N       18.5510  -4.6370   9.2150   N.am     14 ARG18   0.0000
    97 CA      19.0790  -4.7090   7.8550   C.3      14 ARG18   0.0000
    98 C       17.9270  -4.6900   6.8390   C.2      14 ARG18   0.0000
    99 O       16.9280  -5.3860   6.9950   O.2      14 ARG18   0.0000
   100 CB      19.9550  -5.9580   7.6900   C.3      14 ARG18   0.0000
   101 CG      21.2950  -5.8770   8.4490   C.3      14 ARG18   0.0000
   102 CD      22.1860  -7.1040   8.2110   C.3      14 ARG18   0.0000
   103 NE      23.5010  -6.9100   8.8180   N.2      14 ARG18   0.0000
   104 CZ      23.7570  -7.0740  10.1120   C.ar     14 ARG18   0.0000
   105 NH1     22.7960  -7.4670  10.9490   N.2      14 ARG18   0.0000
   106 NH2     24.9780  -6.8510  10.5680   N.2      14 ARG18   0.0000
   107 N       18.0450  -3.8700   5.8100   N.am     15 ARG19   0.0000
   108 CA      16.9560  -3.7660   4.8540   C.3      15 ARG19   0.0000
   109 C       17.2550  -4.6100   3.6270   C.2      15 ARG19   0.0000
   110 O       18.3630  -4.5800   3.1070   O.2      15 ARG19   0.0000
   111 CB      16.7200  -2.3080   4.4750   C.3      15 ARG19   0.0000
   112 CG      16.4110  -1.4250   5.6810   C.3      15 ARG19   0.0000
   113 CD      16.9720  -0.0310   5.5030   C.3      15 ARG19   0.0000
   114 NE      18.4330   0.0060   5.6030   N.2      15 ARG19   0.0000
   115 CZ      19.1300   1.1270   5.7830   C.ar     15 ARG19   0.0000
   116 NH1     18.4980   2.2930   5.8840   N.2      15 ARG19   0.0000
   117 NH2     20.4540   1.0920   5.8610   N.2      15 ARG19   0.0000
   118 N       16.2630  -5.3780   3.1950   N.am     16 ASN20   0.0000
   119 CA      16.3660  -6.1980   1.9930   C.3      16 ASN20   0.0000
   120 C       16.2020  -5.3680   0.7330   C.2      16 ASN20   0.0000
   121 O       15.4400  -4.4050   0.7200   O.2      16 ASN20   0.0000
   122 CB      15.2720  -7.2700   1.9810   C.3      16 ASN20   0.0000
   123 CG      15.3700  -8.2230   3.1540   C.2      16 ASN20   0.0000
   124 ND2     16.4610  -8.9830   3.2100   N.am     16 ASN20   0.0000
   125 OD1     14.4710  -8.2820   3.9990   O.2      16 ASN20   0.0000
   126 N       16.9000  -5.7650  -0.3280   N.am     17 ALA21   0.0000
   127 CA      16.6120  -5.2700  -1.6650   C.3      17 ALA21   0.0000
   128 C       15.2340  -5.7550  -2.0980   C.2      17 ALA21   0.0000
   129 O       14.7580  -6.7920  -1.6240   O.2      17 ALA21   0.0000
   130 CB      17.6690  -5.7630  -2.6540   C.3      17 ALA21   0.0000
   131 N       14.5910  -5.0000  -2.9870   N.am     18 ILE22   0.0000
   132 CA      13.3710  -5.4620  -3.6380   C.3      18 ILE22   0.0000
   133 C       13.7360  -6.0430  -5.0010   C.2      18 ILE22   0.0000
   134 O       13.0200  -6.8640  -5.5660   O.2      18 ILE22   0.0000
   135 CB      12.2910  -4.3440  -3.7860   C.3      18 ILE22   0.0000
   136 CG1     12.8800  -3.0570  -4.3630   C.3      18 ILE22   0.0000
   137 CG2     11.6140  -4.0610  -2.4620   C.3      18 ILE22   0.0000
   138 CD1     12.7510  -2.9680  -5.8480   C.3      18 ILE22   0.0000
   139 H1      15.6099   8.9196  14.8185   H         3 TYR7   0.0000
   140 H2      13.9848   5.6026  15.5898   H         7 ILE11   0.0000
   141 H3      12.9214  -1.6956   9.3168   H        11 ARG15   0.0000
   142 H4      19.5251   6.3382  17.0427   H         3 TYR7   0.0000
   143 H5      12.8607  -2.1785   2.9225   H        11 ARG15   0.0000
   144 H6      11.0552  -3.0941   3.9826   H        11 ARG15   0.0000
   145 H7      13.9073  -1.0154  11.8359   H        12 THR16   0.0000
   146 H8      16.2966   0.6422  11.2069   H        12 THR16   0.0000
   147 H9      16.7972   0.5927  13.5631   H        12 THR16   0.0000
   148 H10     13.7978   0.8828  13.1635   H        12 THR16   0.0000
   149 H11     14.7370   1.5425  14.5219   H        12 THR16   0.0000
   150 H12     15.0122   2.1490  12.8730   H        12 THR16   0.0000
   151 H13     16.1987  -1.6423  13.9180   H        12 THR16   0.0000
   152 H14     15.3511  -2.6213  11.0984   H        13 GLY17   0.0000
   153 H15     16.6533  -4.5958  11.1325   H        13 GLY17   0.0000
   154 H16     18.0375  -3.6610  11.7429   H        13 GLY17   0.0000
   155 H17     18.7601  -5.3839   9.8696   H        14 ARG18   0.0000
   156 H18     19.7002  -3.8312   7.6831   H        14 ARG18   0.0000
   157 H19     20.1671  -6.0922   6.6303   H        14 ARG18   0.0000
   158 H20     19.4007  -6.8188   8.0611   H        14 ARG18   0.0000
   159 H21     21.0873  -5.7989   9.5151   H        14 ARG18   0.0000
   160 H22     21.8300  -4.9884   8.1173   H        14 ARG18   0.0000
   161 H23     22.3055  -7.2572   7.1395   H        14 ARG18   0.0000
   162 H24     21.7137  -7.9803   8.6525   H        14 ARG18   0.0000
   163 H25     23.0010  -7.5895  11.9355   H        14 ARG18   0.0000
   164 H26     25.1816  -6.9740  11.5547   H        14 ARG18   0.0000
   165 H27     18.8881  -3.3181   5.6885   H        15 ARG19   0.0000
   166 H28     16.0507  -4.1497   5.3221   H        15 ARG19   0.0000
   167 H29     15.8795  -2.2599   3.7843   H        15 ARG19   0.0000
   168 H30     17.6147  -1.9268   3.9850   H        15 ARG19   0.0000
   169 H31     16.8514  -1.8732   6.5704   H        15 ARG19   0.0000
   170 H32     15.3310  -1.3592   5.8045   H        15 ARG19   0.0000
   171 H33     16.5533   0.6144   6.2738   H        15 ARG19   0.0000
   172 H34     16.6802   0.3395   4.5214   H        15 ARG19   0.0000
   173 H35     19.0283   3.1475   6.0211   H        15 ARG19   0.0000
   174 H36     20.9772   1.9509   5.9982   H        15 ARG19   0.0000
   175 H37     15.3963  -5.3957   3.7230   H        16 ASN20   0.0000
   176 H38     17.3406  -6.6835   1.9754   H        16 ASN20   0.0000
   177 H39     15.3570  -7.8433   1.0591   H        16 ASN20   0.0000
   178 H40     14.3016  -6.7769   2.0137   H        16 ASN20   0.0000
   179 H41     16.5825  -9.6410   3.9732   H        16 ASN20   0.0000
   180 H42     17.1716  -8.9046   2.4895   H        16 ASN20   0.0000
   181 H43     17.6545  -6.4319  -0.2008   H        17 ALA21   0.0000
   182 H44     16.6181  -4.1811  -1.6506   H        17 ALA21   0.0000
   183 H45     16.0920   9.2427  19.1004   H         3 TYR7   0.0000
   184 H46      9.1236   8.1832  13.5568   H         5 ASP9   0.0000
   185 H47     10.3892   9.3222  14.0699   H         5 ASP9   0.0000
   186 H48     14.6289   2.9007  15.8357   H         7 ILE11   0.0000
   187 H49     14.7939  11.5343  15.4599   H         3 TYR7   0.0000
   188 H50      8.9452  -1.9947  11.3400   H        10 GLY14   0.0000
   189 H51     10.0645  -1.9772  12.7217   H        10 GLY14   0.0000
   190 H52      8.6870   0.3240  11.5327   H        10 GLY14   0.0000
   191 H53     11.7817  14.1758  17.2204   H         1 THR5   0.0000
   192 H54     13.4795  11.1380  17.8154   H         1 THR5   0.0000
   193 H55     15.3073   2.2387  18.2581   H         7 ILE11   0.0000
   194 H56     15.1542   3.4680  19.5340   H         7 ILE11   0.0000
   195 H57     13.7013   2.6729  18.8864   H         7 ILE11   0.0000
   196 H58     13.2013   7.3868  18.6923   H         4 ALA8   0.0000
   197 H59     12.6780  14.2220  13.6368   H         2 THR6   0.0000
   198 H60     17.1861   7.4973  20.4433   H         3 TYR7   0.0000
   199 H61     16.5118   3.2552  15.7763   H         7 ILE11   0.0000
   200 H62     17.8775   4.1395  16.4941   H         7 ILE11   0.0000
   201 H63     17.0551   2.8664  17.4244   H         7 ILE11   0.0000
   202 H64     13.7194   5.0190  10.5732   H         6 PHE10   0.0000
   203 H65     13.5940  10.0023  17.6001   H         4 ALA8   0.0000
   204 H66     18.2882   5.2253  19.9567   H         3 TYR7   0.0000
   205 H67     11.4437   1.4463  11.4966   H         9 SER13   0.0000
   206 H68     10.1916   3.8827  12.4169   H         9 SER13   0.0000
   207 H69      9.5073   2.7326  11.2458   H         9 SER13   0.0000
   208 H70     11.4752   4.4150  16.3634   H         8 ALA12   0.0000
   209 H71     12.2329  13.4139  20.3264   H         1 THR5   0.0000
   210 H72     13.9912  13.6766  20.2839   H         1 THR5   0.0000
   211 H73     12.8982  14.8487  19.5133   H         1 THR5   0.0000
   212 H74     18.0782   3.6847  12.5249   H         6 PHE10   0.0000
   213 H75      9.0909   4.5429  17.0801   H         8 ALA12   0.0000
   214 H76      8.3973   3.1523  17.9448   H         8 ALA12   0.0000
   215 H77      9.7973   4.0134  18.6238   H         8 ALA12   0.0000
   216 H78     18.4195   8.1134  15.6919   H         3 TYR7   0.0000
   217 H79     11.8664  11.3970  11.6014   H         2 THR6   0.0000
   218 H80     13.3647  12.0399  10.8914   H         2 THR6   0.0000
   219 H81     13.4136  10.5688  11.8893   H         2 THR6   0.0000
   220 H82     17.6702  -6.8519  -2.6712   H        17 ALA21   0.0000
   221 H83     17.4397  -5.3845  -3.6490   H        17 ALA21   0.0000
   222 H84     18.6498  -5.4037  -2.3461   H        17 ALA21   0.0000
   223 H85     14.9586  -4.0822  -3.2165   H        18 ILE22   0.0000
   224 H86     12.9477  -6.2621  -3.0325   H        18 ILE22   0.0000
   225 H87     14.6565  -5.7204  -5.4853   H        18 ILE22   0.0000
   226 H88     11.5525   0.2954  11.0538   H        11 ARG15   0.0000
   227 H89     11.3592   9.8006  18.8282   H         4 ALA8   0.0000
   228 H90     11.2342   8.3451  19.8422   H         4 ALA8   0.0000
   229 H91     12.6601   9.3997  19.9724   H         4 ALA8   0.0000
   230 H92     13.9670  13.4142  17.8300   H         1 THR5   0.0000
   231 H93     10.4985   1.9174  17.6169   H         8 ALA12   0.0000
   232 H94     10.9432   3.0828  14.5243   H         9 SER13   0.0000
   233 H95     11.4334   9.1440  16.1407   H         5 ASP9   0.0000
   234 H96      9.3616   7.1639  15.9058   H         5 ASP9   0.0000
   235 H97     14.2286  12.5355  13.1582   H         2 THR6   0.0000
   236 H98     15.1665   3.3934   9.3770   H         6 PHE10   0.0000
   237 H99     11.5316  -4.7033  -4.4789   H        18 ILE22   0.0000
   238 H100    13.9367  -3.0128  -4.1036   H        18 ILE22   0.0000
   239 H101    12.3613  -2.2088  -3.9186   H        18 ILE22   0.0000
   240 H102    12.3574  -3.7330  -1.7369   H        18 ILE22   0.0000
   241 H103    10.8677  -3.2792  -2.5957   H        18 ILE22   0.0000
   242 H104    11.1298  -4.9671  -2.1009   H        18 ILE22   0.0000
   243 H105    11.6980  -3.0013  -6.1235   H        18 ILE22   0.0000
   244 H106    13.1876  -2.0326  -6.1949   H        18 ILE22   0.0000
   245 H107    13.2734  -3.8052  -6.3086   H        18 ILE22   0.0000
   246 H108    12.4324   7.6624  14.1382   H         6 PHE10   0.0000
   247 H109    17.3518   2.7165  10.3544   H         6 PHE10   0.0000
   248 H110    11.5361  11.3997  13.9905   H         2 THR6   0.0000
   249 H111    16.6266   5.3227  13.7016   H         6 PHE10   0.0000
   250 H112    12.9886  13.4526  15.3757   H         2 THR6   0.0000
   251 H113    16.1808  10.6791  17.1958   H         3 TYR7   0.0000
   252 H114    17.2194  10.3062  15.8013   H         3 TYR7   0.0000
   253 H115    14.7184   6.6041  13.8243   H         6 PHE10   0.0000
   254 H116    14.0381   7.1201  12.2644   H         6 PHE10   0.0000
   255 H117    13.2090   0.0467   7.5686   H        11 ARG15   0.0000
   256 H118    12.1061   1.0897   8.4950   H        11 ARG15   0.0000
   257 H119    10.3130  -0.5505   8.2674   H        11 ARG15   0.0000
   258 H120    11.4108  -1.6676   7.4251   H        11 ARG15   0.0000
   259 H121    10.6472   1.0738   6.4122   H        11 ARG15   0.0000
   260 H122     9.8417  -0.4385   5.9362   H        11 ARG15   0.0000
   261 H123    16.3823   5.1069  18.1748   H         7 ILE11   0.0000
   262 H124    15.8389   5.4958  16.5268   H         7 ILE11   0.0000
   263 H125    10.7169  11.9578  18.8080   H         1 THR5   0.0000
   264 H126    10.6309  13.5641  19.2074   H         1 THR5   0.0000
   265 H127    12.2954   5.4156  12.4387   H         6 PHE10   0.0000
   266 H128    13.9482   4.9370  17.9744   H         7 ILE11   0.0000
   267 H129     8.5055   2.0732  13.2731   H         9 SER13   0.0000
@<TRIPOS>BOND
     1     1     2    1
     2     2     3    1
     3     3     4    2
     4     2     5    1
     5     5     6    1
     6     5     7    1
     7     3     8   am
     8     8     9    1
     9     9    10    1
    10    10    11    2
    11     9    12    1
    12    12    13    1
    13    12    14    1
    14    10    15   am
    15    15    16    1
    16    16    17    1
    17    17    18    2
    18    16    19    1
    19    19    20    1
    20    20    21   ar
    21    20    22   ar
    22    21    23   ar
    23    22    24   ar
    24    23    25   ar
    25    24    25   ar
    26    25    26    1
    27    17    27   am
    28    27    28    1
    29    28    29    1
    30    29    30    2
    31    28    31    1
    32    29    32   am
    33    32    33    1
    34    33    34    1
    35    34    35    2
    36    33    36    1
    37    36    37    1
    38    37    38   ar
    39    37    39   ar
    40    34    40   am
    41    40    41    1
    42    41    42    1
    43    42    43    2
    44    41    44    1
    45    44    45    1
    46    45    46   ar
    47    45    47   ar
    48    46    48   ar
    49    47    49   ar
    50    48    50   ar
    51    49    50   ar
    52    42    51   am
    53    51    52    1
    54    52    53    1
    55    53    54    2
    56    52    55    1
    57    55    56    1
    58    55    57    1
    59    56    58    1
    60    53    59   am
    61    59    60    1
    62    60    61    1
    63    61    62    2
    64    60    63    1
    65    61    64   am
    66    64    65    1
    67    65    66    1
    68    66    67    2
    69    65    68    1
    70    68    69    1
    71    66    70   am
    72    70    71    1
    73    71    72    1
    74    72    73    2
    75    72    74   am
    76    74    75    1
    77    75    76    1
    78    76    77    2
    79    75    78    1
    80    78    79    1
    81    79    80    1
    82    80    81    1
    83    81    82   ar
    84    82    83   ar
    85    82    84   ar
    86    76    85   am
    87    85    86    1
    88    86    87    1
    89    87    88    2
    90    86    89    1
    91    89    90    1
    92    89    91    1
    93    87    92   am
    94    92    93    1
    95    93    94    1
    96    94    95    2
    97    94    96   am
    98    96    97    1
    99    97    98    1
   100    98    99    2
   101    97   100    1
   102   100   101    1
   103   101   102    1
   104   102   103    1
   105   103   104   ar
   106   104   105   ar
   107   104   106   ar
   108    98   107   am
   109   107   108    1
   110   108   109    1
   111   109   110    2
   112   108   111    1
   113   111   112    1
   114   112   113    1
   115   113   114    1
   116   114   115   ar
   117   115   116   ar
   118   115   117   ar
   119   109   118   am
   120   118   119    1
   121   119   120    1
   122   120   121    2
   123   119   122    1
   124   122   123    1
   125   123   124   am
   126   123   125    2
   127   120   126   am
   128   126   127    1
   129   127   128    1
   130   128   129    2
   131   127   130    1
   132   128   131   am
   133   131   132    1
   134   132   133    1
   135   133   134    2
   136   132   135    1
   137   135   136    1
   138   135   137    1
   139   136   138    1
   140    16   139    1
   141    51   140    1
   142    75   141    1
   143    24   142    1
   144    83   143    1
   145    84   144    1
   146    85   145    1
   147    86   146    1
   148    89   147    1
   149    90   148    1
   150    90   149    1
   151    90   150    1
   152    91   151    1
   153    92   152    1
   154    93   153    1
   155    93   154    1
   156    96   155    1
   157    97   156    1
   158   100   157    1
   159   100   158    1
   160   101   159    1
   161   101   160    1
   162   102   161    1
   163   102   162    1
   164   105   163    1
   165   106   164    1
   166   107   165    1
   167   108   166    1
   168   111   167    1
   169   111   168    1
   170   112   169    1
   171   112   170    1
   172   113   171    1
   173   113   172    1
   174   116   173    1
   175   117   174    1
   176   118   175    1
   177   119   176    1
   178   122   177    1
   179   122   178    1
   180   124   179    1
   181   124   180    1
   182   126   181    1
   183   127   182    1
   184    21   183    1
   185    36   184    1
   186    36   185    1
   187    52   186    1
   188    15   187    1
   189    71   188    1
   190    71   189    1
   191    70   190    1
   192     2   191    1
   193     7   192    1
   194    57   193    1
   195    57   194    1
   196    57   195    1
   197    28   196    1
   198    14   197    1
   199    23   198    1
   200    58   199    1
   201    58   200    1
   202    58   201    1
   203    46   202    1
   204    27   203    1
   205    26   204    1
   206    69   205    1
   207    68   206    1
   208    68   207    1
   209    59   208    1
   210     6   209    1
   211     6   210    1
   212     6   211    1
   213    49   212    1
   214    63   213    1
   215    63   214    1
   216    63   215    1
   217    22   216    1
   218    13   217    1
   219    13   218    1
   220    13   219    1
   221   130   220    1
   222   130   221    1
   223   130   222    1
   224   131   223    1
   225   132   224    1
   226   133   225    1
   227    74   226    1
   228    31   227    1
   229    31   228    1
   230    31   229    1
   231     5   230    1
   232    60   231    1
   233    64   232    1
   234    32   233    1
   235    33   234    1
   236    12   235    1
   237    48   236    1
   238   135   237    1
   239   136   238    1
   240   136   239    1
   241   137   240    1
   242   137   241    1
   243   137   242    1
   244   138   243    1
   245   138   244    1
   246   138   245    1
   247    40   246    1
   248    50   247    1
   249     9   248    1
   250    47   249    1
   251     8   250    1
   252    19   251    1
   253    19   252    1
   254    44   253    1
   255    44   254    1
   256    78   255    1
   257    78   256    1
   258    79   257    1
   259    79   258    1
   260    80   259    1
   261    80   260    1
   262    56   261    1
   263    56   262    1
   264     1   263    1
   265     1   264    1
   266    41   265    1
   267    55   266    1
   268    65   267    1
@<TRIPOS>SUBSTRUCTURE
     1 THR5        1 GROUP             0 B     THR     0  
     2 THR6        8 GROUP             0 B     THR     0  
     3 TYR7       15 GROUP             0 B     TYR     0  
     4 ALA8       27 GROUP             0 B     ALA     0  
     5 ASP9       32 GROUP             0 B     ASP     0  
     6 PHE10      40 GROUP             0 B     PHE     0  
     7 ILE11      51 GROUP             0 B     ILE     0  
     8 ALA12      59 GROUP             0 B     ALA     0  
     9 SER13      64 GROUP             0 B     SER     0  
    10 GLY14      70 GROUP             0 B     GLY     0  
    11 ARG15      74 GROUP             0 B     ARG     0  
    12 THR16      85 GROUP             0 B     THR     0  
    13 GLY17      92 GROUP             0 B     GLY     0  
    14 ARG18      96 GROUP             0 B     ARG     0  
    15 ARG19     107 GROUP             0 B     ARG     0  
    16 ASN20     118 GROUP             0 B     ASN     0  
    17 ALA21     126 GROUP             0 B     ALA     0  
    18 ILE22     131 GROUP             0 B     ILE     0  
@<TRIPOS>SET
CCDC_LIGAND STATIC ATOMS
267 1 2 3 4 5 6 7 8 9 \
10 11 12 13 14 15 16 17 18 19 \
20 21 22 23 24 25 26 27 28 29 \
30 31 32 33 34 35 36 37 38 39 \
40 41 42 43 44 45 46 47 48 49 \
50 51 52 53 54 55 56 57 58 59 \
60 61 62 63 64 65 66 67 68 69 \
70 71 72 73 74 75 76 77 78 79 \
80 81 82 83 84 85 86 87 88 89 \
90 91 92 93 94 95 96 97 98 99 \
100 101 102 103 104 105 106 107 108 109 \
110 111 112 113 114 115 116 117 118 119 \
120 121 122 123 124 125 126 127 128 129 \
130 131 132 133 134 135 136 137 138 139 \
140 141 142 143 144 145 146 147 148 149 \
150 151 152 153 154 155 156 157 158 159 \
160 161 162 163 164 165 166 167 168 169 \
170 171 172 173 174 175 176 177 178 179 \
180 181 182 183 184 185 186 187 188 189 \
190 191 192 193 194 195 196 197 198 199 \
200 201 202 203 204 205 206 207 208 209 \
210 211 212 213 214 215 216 217 218 219 \
220 221 222 223 224 225 226 227 228 229 \
230 231 232 233 234 235 236 237 238 239 \
240 241 242 243 244 245 246 247 248 249 \
250 251 252 253 254 255 256 257 258 259 \
260 261 262 263 264 265 266 267 
