#       Name:                CT1002167954
#       Creating user name   hitesit
#       Creation time:       Sun Apr 16 20:25:34 2023


#       File generated by GOLD software.
#

@<TRIPOS>MOLECULE
CT1002167954|ligand_prepared|mol2|1|dock7
    29    30     1
SMALL
NO_CHARGES


@<TRIPOS>ATOM
      1 C1         229.4381  16.9746  13.1319 C.3            1 RES1               0.0000
      2 C2         228.9529  15.5113  13.1755 C.ar           1 RES1               0.0000
      3 C3         228.6671  17.6481  12.0004 C.2            1 RES1               0.0000
      4 C4         229.1553  17.5591  14.5114 C.2            1 RES1               0.0000
      5 C5         230.9516  17.1230  12.8513 C.3            1 RES1               0.0000
      6 C6         229.7739  14.5073  13.6804 C.ar           1 RES1               0.0000
      7 C7         227.6884  15.1509  12.7178 C.ar           1 RES1               0.0000
      8 N8         227.6729  18.5166  12.3427 N.am           1 RES1               0.0000
      9 O9         228.9014  17.3909  10.8260 O.2            1 RES1               0.0000
     10 N10        228.2273  18.5630  14.6055 N.am           1 RES1               0.0000
     11 O11        229.7155  17.1480  15.5201 O.2            1 RES1               0.0000
     12 C12        231.3826  18.5501  12.5516 C.3            1 RES1               0.0000
     13 C13        229.3451  13.1912  13.7288 C.ar           1 RES1               0.0000
     14 C14        227.2616  13.8340  12.7668 C.ar           1 RES1               0.0000
     15 C15        227.4510  19.0472  13.5880 C.2            1 RES1               0.0000
     16 C16        228.0887  12.8538  13.2725 C.ar           1 RES1               0.0000
     17 O17        226.5989  19.9137  13.7616 O.2            1 RES1               0.0000
     18 H18        231.5096  16.7615  13.7238 H              1 RES1               0.0000
     19 H19        231.2163  16.4876  11.9971 H              1 RES1               0.0000
     20 H20        230.7668  14.7535  14.0418 H              1 RES1               0.0000
     21 H21        227.0211  15.9051  12.3149 H              1 RES1               0.0000
     22 H22        227.0354  18.7975  11.6044 H              1 RES1               0.0000
     23 H23        228.1039  18.9890  15.5185 H              1 RES1               0.0000
     24 H24        232.4529  18.5981  12.3622 H              1 RES1               0.0000
     25 H25        230.8657  18.9330  11.6741 H              1 RES1               0.0000
     26 H26        231.1572  19.2053  13.3905 H              1 RES1               0.0000
     27 H27        230.0004  12.4233  14.1264 H              1 RES1               0.0000
     28 H28        226.2722  13.5729  12.4061 H              1 RES1               0.0000
     29 H29        227.7529  11.8227  13.3109 H              1 RES1               0.0000
@<TRIPOS>BOND
    1    1    2 1     
    2    1    3 1     
    3    1    4 1     
    4    1    5 1     
    5    2    6 ar    
    6    2    7 ar    
    7    3    8 1     
    8    3    9 2     
    9    4   10 1     
   10    4   11 2     
   11    5   12 1     
   12    5   18 1     
   13    5   19 1     
   14    6   13 ar    
   15    6   20 1     
   16    7   14 ar    
   17    7   21 1     
   18    8   15 1     
   19    8   22 1     
   20   10   15 1     
   21   10   23 1     
   22   12   24 1     
   23   12   25 1     
   24   12   26 1     
   25   13   16 ar    
   26   13   27 1     
   27   14   16 ar    
   28   14   28 1     
   29   15   17 2     
   30   16   29 1     
@<TRIPOS>SUBSTRUCTURE
      1 RES1           1
@<TRIPOS>SET
DONOR_HYDROGENS      STATIC     ATOMS    <user>   **** ""
2 22 23
ATOM$RED        STATIC     ATOMS    COLORGROUP SYSTEM
2 22 23
@<TRIPOS>COMMENT
> <Gold.Version>
2022.3.0

> <Gold.Id.Protein>
unknown|4v3u_clean|pdb

> <Gold.Protein.RotatedTorsions>
[  594  544  543  542 ] final  -44.40 input   59.98 | X-H torsion
[  739  695  696  697 ] final   52.37 input   98.51 | X-H torsion
[ 2556 2523 2524 2525 ] final -156.78 input  111.11 | X-H torsion
[ 2632 2595 2596 2597 ] final -119.44 input   53.40 | X-H torsion
[ 26082 26043 26042 26040 ] final  -97.33 input   60.02 | X-H torsion
[ 27179 27119 27118 27114 ] final   92.53 input   60.01 | X-H torsion
[ 7425 7411 7412 7413 ] final -118.39 input   83.97 | X-H torsion
[ 7476 7453 7454 7455 ] final  -55.56 input   94.79 | X-H torsion
[ 7522 7511 7512 7513 ] final   74.64 input   85.82 | X-H torsion
[ 17193 17173 17174 17175 ] final  105.68 input   42.33 | X-H torsion
[ 17249 17217 17218 17219 ] final   82.51 input  107.71 | X-H torsion
[ 18293 18271 18272 18273 ] final -125.53 input   26.15 | X-H torsion
[ 18325 18311 18312 18313 ] final -135.07 input   53.27 | X-H torsion
[ 18407 18359 18360 18361 ] final  154.85 input   33.85 | X-H torsion
[ 18493 18451 18452 18453 ] final  -11.77 input  113.35 | X-H torsion
[ 18561 18527 18528 18529 ] final -116.58 input   85.91 | X-H torsion
[ 18501 18462 18461 18459 ] final    4.82 input   59.98 | X-H torsion
[ 18241 18201 18202 18203 ] final  176.22 input   44.19 | X-H torsion
[ 18297 18276 18275 18272 ] final -100.52 input   59.98 | X-H torsion
[ 10103 10092 10091 10088 ] final  -40.08 input   59.98 | X-H torsion
[ 17301 17279 17280 17281 ] final   -4.81 input   44.55 | X-H torsion
[ 16993 16954 16953 16951 ] final  140.16 input   59.99 | X-H torsion
[ 11475 11457 11458 11459 ] final   46.49 input   48.15 | X-H torsion
[ 11539 11523 11524 11525 ] final   35.96 input  117.79 | X-H torsion
[ 11615 11599 11600 11601 ] final  123.42 input   58.98 | X-H torsion
[ 11423 11412 11411 11408 ] final   96.32 input   60.01 | X-H torsion
[ 27181 27121 27120 27118 ] final  137.19 input   60.02 | X-H torsion
[ 10139 10129 10130 10131 ] final   46.30 input   28.23 | X-H torsion
[ 17355 17327 17328 17329 ] final   99.94 input   73.50 | X-H torsion
[ 27201  698  697  696 ] final   16.63 input    0.00 | X-H torsion
[ 27204 2526 2525 2524 ] final  -46.60 input    0.00 | X-H torsion
[ 27228 7328 7327 7326 ] final  107.88 input    0.00 | X-H torsion
[ 27233 7514 7513 7512 ] final   50.22 input    0.00 | X-H torsion
[ 27236 17124 17123 17122 ] final   37.60 input    0.00 | X-H torsion
[ 27240 18204 18203 18202 ] final  178.18 input    0.00 | X-H torsion
[ 27243 18274 18273 18272 ] final    3.19 input    0.00 | X-H torsion
[ 27246 18314 18313 18312 ] final  113.51 input   -0.00 | X-H torsion
[ 27249 18362 18361 18360 ] final  -58.06 input    0.00 | X-H torsion
[ 27257 17176 17175 17174 ] final   97.97 input   -0.00 | X-H torsion
[ 27259 17220 17219 17218 ] final  -52.42 input   -0.00 | X-H torsion
[ 27261 17050 17049 17048 ] final  -18.82 input    0.00 | X-H torsion
[ 27270 10132 10131 10130 ] final -118.72 input    0.00 | X-H torsion
[ 27272 11410 11409 11408 ] final  111.87 input   -0.00 | X-H torsion
[ 27279 11602 11601 11600 ] final  -47.08 input    0.00 | X-H torsion
[ 27288 18684 18683 18682 ] final  -55.50 input   -0.00 | X-H torsion

> <Gold.Protein.ActiveResidues>
 LYS309  TRP311  GLU314  MET341  HIS342  TRP414  ALA417  ARG419  CYS420  VAL421 
 GLY422  ARG423  LEU460  SER462  ALA463  SER482  GLN483  LEU484  ILE485  ARG486 
 ALA502  TRP566  TYR567  LEU569  PRO570  ALA571  VAL572  SER573  ASN574  MET575 
 PHE589  SER590  GLY591  TRP592  TYR593  MET594  GLU597  ILE598  ARG601  ASP602 
 ASP605  ARG608  TRP683  PHE696  HIS697  GLU699  TYR711  ASP714  HEM750  H4B760 

> <Gold.Protein.RotatedAtoms>
  220.1090    8.3799   19.4990 H   0  0  0  0  0  0  0  0  0  0  0  0  # atno 594  bound_to 544 
  221.2359    8.7829   18.3526 H   0  0  0  0  0  0  0  0  0  0  0  0  # atno 595  bound_to 544 
  220.2591    7.4624   18.1270 H   0  0  0  0  0  0  0  0  0  0  0  0  # atno 596  bound_to 544 
  228.2319    7.2171   20.1360 H   0  0  0  0  0  0  0  0  0  0  0  0  # atno 739  bound_to 695 
  225.8966   13.6019   25.6253 H   0  0  0  0  0  0  0  0  0  0  0  0  # atno 2556 bound_to 2523
  223.1689   15.6661   24.8715 H   0  0  0  0  0  0  0  0  0  0  0  0  # atno 2632 bound_to 2595
  229.8089   25.6390   21.9829 H   0  0  0  0  0  0  0  0  0  0  0  0  # atno 7425 bound_to 7411
  232.2620   28.0326   20.7420 H   0  0  0  0  0  0  0  0  0  0  0  0  # atno 7476 bound_to 7453
  232.8247   29.2554   19.3142 H   0  0  0  0  0  0  0  0  0  0  0  0  # atno 7522 bound_to 7511
  230.4421   34.5566   12.1172 H   0  0  0  0  0  0  0  0  0  0  0  0  # atno 10103 bound_to 10092
  226.4720   34.6155   10.6184 H   0  0  0  0  0  0  0  0  0  0  0  0  # atno 10139 bound_to 10129
  222.4723   18.9850    9.6599 H   0  0  0  0  0  0  0  0  0  0  0  0  # atno 11423 bound_to 11412
  221.2821   21.0572    7.9867 H   0  0  0  0  0  0  0  0  0  0  0  0  # atno 11475 bound_to 11457
  223.1042   24.3179    6.7245 H   0  0  0  0  0  0  0  0  0  0  0  0  # atno 11539 bound_to 11523
  223.9274   25.1763    4.5333 H   0  0  0  0  0  0  0  0  0  0  0  0  # atno 11615 bound_to 11599
  227.5210   19.9957    5.9168 H   0  0  0  0  0  0  0  0  0  0  0  0  # atno 16993 bound_to 16954
  226.5854   26.4491    7.5974 H   0  0  0  0  0  0  0  0  0  0  0  0  # atno 17193 bound_to 17173
  224.4695   27.1821   11.4280 H   0  0  0  0  0  0  0  0  0  0  0  0  # atno 17249 bound_to 17217
  220.9441   24.4261   12.1068 H   0  0  0  0  0  0  0  0  0  0  0  0  # atno 17301 bound_to 17279
  219.6406   23.4930   12.5480 H   0  0  0  0  0  0  0  0  0  0  0  0  # atno 17355 bound_to 17327
  220.8716   30.4509   12.0650 H   0  0  0  0  0  0  0  0  0  0  0  0  # atno 18241 bound_to 18201
  224.6039   30.7515   11.7328 H   0  0  0  0  0  0  0  0  0  0  0  0  # atno 18293 bound_to 18271
  225.1198   32.3327    8.3371 H   0  0  0  0  0  0  0  0  0  0  0  0  # atno 18297 bound_to 18276
  227.8889   31.5939   11.1214 H   0  0  0  0  0  0  0  0  0  0  0  0  # atno 18325 bound_to 18311
  231.9036   31.7432   10.5532 H   0  0  0  0  0  0  0  0  0  0  0  0  # atno 18407 bound_to 18359
  234.5629   28.8952    9.9263 H   0  0  0  0  0  0  0  0  0  0  0  0  # atno 18493 bound_to 18451
  230.3713   21.9049    8.5395 H   0  0  0  0  0  0  0  0  0  0  0  0  # atno 18501 bound_to 18462
  236.0313   26.8834   11.4741 H   0  0  0  0  0  0  0  0  0  0  0  0  # atno 18561 bound_to 18527
  224.3794   19.2242   21.1853 H   0  0  0  0  0  0  0  0  0  0  0  0  # atno 26082 bound_to 26043
  231.4751   11.9307   21.6879 H   0  0  0  0  0  0  0  0  0  0  0  0  # atno 27179 bound_to 27119
  229.0810   13.2903   25.1594 H   0  0  0  0  0  0  0  0  0  0  0  0  # atno 27181 bound_to 27121
  226.5803    6.8964   20.5993 LP  0  0  0  0  0  0  0  0  0  0  0  0  # atno 27200 bound_to 695 
  226.3798    8.4858   16.2498 LP  0  0  0  0  0  0  0  0  0  0  0  0  # atno 27201 bound_to 698 
  227.1983    7.1537   15.5044 LP  0  0  0  0  0  0  0  0  0  0  0  0  # atno 27202 bound_to 698 
  224.1902   13.5799   25.9911 LP  0  0  0  0  0  0  0  0  0  0  0  0  # atno 27203 bound_to 2523
  224.1576   17.5490   25.0480 LP  0  0  0  0  0  0  0  0  0  0  0  0  # atno 27204 bound_to 2526
  222.7123   17.4766   24.0962 LP  0  0  0  0  0  0  0  0  0  0  0  0  # atno 27205 bound_to 2526
  222.4541   14.0696   24.9280 LP  0  0  0  0  0  0  0  0  0  0  0  0  # atno 27206 bound_to 2595
  224.3817   20.6116   22.0361 LP  0  0  0  0  0  0  0  0  0  0  0  0  # atno 27210 bound_to 26043
  224.4719   20.6501   20.4061 LP  0  0  0  0  0  0  0  0  0  0  0  0  # atno 27211 bound_to 26043
  230.9677   12.8334   20.4321 LP  0  0  0  0  0  0  0  0  0  0  0  0  # atno 27214 bound_to 27119
  230.0505   11.5962   20.9750 LP  0  0  0  0  0  0  0  0  0  0  0  0  # atno 27215 bound_to 27119
  230.4562   24.4340   20.4802 LP  0  0  0  0  0  0  0  0  0  0  0  0  # atno 27228 bound_to 7328
  231.6568   24.2085   21.7081 LP  0  0  0  0  0  0  0  0  0  0  0  0  # atno 27229 bound_to 7328
  229.8199   27.1530   22.8503 LP  0  0  0  0  0  0  0  0  0  0  0  0  # atno 27230 bound_to 7411
  232.8898   26.5242   20.1203 LP  0  0  0  0  0  0  0  0  0  0  0  0  # atno 27231 bound_to 7453
  234.5108   29.2447   19.7685 LP  0  0  0  0  0  0  0  0  0  0  0  0  # atno 27232 bound_to 7511
  232.7748   33.1181   17.5574 LP  0  0  0  0  0  0  0  0  0  0  0  0  # atno 27233 bound_to 7514
  233.6439   34.0421   18.7368 LP  0  0  0  0  0  0  0  0  0  0  0  0  # atno 27234 bound_to 7514
  228.4496   28.8604    9.2068 LP  0  0  0  0  0  0  0  0  0  0  0  0  # atno 27236 bound_to 17124
  227.2477   28.2941   10.3180 LP  0  0  0  0  0  0  0  0  0  0  0  0  # atno 27237 bound_to 17124
  227.1260   26.2864    9.2498 LP  0  0  0  0  0  0  0  0  0  0  0  0  # atno 27238 bound_to 17173
  224.4374   26.0246   10.1125 LP  0  0  0  0  0  0  0  0  0  0  0  0  # atno 27239 bound_to 17217
  225.1211   28.9573   10.7782 LP  0  0  0  0  0  0  0  0  0  0  0  0  # atno 27240 bound_to 18204
  223.5147   28.7184   11.3803 LP  0  0  0  0  0  0  0  0  0  0  0  0  # atno 27241 bound_to 18204
  224.9218   32.3324   11.0698 LP  0  0  0  0  0  0  0  0  0  0  0  0  # atno 27242 bound_to 18271
  226.5594   33.3507   11.1634 LP  0  0  0  0  0  0  0  0  0  0  0  0  # atno 27243 bound_to 18274
  228.2677   33.4862   11.4151 LP  0  0  0  0  0  0  0  0  0  0  0  0  # atno 27244 bound_to 18274
  228.7364   30.0923   10.8218 LP  0  0  0  0  0  0  0  0  0  0  0  0  # atno 27245 bound_to 18311
  231.3612   32.2396    8.5218 LP  0  0  0  0  0  0  0  0  0  0  0  0  # atno 27246 bound_to 18314
  230.0405   31.1192    8.5465 LP  0  0  0  0  0  0  0  0  0  0  0  0  # atno 27247 bound_to 18314
  231.6690   30.2035   11.3489 LP  0  0  0  0  0  0  0  0  0  0  0  0  # atno 27248 bound_to 18359
  234.1279   29.4751   12.1795 LP  0  0  0  0  0  0  0  0  0  0  0  0  # atno 27249 bound_to 18362
  233.2669   27.9803   12.0230 LP  0  0  0  0  0  0  0  0  0  0  0  0  # atno 27250 bound_to 18362
  233.5321   27.9851    8.8491 LP  0  0  0  0  0  0  0  0  0  0  0  0  # atno 27251 bound_to 18451
  235.2641   25.4371   12.0851 LP  0  0  0  0  0  0  0  0  0  0  0  0  # atno 27252 bound_to 18527
  223.8057   24.6031    8.8259 LP  0  0  0  0  0  0  0  0  0  0  0  0  # atno 27257 bound_to 17176
  222.6951   25.9056    8.5611 LP  0  0  0  0  0  0  0  0  0  0  0  0  # atno 27258 bound_to 17176
  221.7758   27.7770   12.4888 LP  0  0  0  0  0  0  0  0  0  0  0  0  # atno 27259 bound_to 17220
  220.9467   27.6968   10.9701 LP  0  0  0  0  0  0  0  0  0  0  0  0  # atno 27260 bound_to 17220
  227.5969   26.4453    4.6439 LP  0  0  0  0  0  0  0  0  0  0  0  0  # atno 27261 bound_to 17050
  227.9704   25.5495    6.0786 LP  0  0  0  0  0  0  0  0  0  0  0  0  # atno 27262 bound_to 17050
  230.8847   21.7737    7.0011 LP  0  0  0  0  0  0  0  0  0  0  0  0  # atno 27263 bound_to 18462
  229.8601   22.9730    7.4236 LP  0  0  0  0  0  0  0  0  0  0  0  0  # atno 27264 bound_to 18462
  221.9372   29.3839   11.1793 LP  0  0  0  0  0  0  0  0  0  0  0  0  # atno 27265 bound_to 18201
  226.6134   32.3006    7.6911 LP  0  0  0  0  0  0  0  0  0  0  0  0  # atno 27266 bound_to 18276
  226.3907   32.8497    9.2127 LP  0  0  0  0  0  0  0  0  0  0  0  0  # atno 27267 bound_to 18276
  230.4981   35.1336   13.6376 LP  0  0  0  0  0  0  0  0  0  0  0  0  # atno 27268 bound_to 10092
  231.0392   36.0446   12.3950 LP  0  0  0  0  0  0  0  0  0  0  0  0  # atno 27269 bound_to 10092
  223.6194   33.1978   10.8371 LP  0  0  0  0  0  0  0  0  0  0  0  0  # atno 27270 bound_to 10132
  224.8958   33.6427   11.9201 LP  0  0  0  0  0  0  0  0  0  0  0  0  # atno 27271 bound_to 10132
  222.1976   22.4031   11.2160 LP  0  0  0  0  0  0  0  0  0  0  0  0  # atno 27272 bound_to 11410
  220.5940   23.0564   11.1753 LP  0  0  0  0  0  0  0  0  0  0  0  0  # atno 27273 bound_to 11410
  221.5571   25.5275   10.9008 LP  0  0  0  0  0  0  0  0  0  0  0  0  # atno 27274 bound_to 17279
  227.7925   21.2739    6.8863 LP  0  0  0  0  0  0  0  0  0  0  0  0  # atno 27275 bound_to 16954
  228.9864   20.1989    6.5941 LP  0  0  0  0  0  0  0  0  0  0  0  0  # atno 27276 bound_to 16954
  221.1593   21.7127    9.6070 LP  0  0  0  0  0  0  0  0  0  0  0  0  # atno 27277 bound_to 11457
  221.5248   24.6292    7.4008 LP  0  0  0  0  0  0  0  0  0  0  0  0  # atno 27278 bound_to 11523
  226.6328   22.7608    4.4695 LP  0  0  0  0  0  0  0  0  0  0  0  0  # atno 27279 bound_to 11602
  225.7996   21.5090    5.3290 LP  0  0  0  0  0  0  0  0  0  0  0  0  # atno 27280 bound_to 11602
  222.9135   23.7865    4.8305 LP  0  0  0  0  0  0  0  0  0  0  0  0  # atno 27283 bound_to 11599
  221.2360   19.0250    8.6021 LP  0  0  0  0  0  0  0  0  0  0  0  0  # atno 27286 bound_to 11412
  221.4954   17.6920    9.5090 LP  0  0  0  0  0  0  0  0  0  0  0  0  # atno 27287 bound_to 11412
  234.6424   17.6846   11.4935 LP  0  0  0  0  0  0  0  0  0  0  0  0  # atno 27288 bound_to 18684
  233.7181   18.2859   10.1578 LP  0  0  0  0  0  0  0  0  0  0  0  0  # atno 27289 bound_to 18684

> <Gold.Score>
     Fitness  S(hb_ext) S(vdw_ext)  S(hb_int)    S(int)      intcor
     29.30       0.69      21.46       0.00      -0.90      -0.76

> <Gold.Goldscore.Fitness>
29.3010

> <Gold.Goldscore.Internal.Vdw>
-1.1114

> <Gold.Goldscore.Internal.Torsion>
-0.5558

> <Gold.Goldscore.External.Vdw>
21.4645

> <Gold.Goldscore.Internal.HBond>
0.0000

> <Gold.Goldscore.External.HBond>
0.6896

> <Gold.Goldscore.Internal.Correction>
-0.7650

> <Gold.Goldscore.Hbonds>
donor molecule, donor type, donor heavy atom, donor atom, acceptor molecule, acceptor atom, score
      P1  H 19342 19390       L1     9  0.08
      P1  H 11464 11481       L1     9  0.03
      L1  H    10    23       P1 26881  0.03

> <Gold.Goldscore.Internal.Vdw.Weighted>
-1.1114

> <Gold.Goldscore.Internal.Torsion.Weighted>
-0.5558

> <Gold.Goldscore.External.Vdw.Weighted>
29.5136

> <Gold.Goldscore.Internal.HBond.Weighted>
0.0000

> <Gold.Goldscore.External.HBond.Weighted>
0.6896

> <Gold.Goldscore.Internal.Correction.Weighted>
-0.7650

> <Gold.Rescore>
     Score     S(PLP)   S(hbond)     S(cho)   S(metal)  DE(clash)   DE(tors)     intcor
     20.49     -19.42       0.89       0.00       0.00       0.01       0.80       ----

> <Gold.PLP.Fitness>
20.4911

> <Gold.PLP.PLP>
-19.4182

> <Gold.PLP.part.hbond>
-3.1935

> <Gold.PLP.part.metal>
0.0000

> <Gold.PLP.part.buried>
-2.0603

> <Gold.PLP.part.nonpolar>
-16.8626

> <Gold.PLP.part.repulsive>
2.1280

> <Gold.PLP.ligand.clash>
0.0061

> <Gold.PLP.ligand.torsion>
0.7963

> <Gold.PLP.Chemscore.Hbond>
0.8906

> <Gold.PLP.Chemscore.CHOScore>
0.0000

> <Gold.PLP.Chemscore.Metal>
0.0000

> <Gold.Chemscore.Hbonds>
donor molecule, donor type, donor heavy atom, donor atom, acceptor molecule, acceptor atom, score
      L1  H    10    23       P1 26881  0.61
      P1  H 19342 19390       L1     9  0.85

> <Gold.PLP.Chemscore.Internal.Correction>
   9.000000E+99

