#       Name:                CT1002167954
#       Creating user name   hitesit
#       Creation time:       Sun Apr 16 20:25:37 2023


#       File generated by GOLD software.
#

@<TRIPOS>MOLECULE
CT1002167954|ligand_prepared|mol2|1|dock10
    29    30     1
SMALL
NO_CHARGES


@<TRIPOS>ATOM
      1 C1         229.0575  19.8557  11.8529 C.3            1 RES1               0.0000
      2 C2         227.6506  19.3176  12.1843 C.ar           1 RES1               0.0000
      3 C3         229.1529  19.8968  10.3306 C.2            1 RES1               0.0000
      4 C4         229.1594  21.2230  12.5199 C.2            1 RES1               0.0000
      5 C5         230.2071  18.9737  12.3934 C.3            1 RES1               0.0000
      6 C6         227.3469  17.9711  12.0067 C.ar           1 RES1               0.0000
      7 C7         226.6486  20.1534  12.6701 C.ar           1 RES1               0.0000
      8 N8         229.0935  21.1181   9.7266 N.am           1 RES1               0.0000
      9 O9         229.2391  18.8704   9.6678 O.2            1 RES1               0.0000
     10 N10        229.2691  22.3246  11.7124 N.am           1 RES1               0.0000
     11 O11        229.1288  21.3577  13.7369 O.2            1 RES1               0.0000
     12 C12        231.5852  19.5956  12.2316 C.3            1 RES1               0.0000
     13 C13        226.0881  17.4775  12.3066 C.ar           1 RES1               0.0000
     14 C14        225.3903  19.6578  12.9692 C.ar           1 RES1               0.0000
     15 C15        229.2099  22.3368  10.3454 C.2            1 RES1               0.0000
     16 C16        225.1092  18.3202  12.7884 C.ar           1 RES1               0.0000
     17 O17        229.2612  23.3741   9.6908 O.2            1 RES1               0.0000
     18 H18        230.0310  18.7776  13.4583 H              1 RES1               0.0000
     19 H19        230.1904  18.0108  11.8680 H              1 RES1               0.0000
     20 H20        228.1038  17.2933  11.6262 H              1 RES1               0.0000
     21 H21        226.8469  21.2094  12.8192 H              1 RES1               0.0000
     22 H22        228.9491  21.1260   8.7219 H              1 RES1               0.0000
     23 H23        229.4080  23.2184  12.1730 H              1 RES1               0.0000
     24 H24        232.3549  18.9360  12.6267 H              1 RES1               0.0000
     25 H25        231.8039  19.7810  11.1820 H              1 RES1               0.0000
     26 H26        231.6455  20.5432  12.7628 H              1 RES1               0.0000
     27 H27        225.8715  16.4243  12.1613 H              1 RES1               0.0000
     28 H28        224.6228  20.3248  13.3476 H              1 RES1               0.0000
     29 H29        224.1232  17.9332  13.0237 H              1 RES1               0.0000
@<TRIPOS>BOND
    1    1    2 1     
    2    1    3 1     
    3    1    4 1     
    4    1    5 1     
    5    2    6 ar    
    6    2    7 ar    
    7    3    8 1     
    8    3    9 2     
    9    4   10 1     
   10    4   11 2     
   11    5   12 1     
   12    5   18 1     
   13    5   19 1     
   14    6   13 ar    
   15    6   20 1     
   16    7   14 ar    
   17    7   21 1     
   18    8   15 1     
   19    8   22 1     
   20   10   15 1     
   21   10   23 1     
   22   12   24 1     
   23   12   25 1     
   24   12   26 1     
   25   13   16 ar    
   26   13   27 1     
   27   14   16 ar    
   28   14   28 1     
   29   15   17 2     
   30   16   29 1     
@<TRIPOS>SUBSTRUCTURE
      1 RES1           1
@<TRIPOS>SET
DONOR_HYDROGENS      STATIC     ATOMS    <user>   **** ""
2 22 23
ATOM$RED        STATIC     ATOMS    COLORGROUP SYSTEM
2 22 23
@<TRIPOS>COMMENT
> <Gold.Version>
2022.3.0

> <Gold.Id.Protein>
unknown|4v3u_clean|pdb

> <Gold.Protein.RotatedTorsions>
[  594  544  543  542 ] final   39.46 input   59.98 | X-H torsion
[  739  695  696  697 ] final  -83.93 input   98.51 | X-H torsion
[ 2556 2523 2524 2525 ] final   15.93 input  111.11 | X-H torsion
[ 2632 2595 2596 2597 ] final -142.15 input   53.40 | X-H torsion
[ 26082 26043 26042 26040 ] final  114.42 input   60.02 | X-H torsion
[ 27179 27119 27118 27114 ] final -151.45 input   60.01 | X-H torsion
[ 7425 7411 7412 7413 ] final  -27.08 input   83.97 | X-H torsion
[ 7476 7453 7454 7455 ] final  -65.58 input   94.79 | X-H torsion
[ 7522 7511 7512 7513 ] final -132.10 input   85.82 | X-H torsion
[ 17193 17173 17174 17175 ] final -121.21 input   42.33 | X-H torsion
[ 17249 17217 17218 17219 ] final    4.04 input  107.71 | X-H torsion
[ 18293 18271 18272 18273 ] final  -95.15 input   26.15 | X-H torsion
[ 18325 18311 18312 18313 ] final  -72.19 input   53.27 | X-H torsion
[ 18407 18359 18360 18361 ] final  116.51 input   33.85 | X-H torsion
[ 18493 18451 18452 18453 ] final  -20.69 input  113.35 | X-H torsion
[ 18561 18527 18528 18529 ] final  179.21 input   85.91 | X-H torsion
[ 18501 18462 18461 18459 ] final  162.89 input   59.98 | X-H torsion
[ 18241 18201 18202 18203 ] final  102.16 input   44.19 | X-H torsion
[ 18297 18276 18275 18272 ] final   46.39 input   59.98 | X-H torsion
[ 10103 10092 10091 10088 ] final   24.17 input   59.98 | X-H torsion
[ 17301 17279 17280 17281 ] final   13.51 input   44.55 | X-H torsion
[ 16993 16954 16953 16951 ] final  101.42 input   59.99 | X-H torsion
[ 11475 11457 11458 11459 ] final  169.12 input   48.15 | X-H torsion
[ 11539 11523 11524 11525 ] final  120.37 input  117.79 | X-H torsion
[ 11615 11599 11600 11601 ] final -111.14 input   58.98 | X-H torsion
[ 11423 11412 11411 11408 ] final   67.29 input   60.01 | X-H torsion
[ 27181 27121 27120 27118 ] final -174.19 input   60.02 | X-H torsion
[ 10139 10129 10130 10131 ] final  -72.68 input   28.23 | X-H torsion
[ 17355 17327 17328 17329 ] final   37.27 input   73.50 | X-H torsion
[ 27201  698  697  696 ] final   24.22 input    0.00 | X-H torsion
[ 27204 2526 2525 2524 ] final   -0.91 input    0.00 | X-H torsion
[ 27228 7328 7327 7326 ] final  111.25 input    0.00 | X-H torsion
[ 27233 7514 7513 7512 ] final  -39.37 input    0.00 | X-H torsion
[ 27236 17124 17123 17122 ] final -115.06 input    0.00 | X-H torsion
[ 27240 18204 18203 18202 ] final  -19.63 input    0.00 | X-H torsion
[ 27243 18274 18273 18272 ] final -119.46 input    0.00 | X-H torsion
[ 27246 18314 18313 18312 ] final   46.49 input   -0.00 | X-H torsion
[ 27249 18362 18361 18360 ] final  160.37 input    0.00 | X-H torsion
[ 27257 17176 17175 17174 ] final  172.44 input   -0.00 | X-H torsion
[ 27259 17220 17219 17218 ] final   57.14 input   -0.00 | X-H torsion
[ 27261 17050 17049 17048 ] final  158.25 input    0.00 | X-H torsion
[ 27270 10132 10131 10130 ] final   57.11 input    0.00 | X-H torsion
[ 27272 11410 11409 11408 ] final  179.47 input   -0.00 | X-H torsion
[ 27279 11602 11601 11600 ] final   65.39 input    0.00 | X-H torsion
[ 27288 18684 18683 18682 ] final  -44.46 input   -0.00 | X-H torsion

> <Gold.Protein.ActiveResidues>
 LYS309  TRP311  GLU314  MET341  HIS342  TRP414  ALA417  ARG419  CYS420  VAL421 
 GLY422  ARG423  LEU460  SER462  ALA463  SER482  GLN483  LEU484  ILE485  ARG486 
 ALA502  TRP566  TYR567  LEU569  PRO570  ALA571  VAL572  SER573  ASN574  MET575 
 PHE589  SER590  GLY591  TRP592  TYR593  MET594  GLU597  ILE598  ARG601  ASP602 
 ASP605  ARG608  TRP683  PHE696  HIS697  GLU699  TYR711  ASP714  HEM750  H4B760 

> <Gold.Protein.RotatedAtoms>
  221.0500    8.9845   18.8787 H   0  0  0  0  0  0  0  0  0  0  0  0  # atno 594  bound_to 544 
  220.6964    7.7436   17.8387 H   0  0  0  0  0  0  0  0  0  0  0  0  # atno 595  bound_to 544 
  219.8584    7.8979   19.2608 H   0  0  0  0  0  0  0  0  0  0  0  0  # atno 596  bound_to 544 
  226.8271    6.3962   20.2663 H   0  0  0  0  0  0  0  0  0  0  0  0  # atno 739  bound_to 695 
  224.2004   13.6542   26.0743 H   0  0  0  0  0  0  0  0  0  0  0  0  # atno 2556 bound_to 2523
  223.0898   15.6140   24.5344 H   0  0  0  0  0  0  0  0  0  0  0  0  # atno 2632 bound_to 2595
  230.6054   26.2244   22.7595 H   0  0  0  0  0  0  0  0  0  0  0  0  # atno 7425 bound_to 7411
  232.2593   27.9596   20.8784 H   0  0  0  0  0  0  0  0  0  0  0  0  # atno 7476 bound_to 7453
  234.5206   29.0222   19.4312 H   0  0  0  0  0  0  0  0  0  0  0  0  # atno 7522 bound_to 7511
  230.8435   35.4155   11.8137 H   0  0  0  0  0  0  0  0  0  0  0  0  # atno 10103 bound_to 10092
  226.6329   35.6385   11.7308 H   0  0  0  0  0  0  0  0  0  0  0  0  # atno 10139 bound_to 10129
  222.3075   19.3038    9.3571 H   0  0  0  0  0  0  0  0  0  0  0  0  # atno 11423 bound_to 11412
  221.8093   21.1993    9.4554 H   0  0  0  0  0  0  0  0  0  0  0  0  # atno 11475 bound_to 11457
  222.6578   25.2463    7.3078 H   0  0  0  0  0  0  0  0  0  0  0  0  # atno 11539 bound_to 11523
  222.6404   24.3177    4.2980 H   0  0  0  0  0  0  0  0  0  0  0  0  # atno 11615 bound_to 11599
  227.2199   20.4898    6.1418 H   0  0  0  0  0  0  0  0  0  0  0  0  # atno 16993 bound_to 16954
  227.3376   26.8827    8.9625 H   0  0  0  0  0  0  0  0  0  0  0  0  # atno 17193 bound_to 17173
  223.7872   27.1421   10.5272 H   0  0  0  0  0  0  0  0  0  0  0  0  # atno 17249 bound_to 17217
  220.9421   24.2552   11.8853 H   0  0  0  0  0  0  0  0  0  0  0  0  # atno 17301 bound_to 17279
  219.5661   24.1623   13.1654 H   0  0  0  0  0  0  0  0  0  0  0  0  # atno 17355 bound_to 17327
  221.4481   29.6441   12.4608 H   0  0  0  0  0  0  0  0  0  0  0  0  # atno 18241 bound_to 18201
  224.8536   30.9677   12.0517 H   0  0  0  0  0  0  0  0  0  0  0  0  # atno 18293 bound_to 18271
  226.7404   32.7981    8.9552 H   0  0  0  0  0  0  0  0  0  0  0  0  # atno 18297 bound_to 18276
  228.1723   31.3599   10.2699 H   0  0  0  0  0  0  0  0  0  0  0  0  # atno 18325 bound_to 18311
  232.2878   31.6922   10.9879 H   0  0  0  0  0  0  0  0  0  0  0  0  # atno 18407 bound_to 18359
  234.4590   28.8868   10.0155 H   0  0  0  0  0  0  0  0  0  0  0  0  # atno 18493 bound_to 18451
  230.1553   22.7638    6.9292 H   0  0  0  0  0  0  0  0  0  0  0  0  # atno 18501 bound_to 18462
  235.6381   26.8489   12.3265 H   0  0  0  0  0  0  0  0  0  0  0  0  # atno 18561 bound_to 18527
  224.4077   20.9440   21.7211 H   0  0  0  0  0  0  0  0  0  0  0  0  # atno 26082 bound_to 26043
  230.0767   11.5662   21.0271 H   0  0  0  0  0  0  0  0  0  0  0  0  # atno 27179 bound_to 27119
  229.7813   13.5146   25.3916 H   0  0  0  0  0  0  0  0  0  0  0  0  # atno 27181 bound_to 27121
  227.9634    7.7048   20.4710 LP  0  0  0  0  0  0  0  0  0  0  0  0  # atno 27200 bound_to 695 
  226.4757    8.5456   16.2306 LP  0  0  0  0  0  0  0  0  0  0  0  0  # atno 27201 bound_to 698 
  227.1023    7.0939   15.5236 LP  0  0  0  0  0  0  0  0  0  0  0  0  # atno 27202 bound_to 698 
  225.8601   13.5284   25.5491 LP  0  0  0  0  0  0  0  0  0  0  0  0  # atno 27203 bound_to 2523
  224.2813   17.5034   24.3886 LP  0  0  0  0  0  0  0  0  0  0  0  0  # atno 27204 bound_to 2526
  222.5887   17.5222   24.7556 LP  0  0  0  0  0  0  0  0  0  0  0  0  # atno 27205 bound_to 2526
  222.5307   14.1201   25.2545 LP  0  0  0  0  0  0  0  0  0  0  0  0  # atno 27206 bound_to 2595
  224.4646   20.2108   20.2692 LP  0  0  0  0  0  0  0  0  0  0  0  0  # atno 27210 bound_to 26043
  224.3604   19.3196   21.6336 LP  0  0  0  0  0  0  0  0  0  0  0  0  # atno 27211 bound_to 26043
  231.5155   11.9780   21.6673 LP  0  0  0  0  0  0  0  0  0  0  0  0  # atno 27214 bound_to 27119
  230.9100   12.8184   20.4048 LP  0  0  0  0  0  0  0  0  0  0  0  0  # atno 27215 bound_to 27119
  230.4820   24.4752   20.4647 LP  0  0  0  0  0  0  0  0  0  0  0  0  # atno 27228 bound_to 7328
  231.6310   24.1672   21.7236 LP  0  0  0  0  0  0  0  0  0  0  0  0  # atno 27229 bound_to 7328
  229.0351   26.5761   22.0850 LP  0  0  0  0  0  0  0  0  0  0  0  0  # atno 27230 bound_to 7411
  232.8924   26.5954   19.9873 LP  0  0  0  0  0  0  0  0  0  0  0  0  # atno 27231 bound_to 7453
  232.8483   29.4733   19.6538 LP  0  0  0  0  0  0  0  0  0  0  0  0  # atno 27232 bound_to 7511
  233.9472   33.4121   17.7259 LP  0  0  0  0  0  0  0  0  0  0  0  0  # atno 27233 bound_to 7514
  232.4715   33.7481   18.5682 LP  0  0  0  0  0  0  0  0  0  0  0  0  # atno 27234 bound_to 7514
  227.5968   28.1406   10.4666 LP  0  0  0  0  0  0  0  0  0  0  0  0  # atno 27236 bound_to 17124
  228.1006   29.0139    9.0582 LP  0  0  0  0  0  0  0  0  0  0  0  0  # atno 27237 bound_to 17124
  226.3885   25.8613    7.9112 LP  0  0  0  0  0  0  0  0  0  0  0  0  # atno 27238 bound_to 17173
  225.0926   26.0630   10.9775 LP  0  0  0  0  0  0  0  0  0  0  0  0  # atno 27239 bound_to 17217
  223.6501   28.6867   11.6096 LP  0  0  0  0  0  0  0  0  0  0  0  0  # atno 27240 bound_to 18204
  224.9856   28.9890   10.5489 LP  0  0  0  0  0  0  0  0  0  0  0  0  # atno 27241 bound_to 18204
  224.6746   32.1184   10.7541 LP  0  0  0  0  0  0  0  0  0  0  0  0  # atno 27242 bound_to 18271
  227.9672   33.6002   10.6486 LP  0  0  0  0  0  0  0  0  0  0  0  0  # atno 27243 bound_to 18274
  226.8598   33.2366   11.9299 LP  0  0  0  0  0  0  0  0  0  0  0  0  # atno 27244 bound_to 18274
  228.4619   30.3190   11.6467 LP  0  0  0  0  0  0  0  0  0  0  0  0  # atno 27245 bound_to 18311
  230.4628   32.4872    8.7360 LP  0  0  0  0  0  0  0  0  0  0  0  0  # atno 27246 bound_to 18314
  230.9390   30.8716    8.3323 LP  0  0  0  0  0  0  0  0  0  0  0  0  # atno 27247 bound_to 18314
  231.2955   30.2531   10.9264 LP  0  0  0  0  0  0  0  0  0  0  0  0  # atno 27248 bound_to 18359
  233.8272   27.8762   12.0116 LP  0  0  0  0  0  0  0  0  0  0  0  0  # atno 27249 bound_to 18362
  233.5676   29.5793   12.1909 LP  0  0  0  0  0  0  0  0  0  0  0  0  # atno 27250 bound_to 18362
  233.6339   27.9933    8.7617 LP  0  0  0  0  0  0  0  0  0  0  0  0  # atno 27251 bound_to 18451
  235.6484   25.4708   11.2520 LP  0  0  0  0  0  0  0  0  0  0  0  0  # atno 27252 bound_to 18527
  222.9623   24.8439    9.3996 LP  0  0  0  0  0  0  0  0  0  0  0  0  # atno 27257 bound_to 17176
  223.5386   25.6647    7.9874 LP  0  0  0  0  0  0  0  0  0  0  0  0  # atno 27258 bound_to 17176
  221.9183   27.8979   11.0862 LP  0  0  0  0  0  0  0  0  0  0  0  0  # atno 27259 bound_to 17220
  220.8042   27.5759   12.3727 LP  0  0  0  0  0  0  0  0  0  0  0  0  # atno 27260 bound_to 17220
  228.0020   25.5285    6.0558 LP  0  0  0  0  0  0  0  0  0  0  0  0  # atno 27261 bound_to 17050
  227.5652   26.4663    4.6666 LP  0  0  0  0  0  0  0  0  0  0  0  0  # atno 27262 bound_to 17050
  230.0054   22.3952    8.5069 LP  0  0  0  0  0  0  0  0  0  0  0  0  # atno 27263 bound_to 18462
  230.9570   21.4863    7.5400 LP  0  0  0  0  0  0  0  0  0  0  0  0  # atno 27264 bound_to 18462
  221.3763   30.1688   10.7942 LP  0  0  0  0  0  0  0  0  0  0  0  0  # atno 27265 bound_to 18201
  225.1556   32.4950    8.7416 LP  0  0  0  0  0  0  0  0  0  0  0  0  # atno 27266 bound_to 18276
  226.2177   32.1870    7.5401 LP  0  0  0  0  0  0  0  0  0  0  0  0  # atno 27267 bound_to 18276
  230.2794   34.4187   12.9695 LP  0  0  0  0  0  0  0  0  0  0  0  0  # atno 27268 bound_to 10092
  230.8536   35.8944   13.3688 LP  0  0  0  0  0  0  0  0  0  0  0  0  # atno 27269 bound_to 10092
  224.9341   33.6449   11.8703 LP  0  0  0  0  0  0  0  0  0  0  0  0  # atno 27270 bound_to 10132
  223.5810   33.1957   10.8869 LP  0  0  0  0  0  0  0  0  0  0  0  0  # atno 27271 bound_to 10132
  221.9404   23.1593   10.6771 LP  0  0  0  0  0  0  0  0  0  0  0  0  # atno 27272 bound_to 11410
  220.8512   22.3002   11.7142 LP  0  0  0  0  0  0  0  0  0  0  0  0  # atno 27273 bound_to 11410
  221.5592   25.6960   11.1193 LP  0  0  0  0  0  0  0  0  0  0  0  0  # atno 27274 bound_to 17279
  228.3910   21.1761    7.0391 LP  0  0  0  0  0  0  0  0  0  0  0  0  # atno 27275 bound_to 16954
  228.6912   19.7989    6.2146 LP  0  0  0  0  0  0  0  0  0  0  0  0  # atno 27276 bound_to 16954
  220.6522   21.5761    8.1945 LP  0  0  0  0  0  0  0  0  0  0  0  0  # atno 27277 bound_to 11457
  221.9631   23.7178    6.8282 LP  0  0  0  0  0  0  0  0  0  0  0  0  # atno 27278 bound_to 11523
  225.6714   22.4485    5.4950 LP  0  0  0  0  0  0  0  0  0  0  0  0  # atno 27279 bound_to 11602
  226.7610   21.8212    4.3036 LP  0  0  0  0  0  0  0  0  0  0  0  0  # atno 27280 bound_to 11602
  224.1787   24.6305    5.0619 LP  0  0  0  0  0  0  0  0  0  0  0  0  # atno 27283 bound_to 11599
  221.0233   18.6048    8.6420 LP  0  0  0  0  0  0  0  0  0  0  0  0  # atno 27286 bound_to 11412
  221.8740   17.7914    9.7739 LP  0  0  0  0  0  0  0  0  0  0  0  0  # atno 27287 bound_to 11412
  234.5224   17.7531   11.5866 LP  0  0  0  0  0  0  0  0  0  0  0  0  # atno 27288 bound_to 18684
  233.8380   18.2174   10.0647 LP  0  0  0  0  0  0  0  0  0  0  0  0  # atno 27289 bound_to 18684

> <Gold.Score>
     Fitness  S(hb_ext) S(vdw_ext)  S(hb_int)    S(int)      intcor
     34.92       4.28      23.26       0.00      -1.34      -0.76

> <Gold.Goldscore.Fitness>
34.9211

> <Gold.Goldscore.Internal.Vdw>
-1.6496

> <Gold.Goldscore.Internal.Torsion>
-0.4595

> <Gold.Goldscore.External.Vdw>
23.2604

> <Gold.Goldscore.Internal.HBond>
0.0000

> <Gold.Goldscore.External.HBond>
4.2821

> <Gold.Goldscore.Internal.Correction>
-0.7650

> <Gold.Goldscore.Hbonds>
donor molecule, donor type, donor heavy atom, donor atom, acceptor molecule, acceptor atom, score
      P1  H 19342 19390       L1     9  0.03
      P1  H 11464 11481       L1     9  0.12
      P1  H 19343 19392       L1     9  0.39
      L1  H     8    22       P1 16954  0.74

> <Gold.Goldscore.Internal.Vdw.Weighted>
-1.6496

> <Gold.Goldscore.Internal.Torsion.Weighted>
-0.4595

> <Gold.Goldscore.External.Vdw.Weighted>
31.9831

> <Gold.Goldscore.Internal.HBond.Weighted>
0.0000

> <Gold.Goldscore.External.HBond.Weighted>
4.2821

> <Gold.Goldscore.Internal.Correction.Weighted>
-0.7650

> <Gold.Rescore>
     Score     S(PLP)   S(hbond)     S(cho)   S(metal)  DE(clash)   DE(tors)     intcor
     10.14     -10.62       0.34       0.00       0.00       1.32       0.08       ----

> <Gold.PLP.Fitness>
10.1380

> <Gold.PLP.PLP>
-10.6154

> <Gold.PLP.part.hbond>
-3.2295

> <Gold.PLP.part.metal>
0.0000

> <Gold.PLP.part.buried>
3.9112

> <Gold.PLP.part.nonpolar>
-17.0418

> <Gold.PLP.part.repulsive>
6.2391

> <Gold.PLP.ligand.clash>
1.3183

> <Gold.PLP.ligand.torsion>
0.0835

> <Gold.PLP.Chemscore.Hbond>
0.3360

> <Gold.PLP.Chemscore.CHOScore>
0.0000

> <Gold.PLP.Chemscore.Metal>
0.0000

> <Gold.Chemscore.Hbonds>
donor molecule, donor type, donor heavy atom, donor atom, acceptor molecule, acceptor atom, score
      L1  H     8    22       P1 18462  0.07

> <Gold.PLP.Chemscore.Internal.Correction>
   9.000000E+99

