#       Name:                CT1002167954
#       Creating user name   hitesit
#       Creation time:       Sun Apr 16 20:25:36 2023


#       File generated by GOLD software.
#

@<TRIPOS>MOLECULE
CT1002167954|ligand_prepared|mol2|1|dock9
    29    30     1
SMALL
NO_CHARGES


@<TRIPOS>ATOM
      1 C1         228.5189  20.9236  12.1231 C.3            1 RES1               0.0000
      2 C2         227.3444  20.3236  12.9227 C.ar           1 RES1               0.0000
      3 C3         229.5466  21.3849  13.1524 C.2            1 RES1               0.0000
      4 C4         229.0165  19.8165  11.2003 C.2            1 RES1               0.0000
      5 C5         228.1239  22.1348  11.2465 C.3            1 RES1               0.0000
      6 C6         226.0917  20.9294  12.9039 C.ar           1 RES1               0.0000
      7 C7         227.4974  19.1654  13.6802 C.ar           1 RES1               0.0000
      8 N8         230.6804  20.6398  13.2910 N.am           1 RES1               0.0000
      9 O9         229.3472  22.3650  13.8594 O.2            1 RES1               0.0000
     10 N10        230.2770  19.3224  11.4118 N.am           1 RES1               0.0000
     11 O11        228.3221  19.3562  10.3024 O.2            1 RES1               0.0000
     12 C12        229.2618  22.6701  10.3917 C.3            1 RES1               0.0000
     13 C13        225.0295  20.3951  13.6143 C.ar           1 RES1               0.0000
     14 C14        226.4339  18.6329  14.3900 C.ar           1 RES1               0.0000
     15 C15        231.1198  19.6625  12.4347 C.2            1 RES1               0.0000
     16 C16        225.1997  19.2464  14.3573 C.ar           1 RES1               0.0000
     17 O17        232.2170  19.1342  12.5904 O.2            1 RES1               0.0000
     18 H18        227.2968  21.8399  10.5889 H              1 RES1               0.0000
     19 H19        227.7632  22.9399  11.8985 H              1 RES1               0.0000
     20 H20        225.9394  21.8353  12.3268 H              1 RES1               0.0000
     21 H21        228.4596  18.6664  13.7215 H              1 RES1               0.0000
     22 H22        231.2546  20.8265  14.1070 H              1 RES1               0.0000
     23 H23        230.6186  18.6376  10.7450 H              1 RES1               0.0000
     24 H24        228.9310  23.5187   9.7966 H              1 RES1               0.0000
     25 H25        230.0920  22.9961  11.0148 H              1 RES1               0.0000
     26 H26        229.6284  21.9027   9.7130 H              1 RES1               0.0000
     27 H27        224.0605  20.8825  13.5863 H              1 RES1               0.0000
     28 H28        226.5725  17.7290  14.9740 H              1 RES1               0.0000
     29 H29        224.3673  18.8278  14.9134 H              1 RES1               0.0000
@<TRIPOS>BOND
    1    1    2 1     
    2    1    3 1     
    3    1    4 1     
    4    1    5 1     
    5    2    6 ar    
    6    2    7 ar    
    7    3    8 1     
    8    3    9 2     
    9    4   10 1     
   10    4   11 2     
   11    5   12 1     
   12    5   18 1     
   13    5   19 1     
   14    6   13 ar    
   15    6   20 1     
   16    7   14 ar    
   17    7   21 1     
   18    8   15 1     
   19    8   22 1     
   20   10   15 1     
   21   10   23 1     
   22   12   24 1     
   23   12   25 1     
   24   12   26 1     
   25   13   16 ar    
   26   13   27 1     
   27   14   16 ar    
   28   14   28 1     
   29   15   17 2     
   30   16   29 1     
@<TRIPOS>SUBSTRUCTURE
      1 RES1           1
@<TRIPOS>SET
DONOR_HYDROGENS      STATIC     ATOMS    <user>   **** ""
2 22 23
ATOM$RED        STATIC     ATOMS    COLORGROUP SYSTEM
2 22 23
@<TRIPOS>COMMENT
> <Gold.Version>
2022.3.0

> <Gold.Id.Protein>
unknown|4v3u_clean|pdb

> <Gold.Protein.RotatedTorsions>
[  594  544  543  542 ] final   46.25 input   59.98 | X-H torsion
[  739  695  696  697 ] final  152.48 input   98.51 | X-H torsion
[ 2556 2523 2524 2525 ] final  107.42 input  111.11 | X-H torsion
[ 2632 2595 2596 2597 ] final  165.46 input   53.40 | X-H torsion
[ 26082 26043 26042 26040 ] final   52.41 input   60.02 | X-H torsion
[ 27179 27119 27118 27114 ] final   10.50 input   60.01 | X-H torsion
[ 7425 7411 7412 7413 ] final  -92.83 input   83.97 | X-H torsion
[ 7476 7453 7454 7455 ] final   44.26 input   94.79 | X-H torsion
[ 7522 7511 7512 7513 ] final -172.99 input   85.82 | X-H torsion
[ 17193 17173 17174 17175 ] final  -65.99 input   42.33 | X-H torsion
[ 17249 17217 17218 17219 ] final  -24.75 input  107.71 | X-H torsion
[ 18293 18271 18272 18273 ] final  -18.62 input   26.15 | X-H torsion
[ 18325 18311 18312 18313 ] final   91.86 input   53.27 | X-H torsion
[ 18407 18359 18360 18361 ] final  -94.00 input   33.85 | X-H torsion
[ 18493 18451 18452 18453 ] final  145.59 input  113.35 | X-H torsion
[ 18561 18527 18528 18529 ] final  121.98 input   85.91 | X-H torsion
[ 18501 18462 18461 18459 ] final -107.70 input   59.98 | X-H torsion
[ 18241 18201 18202 18203 ] final   40.97 input   44.19 | X-H torsion
[ 18297 18276 18275 18272 ] final  107.45 input   59.98 | X-H torsion
[ 10103 10092 10091 10088 ] final  -31.46 input   59.98 | X-H torsion
[ 17301 17279 17280 17281 ] final  -99.03 input   44.55 | X-H torsion
[ 16993 16954 16953 16951 ] final  -41.25 input   59.99 | X-H torsion
[ 11475 11457 11458 11459 ] final -156.49 input   48.15 | X-H torsion
[ 11539 11523 11524 11525 ] final  -84.73 input  117.79 | X-H torsion
[ 11615 11599 11600 11601 ] final -131.32 input   58.98 | X-H torsion
[ 11423 11412 11411 11408 ] final -166.47 input   60.01 | X-H torsion
[ 27181 27121 27120 27118 ] final  -31.16 input   60.02 | X-H torsion
[ 10139 10129 10130 10131 ] final   59.34 input   28.23 | X-H torsion
[ 17355 17327 17328 17329 ] final -108.45 input   73.50 | X-H torsion
[ 27201  698  697  696 ] final -106.25 input    0.00 | X-H torsion
[ 27204 2526 2525 2524 ] final -158.20 input    0.00 | X-H torsion
[ 27228 7328 7327 7326 ] final   83.63 input    0.00 | X-H torsion
[ 27233 7514 7513 7512 ] final -124.84 input    0.00 | X-H torsion
[ 27236 17124 17123 17122 ] final   83.32 input    0.00 | X-H torsion
[ 27240 18204 18203 18202 ] final   85.46 input    0.00 | X-H torsion
[ 27243 18274 18273 18272 ] final -179.08 input    0.00 | X-H torsion
[ 27246 18314 18313 18312 ] final  170.35 input   -0.00 | X-H torsion
[ 27249 18362 18361 18360 ] final   20.10 input    0.00 | X-H torsion
[ 27257 17176 17175 17174 ] final -100.43 input   -0.00 | X-H torsion
[ 27259 17220 17219 17218 ] final   33.60 input   -0.00 | X-H torsion
[ 27261 17050 17049 17048 ] final  -37.46 input    0.00 | X-H torsion
[ 27270 10132 10131 10130 ] final   56.09 input    0.00 | X-H torsion
[ 27272 11410 11409 11408 ] final  -74.34 input   -0.00 | X-H torsion
[ 27279 11602 11601 11600 ] final  -28.50 input    0.00 | X-H torsion
[ 27288 18684 18683 18682 ] final  -23.56 input   -0.00 | X-H torsion

> <Gold.Protein.ActiveResidues>
 LYS309  TRP311  GLU314  MET341  HIS342  TRP414  ALA417  ARG419  CYS420  VAL421 
 GLY422  ARG423  LEU460  SER462  ALA463  SER482  GLN483  LEU484  ILE485  ARG486 
 ALA502  TRP566  TYR567  LEU569  PRO570  ALA571  VAL572  SER573  ASN574  MET575 
 PHE589  SER590  GLY591  TRP592  TYR593  MET594  GLU597  ILE598  ARG601  ASP602 
 ASP605  ARG608  TRP683  PHE696  HIS697  GLU699  TYR711  ASP714  HEM750  H4B760 

> <Gold.Protein.RotatedAtoms>
  221.1037    8.9685   18.7801 H   0  0  0  0  0  0  0  0  0  0  0  0  # atno 594  bound_to 544 
  220.6139    7.6726   17.8705 H   0  0  0  0  0  0  0  0  0  0  0  0  # atno 595  bound_to 544 
  219.8873    7.9849   19.3275 H   0  0  0  0  0  0  0  0  0  0  0  0  # atno 596  bound_to 544 
  227.2157    7.7955   20.8074 H   0  0  0  0  0  0  0  0  0  0  0  0  # atno 739  bound_to 695 
  224.8283   12.9689   25.2237 H   0  0  0  0  0  0  0  0  0  0  0  0  # atno 2556 bound_to 2523
  222.7670   15.0927   24.0445 H   0  0  0  0  0  0  0  0  0  0  0  0  # atno 2632 bound_to 2595
  230.1513   25.6302   22.1670 H   0  0  0  0  0  0  0  0  0  0  0  0  # atno 7425 bound_to 7411
  232.6816   27.4874   19.5756 H   0  0  0  0  0  0  0  0  0  0  0  0  # atno 7476 bound_to 7453
  234.1728   28.7890   18.9793 H   0  0  0  0  0  0  0  0  0  0  0  0  # atno 7522 bound_to 7511
  230.4910   34.6426   12.0172 H   0  0  0  0  0  0  0  0  0  0  0  0  # atno 10103 bound_to 10092
  226.5264   34.6824   10.4377 H   0  0  0  0  0  0  0  0  0  0  0  0  # atno 10139 bound_to 10129
  221.7901   17.7582    9.7250 H   0  0  0  0  0  0  0  0  0  0  0  0  # atno 11423 bound_to 11412
  221.4615   21.5402    9.6595 H   0  0  0  0  0  0  0  0  0  0  0  0  # atno 11475 bound_to 11457
  221.6652   23.8747    7.0042 H   0  0  0  0  0  0  0  0  0  0  0  0  # atno 11539 bound_to 11523
  222.7147   24.5848    4.1626 H   0  0  0  0  0  0  0  0  0  0  0  0  # atno 11615 bound_to 11599
  228.6936   20.9671    7.0055 H   0  0  0  0  0  0  0  0  0  0  0  0  # atno 16993 bound_to 16954
  227.0698   26.1725    9.2653 H   0  0  0  0  0  0  0  0  0  0  0  0  # atno 17193 bound_to 17173
  223.7906   26.8333   10.2076 H   0  0  0  0  0  0  0  0  0  0  0  0  # atno 17249 bound_to 17217
  221.3366   25.6507   12.0610 H   0  0  0  0  0  0  0  0  0  0  0  0  # atno 17301 bound_to 17279
  218.4199   24.5473   12.0007 H   0  0  0  0  0  0  0  0  0  0  0  0  # atno 17355 bound_to 17327
  221.9358   29.2270   11.8267 H   0  0  0  0  0  0  0  0  0  0  0  0  # atno 18241 bound_to 18201
  225.2345   31.9821   11.9958 H   0  0  0  0  0  0  0  0  0  0  0  0  # atno 18293 bound_to 18271
  226.9119   32.4857    8.0727 H   0  0  0  0  0  0  0  0  0  0  0  0  # atno 18297 bound_to 18276
  228.5901   30.1709   11.4993 H   0  0  0  0  0  0  0  0  0  0  0  0  # atno 18325 bound_to 18311
  231.1328   30.4997   10.5724 H   0  0  0  0  0  0  0  0  0  0  0  0  # atno 18407 bound_to 18359
  233.8043   28.0171    8.6425 H   0  0  0  0  0  0  0  0  0  0  0  0  # atno 18493 bound_to 18451
  230.9163   21.7019    7.0955 H   0  0  0  0  0  0  0  0  0  0  0  0  # atno 18501 bound_to 18462
  235.2779   26.1287   12.5874 H   0  0  0  0  0  0  0  0  0  0  0  0  # atno 18561 bound_to 18527
  224.4614   20.9793   20.7585 H   0  0  0  0  0  0  0  0  0  0  0  0  # atno 26082 bound_to 26043
  231.4419   12.7972   20.8163 H   0  0  0  0  0  0  0  0  0  0  0  0  # atno 27179 bound_to 27119
  229.6811   14.6326   24.0146 H   0  0  0  0  0  0  0  0  0  0  0  0  # atno 27181 bound_to 27121
  227.5808    6.3270   19.9382 LP  0  0  0  0  0  0  0  0  0  0  0  0  # atno 27200 bound_to 695 
  226.4241    7.0409   15.7760 LP  0  0  0  0  0  0  0  0  0  0  0  0  # atno 27201 bound_to 698 
  227.1539    8.5986   15.9781 LP  0  0  0  0  0  0  0  0  0  0  0  0  # atno 27202 bound_to 698 
  225.2420   14.2030   26.3864 LP  0  0  0  0  0  0  0  0  0  0  0  0  # atno 27203 bound_to 2523
  222.7252   17.5445   25.0673 LP  0  0  0  0  0  0  0  0  0  0  0  0  # atno 27204 bound_to 2526
  224.1448   17.4810   24.0770 LP  0  0  0  0  0  0  0  0  0  0  0  0  # atno 27205 bound_to 2526
  222.8434   14.6250   25.7291 LP  0  0  0  0  0  0  0  0  0  0  0  0  # atno 27206 bound_to 2595
  224.4113   19.3529   20.7216 LP  0  0  0  0  0  0  0  0  0  0  0  0  # atno 27210 bound_to 26043
  224.3597   20.1419   22.1503 LP  0  0  0  0  0  0  0  0  0  0  0  0  # atno 27211 bound_to 26043
  230.0340   12.0285   20.5401 LP  0  0  0  0  0  0  0  0  0  0  0  0  # atno 27214 bound_to 27119
  231.0175   11.5290   21.7442 LP  0  0  0  0  0  0  0  0  0  0  0  0  # atno 27215 bound_to 27119
  230.3366   24.1354   20.6500 LP  0  0  0  0  0  0  0  0  0  0  0  0  # atno 27228 bound_to 7328
  231.7764   24.5070   21.5382 LP  0  0  0  0  0  0  0  0  0  0  0  0  # atno 27229 bound_to 7328
  229.4826   27.1617   22.6689 LP  0  0  0  0  0  0  0  0  0  0  0  0  # atno 27230 bound_to 7411
  232.4806   27.0558   21.2576 LP  0  0  0  0  0  0  0  0  0  0  0  0  # atno 27231 bound_to 7453
  233.1893   29.7020   20.0968 LP  0  0  0  0  0  0  0  0  0  0  0  0  # atno 27232 bound_to 7511
  233.7061   34.0262   18.6987 LP  0  0  0  0  0  0  0  0  0  0  0  0  # atno 27233 bound_to 7514
  232.7127   33.1340   17.5954 LP  0  0  0  0  0  0  0  0  0  0  0  0  # atno 27234 bound_to 7514
  227.8286   29.0635    9.0460 LP  0  0  0  0  0  0  0  0  0  0  0  0  # atno 27236 bound_to 17124
  227.8687   28.0910   10.4787 LP  0  0  0  0  0  0  0  0  0  0  0  0  # atno 27237 bound_to 17124
  226.6510   26.5577    7.6144 LP  0  0  0  0  0  0  0  0  0  0  0  0  # atno 27238 bound_to 17173
  225.0895   26.3595   11.2845 LP  0  0  0  0  0  0  0  0  0  0  0  0  # atno 27239 bound_to 17217
  223.9633   28.9544   10.2978 LP  0  0  0  0  0  0  0  0  0  0  0  0  # atno 27240 bound_to 18204
  224.6724   28.7213   11.8607 LP  0  0  0  0  0  0  0  0  0  0  0  0  # atno 27241 bound_to 18204
  224.2973   31.1139   10.8094 LP  0  0  0  0  0  0  0  0  0  0  0  0  # atno 27242 bound_to 18271
  228.2626   33.4793   11.4484 LP  0  0  0  0  0  0  0  0  0  0  0  0  # atno 27243 bound_to 18274
  226.5644   33.3576   11.1301 LP  0  0  0  0  0  0  0  0  0  0  0  0  # atno 27244 bound_to 18274
  228.0572   31.4707   10.4557 LP  0  0  0  0  0  0  0  0  0  0  0  0  # atno 27245 bound_to 18311
  231.5130   31.4501    8.3394 LP  0  0  0  0  0  0  0  0  0  0  0  0  # atno 27246 bound_to 18314
  229.8888   31.9087    8.7288 LP  0  0  0  0  0  0  0  0  0  0  0  0  # atno 27247 bound_to 18314
  232.4181   31.4122   11.3302 LP  0  0  0  0  0  0  0  0  0  0  0  0  # atno 27248 bound_to 18359
  233.0502   29.3000   12.1620 LP  0  0  0  0  0  0  0  0  0  0  0  0  # atno 27249 bound_to 18362
  234.3446   28.1554   12.0406 LP  0  0  0  0  0  0  0  0  0  0  0  0  # atno 27250 bound_to 18362
  234.2752   28.8452   10.1067 LP  0  0  0  0  0  0  0  0  0  0  0  0  # atno 27251 bound_to 18451
  236.0005   26.1747   10.9970 LP  0  0  0  0  0  0  0  0  0  0  0  0  # atno 27252 bound_to 18527
  222.5805   25.7950    8.7875 LP  0  0  0  0  0  0  0  0  0  0  0  0  # atno 27257 bound_to 17176
  223.9204   24.7136    8.5995 LP  0  0  0  0  0  0  0  0  0  0  0  0  # atno 27258 bound_to 17176
  222.1267   27.9244   11.3703 LP  0  0  0  0  0  0  0  0  0  0  0  0  # atno 27259 bound_to 17220
  220.5958   27.5494   12.0885 LP  0  0  0  0  0  0  0  0  0  0  0  0  # atno 27260 bound_to 17220
  227.4071   26.5568    4.8178 LP  0  0  0  0  0  0  0  0  0  0  0  0  # atno 27261 bound_to 17050
  228.1601   25.4380    5.9046 LP  0  0  0  0  0  0  0  0  0  0  0  0  # atno 27262 bound_to 17050
  229.9031   22.9570    7.3096 LP  0  0  0  0  0  0  0  0  0  0  0  0  # atno 27263 bound_to 18462
  230.2927   21.9942    8.5697 LP  0  0  0  0  0  0  0  0  0  0  0  0  # atno 27264 bound_to 18462
  220.9018   30.5747   11.4111 LP  0  0  0  0  0  0  0  0  0  0  0  0  # atno 27265 bound_to 18201
  225.8780   32.8059    9.2884 LP  0  0  0  0  0  0  0  0  0  0  0  0  # atno 27266 bound_to 18276
  225.3227   32.1904    7.8815 LP  0  0  0  0  0  0  0  0  0  0  0  0  # atno 27267 bound_to 18276
  230.4483   35.0056   13.6028 LP  0  0  0  0  0  0  0  0  0  0  0  0  # atno 27268 bound_to 10092
  231.0397   36.0860   12.5305 LP  0  0  0  0  0  0  0  0  0  0  0  0  # atno 27269 bound_to 10092
  224.9431   33.6453   11.8577 LP  0  0  0  0  0  0  0  0  0  0  0  0  # atno 27270 bound_to 10132
  223.5721   33.1953   10.8995 LP  0  0  0  0  0  0  0  0  0  0  0  0  # atno 27271 bound_to 10132
  220.6267   23.1194   11.1138 LP  0  0  0  0  0  0  0  0  0  0  0  0  # atno 27272 bound_to 11410
  222.1649   22.3402   11.2775 LP  0  0  0  0  0  0  0  0  0  0  0  0  # atno 27273 bound_to 11410
  221.1700   24.3194   10.9459 LP  0  0  0  0  0  0  0  0  0  0  0  0  # atno 27274 bound_to 17279
  228.3832   19.6992    6.0341 LP  0  0  0  0  0  0  0  0  0  0  0  0  # atno 27275 bound_to 16954
  227.2144   20.7951    6.3496 LP  0  0  0  0  0  0  0  0  0  0  0  0  # atno 27276 bound_to 16954
  220.9868   21.2482    7.9982 LP  0  0  0  0  0  0  0  0  0  0  0  0  # atno 27277 bound_to 11457
  222.9375   25.0643    7.1263 LP  0  0  0  0  0  0  0  0  0  0  0  0  # atno 27278 bound_to 11523
  226.4782   22.9188    4.6407 LP  0  0  0  0  0  0  0  0  0  0  0  0  # atno 27279 bound_to 11602
  225.9543   21.3509    5.1578 LP  0  0  0  0  0  0  0  0  0  0  0  0  # atno 27280 bound_to 11602
  224.1057   24.3680    5.1949 LP  0  0  0  0  0  0  0  0  0  0  0  0  # atno 27283 bound_to 11599
  222.3629   19.2521    9.4263 LP  0  0  0  0  0  0  0  0  0  0  0  0  # atno 27286 bound_to 11412
  221.0551   18.6997    8.6194 LP  0  0  0  0  0  0  0  0  0  0  0  0  # atno 27287 bound_to 11412
  234.2646   17.9040   11.6837 LP  0  0  0  0  0  0  0  0  0  0  0  0  # atno 27288 bound_to 18684
  234.0959   18.0665    9.9676 LP  0  0  0  0  0  0  0  0  0  0  0  0  # atno 27289 bound_to 18684

> <Gold.Score>
     Fitness  S(hb_ext) S(vdw_ext)  S(hb_int)    S(int)      intcor
     32.93       6.61      19.69       0.00      -0.75      -0.76

> <Gold.Goldscore.Fitness>
32.9308

> <Gold.Goldscore.Internal.Vdw>
-1.1327

> <Gold.Goldscore.Internal.Torsion>
-0.3871

> <Gold.Goldscore.External.Vdw>
19.6915

> <Gold.Goldscore.Internal.HBond>
0.0000

> <Gold.Goldscore.External.HBond>
6.6100

> <Gold.Goldscore.Internal.Correction>
-0.7650

> <Gold.Goldscore.Hbonds>
donor molecule, donor type, donor heavy atom, donor atom, acceptor molecule, acceptor atom, score
      P1  H 11464 11481       L1    11  0.30
      L1  H    10    23       P1 19009  1.00

> <Gold.Goldscore.Internal.Vdw.Weighted>
-1.1327

> <Gold.Goldscore.Internal.Torsion.Weighted>
-0.3871

> <Gold.Goldscore.External.Vdw.Weighted>
27.0757

> <Gold.Goldscore.Internal.HBond.Weighted>
0.0000

> <Gold.Goldscore.External.HBond.Weighted>
6.6100

> <Gold.Goldscore.Internal.Correction.Weighted>
-0.7650

> <Gold.Rescore>
     Score     S(PLP)   S(hbond)     S(cho)   S(metal)  DE(clash)   DE(tors)     intcor
     14.68     -11.11       1.73       0.00       0.00       0.00       0.82       ----

> <Gold.PLP.Fitness>
14.6792

> <Gold.PLP.PLP>
-11.1129

> <Gold.PLP.part.hbond>
-2.6997

> <Gold.PLP.part.metal>
0.0000

> <Gold.PLP.part.buried>
9.7252

> <Gold.PLP.part.nonpolar>
-17.3224

> <Gold.PLP.part.repulsive>
1.1309

> <Gold.PLP.ligand.clash>
0.0000

> <Gold.PLP.ligand.torsion>
0.8176

> <Gold.PLP.Chemscore.Hbond>
1.7338

> <Gold.PLP.Chemscore.CHOScore>
0.0000

> <Gold.PLP.Chemscore.Metal>
0.0000

> <Gold.Chemscore.Hbonds>
donor molecule, donor type, donor heavy atom, donor atom, acceptor molecule, acceptor atom, score
      L1  H    10    23       P1 19009  1.00
      P1  H 11464 11481       L1    11  0.86

> <Gold.PLP.Chemscore.Internal.Correction>
   9.000000E+99

