#       Name:                CT1002167954
#       Creating user name   hitesit
#       Creation time:       Sun Apr 16 20:25:35 2023


#       File generated by GOLD software.
#

@<TRIPOS>MOLECULE
CT1002167954|ligand_prepared|mol2|1|dock8
    29    30     1
SMALL
NO_CHARGES


@<TRIPOS>ATOM
      1 C1         229.0089  26.7188  13.8568 C.3            1 RES1               0.0000
      2 C2         228.6164  25.5083  12.9854 C.ar           1 RES1               0.0000
      3 C3         230.5148  26.6159  14.0798 C.2            1 RES1               0.0000
      4 C4         228.5780  27.9595  13.0823 C.2            1 RES1               0.0000
      5 C5         228.3091  26.7493  15.2355 C.3            1 RES1               0.0000
      6 C6         228.8555  24.2103  13.4267 C.ar           1 RES1               0.0000
      7 C7         228.0132  25.6733  11.7414 C.ar           1 RES1               0.0000
      8 N8         231.3152  27.4854  13.3993 N.am           1 RES1               0.0000
      9 O9         230.9954  25.7590  14.8113 O.2            1 RES1               0.0000
     10 N10        229.5562  28.8061  12.6303 N.am           1 RES1               0.0000
     11 O11        227.4013  28.2029  12.8451 O.2            1 RES1               0.0000
     12 C12        227.0076  25.9643  15.2800 C.3            1 RES1               0.0000
     13 C13        228.5017  23.1168  12.6538 C.ar           1 RES1               0.0000
     14 C14        227.6604  24.5784  10.9699 C.ar           1 RES1               0.0000
     15 C15        230.9068  28.6093  12.7271 C.2            1 RES1               0.0000
     16 C16        227.9036  23.3000  11.4253 C.ar           1 RES1               0.0000
     17 O17        231.7244  29.3893  12.2474 O.2            1 RES1               0.0000
     18 H18        228.9941  26.3402  15.9883 H              1 RES1               0.0000
     19 H19        228.1013  27.7927  15.5030 H              1 RES1               0.0000
     20 H20        229.3274  24.0465  14.3898 H              1 RES1               0.0000
     21 H21        227.8133  26.6698  11.3625 H              1 RES1               0.0000
     22 H22        232.3095  27.2812  13.3891 H              1 RES1               0.0000
     23 H23        229.2490  29.6624  12.1800 H              1 RES1               0.0000
     24 H24        226.5580  26.0185  16.2693 H              1 RES1               0.0000
     25 H25        226.2934  26.3604  14.5611 H              1 RES1               0.0000
     26 H26        227.1809  24.9165  15.0435 H              1 RES1               0.0000
     27 H27        228.6964  22.1127  13.0161 H              1 RES1               0.0000
     28 H28        227.1905  24.7273  10.0034 H              1 RES1               0.0000
     29 H29        227.6262  22.4432  10.8202 H              1 RES1               0.0000
@<TRIPOS>BOND
    1    1    2 1     
    2    1    3 1     
    3    1    4 1     
    4    1    5 1     
    5    2    6 ar    
    6    2    7 ar    
    7    3    8 1     
    8    3    9 2     
    9    4   10 1     
   10    4   11 2     
   11    5   12 1     
   12    5   18 1     
   13    5   19 1     
   14    6   13 ar    
   15    6   20 1     
   16    7   14 ar    
   17    7   21 1     
   18    8   15 1     
   19    8   22 1     
   20   10   15 1     
   21   10   23 1     
   22   12   24 1     
   23   12   25 1     
   24   12   26 1     
   25   13   16 ar    
   26   13   27 1     
   27   14   16 ar    
   28   14   28 1     
   29   15   17 2     
   30   16   29 1     
@<TRIPOS>SUBSTRUCTURE
      1 RES1           1
@<TRIPOS>SET
DONOR_HYDROGENS      STATIC     ATOMS    <user>   **** ""
2 22 23
ATOM$RED        STATIC     ATOMS    COLORGROUP SYSTEM
2 22 23
@<TRIPOS>COMMENT
> <Gold.Version>
2022.3.0

> <Gold.Id.Protein>
unknown|4v3u_clean|pdb

> <Gold.Protein.RotatedTorsions>
[  594  544  543  542 ] final -175.81 input   59.98 | X-H torsion
[  739  695  696  697 ] final -176.09 input   98.51 | X-H torsion
[ 2556 2523 2524 2525 ] final  145.23 input  111.11 | X-H torsion
[ 2632 2595 2596 2597 ] final    0.12 input   53.40 | X-H torsion
[ 26082 26043 26042 26040 ] final   73.22 input   60.02 | X-H torsion
[ 27179 27119 27118 27114 ] final  134.52 input   60.01 | X-H torsion
[ 7425 7411 7412 7413 ] final  -44.38 input   83.97 | X-H torsion
[ 7476 7453 7454 7455 ] final   81.47 input   94.79 | X-H torsion
[ 7522 7511 7512 7513 ] final  -60.99 input   85.82 | X-H torsion
[ 17193 17173 17174 17175 ] final  -23.15 input   42.33 | X-H torsion
[ 17249 17217 17218 17219 ] final  -49.53 input  107.71 | X-H torsion
[ 18293 18271 18272 18273 ] final -120.51 input   26.15 | X-H torsion
[ 18325 18311 18312 18313 ] final -107.24 input   53.27 | X-H torsion
[ 18407 18359 18360 18361 ] final -147.02 input   33.85 | X-H torsion
[ 18493 18451 18452 18453 ] final   79.47 input  113.35 | X-H torsion
[ 18561 18527 18528 18529 ] final  125.34 input   85.91 | X-H torsion
[ 18501 18462 18461 18459 ] final  -55.75 input   59.98 | X-H torsion
[ 18241 18201 18202 18203 ] final    2.81 input   44.19 | X-H torsion
[ 18297 18276 18275 18272 ] final   20.20 input   59.98 | X-H torsion
[ 10103 10092 10091 10088 ] final    0.63 input   59.98 | X-H torsion
[ 17301 17279 17280 17281 ] final  171.05 input   44.55 | X-H torsion
[ 16993 16954 16953 16951 ] final  -22.15 input   59.99 | X-H torsion
[ 11475 11457 11458 11459 ] final -100.95 input   48.15 | X-H torsion
[ 11539 11523 11524 11525 ] final  -89.90 input  117.79 | X-H torsion
[ 11615 11599 11600 11601 ] final   32.94 input   58.98 | X-H torsion
[ 11423 11412 11411 11408 ] final -113.85 input   60.01 | X-H torsion
[ 27181 27121 27120 27118 ] final   29.05 input   60.02 | X-H torsion
[ 10139 10129 10130 10131 ] final  -45.96 input   28.23 | X-H torsion
[ 17355 17327 17328 17329 ] final   69.19 input   73.50 | X-H torsion
[ 27201  698  697  696 ] final   42.87 input    0.00 | X-H torsion
[ 27204 2526 2525 2524 ] final -136.42 input    0.00 | X-H torsion
[ 27228 7328 7327 7326 ] final   92.66 input    0.00 | X-H torsion
[ 27233 7514 7513 7512 ] final  162.73 input    0.00 | X-H torsion
[ 27236 17124 17123 17122 ] final  141.19 input    0.00 | X-H torsion
[ 27240 18204 18203 18202 ] final -167.47 input    0.00 | X-H torsion
[ 27243 18274 18273 18272 ] final  160.34 input    0.00 | X-H torsion
[ 27246 18314 18313 18312 ] final   93.17 input   -0.00 | X-H torsion
[ 27249 18362 18361 18360 ] final   88.48 input    0.00 | X-H torsion
[ 27257 17176 17175 17174 ] final   56.76 input   -0.00 | X-H torsion
[ 27259 17220 17219 17218 ] final  -55.73 input   -0.00 | X-H torsion
[ 27261 17050 17049 17048 ] final  166.45 input    0.00 | X-H torsion
[ 27270 10132 10131 10130 ] final   65.97 input    0.00 | X-H torsion
[ 27272 11410 11409 11408 ] final  -36.85 input   -0.00 | X-H torsion
[ 27279 11602 11601 11600 ] final  -66.15 input    0.00 | X-H torsion
[ 27288 18684 18683 18682 ] final -175.23 input   -0.00 | X-H torsion

> <Gold.Protein.ActiveResidues>
 LYS309  TRP311  GLU314  MET341  HIS342  TRP414  ALA417  ARG419  CYS420  VAL421 
 GLY422  ARG423  LEU460  SER462  ALA463  SER482  GLN483  LEU484  ILE485  ARG486 
 ALA502  TRP566  TYR567  LEU569  PRO570  ALA571  VAL572  SER573  ASN574  MET575 
 PHE589  SER590  GLY591  TRP592  TYR593  MET594  GLU597  ILE598  ARG601  ASP602 
 ASP605  ARG608  TRP683  PHE696  HIS697  GLU699  TYR711  ASP714  HEM750  H4B760 

> <Gold.Protein.RotatedAtoms>
  220.3938    7.5231   18.0063 H   0  0  0  0  0  0  0  0  0  0  0  0  # atno 594  bound_to 544 
  220.0055    8.2257   19.4562 H   0  0  0  0  0  0  0  0  0  0  0  0  # atno 595  bound_to 544 
  221.2051    8.8759   18.5146 H   0  0  0  0  0  0  0  0  0  0  0  0  # atno 596  bound_to 544 
  226.8197    7.5315   20.8281 H   0  0  0  0  0  0  0  0  0  0  0  0  # atno 739  bound_to 695 
  225.3888   13.0687   25.1956 H   0  0  0  0  0  0  0  0  0  0  0  0  # atno 2556 bound_to 2523
  222.7274   14.4374   25.6809 H   0  0  0  0  0  0  0  0  0  0  0  0  # atno 2632 bound_to 2595
  230.5738   26.0048   22.6158 H   0  0  0  0  0  0  0  0  0  0  0  0  # atno 7425 bound_to 7411
  232.8489   26.9526   19.6456 H   0  0  0  0  0  0  0  0  0  0  0  0  # atno 7476 bound_to 7453
  234.1545   29.5941   20.1997 H   0  0  0  0  0  0  0  0  0  0  0  0  # atno 7522 bound_to 7511
  230.6966   35.0635   11.7973 H   0  0  0  0  0  0  0  0  0  0  0  0  # atno 10103 bound_to 10092
  226.5017   35.2527   11.7185 H   0  0  0  0  0  0  0  0  0  0  0  0  # atno 10139 bound_to 10129
  221.1724   17.8250    9.1742 H   0  0  0  0  0  0  0  0  0  0  0  0  # atno 11423 bound_to 11412
  220.7930   21.9431    9.3708 H   0  0  0  0  0  0  0  0  0  0  0  0  # atno 11475 bound_to 11457
  221.6187   23.9256    7.0436 H   0  0  0  0  0  0  0  0  0  0  0  0  # atno 11539 bound_to 11523
  223.9970   24.1676    5.2686 H   0  0  0  0  0  0  0  0  0  0  0  0  # atno 11615 bound_to 11599
  228.4416   21.1463    7.0348 H   0  0  0  0  0  0  0  0  0  0  0  0  # atno 16993 bound_to 16954
  226.7163   25.7056    8.9972 H   0  0  0  0  0  0  0  0  0  0  0  0  # atno 17193 bound_to 17173
  223.9236   26.5146   10.0408 H   0  0  0  0  0  0  0  0  0  0  0  0  # atno 17249 bound_to 17217
  221.5647   25.4853   10.8523 H   0  0  0  0  0  0  0  0  0  0  0  0  # atno 17301 bound_to 17279
  219.6969   23.7670   12.9203 H   0  0  0  0  0  0  0  0  0  0  0  0  # atno 17355 bound_to 17327
  221.9789   29.3305   11.2582 H   0  0  0  0  0  0  0  0  0  0  0  0  # atno 18241 bound_to 18201
  224.6440   30.7731   11.7946 H   0  0  0  0  0  0  0  0  0  0  0  0  # atno 18293 bound_to 18271
  226.3997   32.8447    9.2038 H   0  0  0  0  0  0  0  0  0  0  0  0  # atno 18297 bound_to 18276
  227.9632   31.5999   10.7003 H   0  0  0  0  0  0  0  0  0  0  0  0  # atno 18325 bound_to 18311
  231.2896   31.2119   10.2643 H   0  0  0  0  0  0  0  0  0  0  0  0  # atno 18407 bound_to 18359
  234.6606   28.4431    8.7528 H   0  0  0  0  0  0  0  0  0  0  0  0  # atno 18493 bound_to 18451
  230.8838   21.4650    7.8799 H   0  0  0  0  0  0  0  0  0  0  0  0  # atno 18501 bound_to 18462
  235.2918   26.1781   12.5935 H   0  0  0  0  0  0  0  0  0  0  0  0  # atno 18561 bound_to 18527
  224.4475   21.0866   21.0790 H   0  0  0  0  0  0  0  0  0  0  0  0  # atno 26082 bound_to 26043
  230.9579   11.5046   21.7284 H   0  0  0  0  0  0  0  0  0  0  0  0  # atno 27179 bound_to 27119
  228.8569   14.1852   23.9556 H   0  0  0  0  0  0  0  0  0  0  0  0  # atno 27181 bound_to 27121
  227.9707    6.5869   19.9179 LP  0  0  0  0  0  0  0  0  0  0  0  0  # atno 27200 bound_to 695 
  226.7310    8.6369   16.1580 LP  0  0  0  0  0  0  0  0  0  0  0  0  # atno 27201 bound_to 698 
  226.8470    7.0027   15.5961 LP  0  0  0  0  0  0  0  0  0  0  0  0  # atno 27202 bound_to 698 
  224.6902   14.1048   26.4140 LP  0  0  0  0  0  0  0  0  0  0  0  0  # atno 27203 bound_to 2523
  222.9600   17.5614   25.2946 LP  0  0  0  0  0  0  0  0  0  0  0  0  # atno 27204 bound_to 2526
  223.9100   17.4642   23.8496 LP  0  0  0  0  0  0  0  0  0  0  0  0  # atno 27205 bound_to 2526
  222.8817   15.2598   24.1439 LP  0  0  0  0  0  0  0  0  0  0  0  0  # atno 27206 bound_to 2595
  224.4327   19.5785   20.4672 LP  0  0  0  0  0  0  0  0  0  0  0  0  # atno 27210 bound_to 26043
  224.3523   19.8084   22.0820 LP  0  0  0  0  0  0  0  0  0  0  0  0  # atno 27211 bound_to 26043
  231.4853   12.7782   20.8627 LP  0  0  0  0  0  0  0  0  0  0  0  0  # atno 27214 bound_to 27119
  230.0534   12.0802   20.5036 LP  0  0  0  0  0  0  0  0  0  0  0  0  # atno 27215 bound_to 27119
  230.3669   24.2455   20.5757 LP  0  0  0  0  0  0  0  0  0  0  0  0  # atno 27228 bound_to 7328
  231.7460   24.3969   21.6126 LP  0  0  0  0  0  0  0  0  0  0  0  0  # atno 27229 bound_to 7328
  229.0663   26.7925   22.2267 LP  0  0  0  0  0  0  0  0  0  0  0  0  # atno 27230 bound_to 7411
  232.3175   27.5772   21.1894 LP  0  0  0  0  0  0  0  0  0  0  0  0  # atno 27231 bound_to 7453
  233.2072   28.9127   18.9004 LP  0  0  0  0  0  0  0  0  0  0  0  0  # atno 27232 bound_to 7511
  232.6912   33.9091   18.7580 LP  0  0  0  0  0  0  0  0  0  0  0  0  # atno 27233 bound_to 7514
  233.7275   33.2510   17.5362 LP  0  0  0  0  0  0  0  0  0  0  0  0  # atno 27234 bound_to 7514
  227.1106   28.9025    9.4469 LP  0  0  0  0  0  0  0  0  0  0  0  0  # atno 27236 bound_to 17124
  228.5867   28.2520   10.0778 LP  0  0  0  0  0  0  0  0  0  0  0  0  # atno 27237 bound_to 17124
  226.9976   27.0155    7.8773 LP  0  0  0  0  0  0  0  0  0  0  0  0  # atno 27238 bound_to 17173
  224.9617   26.6657   11.4447 LP  0  0  0  0  0  0  0  0  0  0  0  0  # atno 27239 bound_to 17217
  225.1745   28.9233   10.9850 LP  0  0  0  0  0  0  0  0  0  0  0  0  # atno 27240 bound_to 18204
  223.4613   28.7524   11.1736 LP  0  0  0  0  0  0  0  0  0  0  0  0  # atno 27241 bound_to 18204
  224.8821   32.3111   11.0087 LP  0  0  0  0  0  0  0  0  0  0  0  0  # atno 27242 bound_to 18271
  228.1578   33.4139   11.7319 LP  0  0  0  0  0  0  0  0  0  0  0  0  # atno 27243 bound_to 18274
  226.6692   33.4230   10.8465 LP  0  0  0  0  0  0  0  0  0  0  0  0  # atno 27244 bound_to 18274
  228.6645   30.0865   11.2297 LP  0  0  0  0  0  0  0  0  0  0  0  0  # atno 27245 bound_to 18311
  231.1328   32.4271    8.6006 LP  0  0  0  0  0  0  0  0  0  0  0  0  # atno 27246 bound_to 18314
  230.2690   30.9317    8.4677 LP  0  0  0  0  0  0  0  0  0  0  0  0  # atno 27247 bound_to 18314
  232.2657   30.7199   11.6297 LP  0  0  0  0  0  0  0  0  0  0  0  0  # atno 27248 bound_to 18359
  232.9240   28.3402   12.0611 LP  0  0  0  0  0  0  0  0  0  0  0  0  # atno 27249 bound_to 18362
  234.4709   29.1152   12.1414 LP  0  0  0  0  0  0  0  0  0  0  0  0  # atno 27250 bound_to 18362
  233.4364   28.4280    9.9987 LP  0  0  0  0  0  0  0  0  0  0  0  0  # atno 27251 bound_to 18451
  235.9869   26.1264   10.9910 LP  0  0  0  0  0  0  0  0  0  0  0  0  # atno 27252 bound_to 18527
  223.9668   24.9258    8.3345 LP  0  0  0  0  0  0  0  0  0  0  0  0  # atno 27257 bound_to 17176
  222.5340   25.5829    9.0525 LP  0  0  0  0  0  0  0  0  0  0  0  0  # atno 27258 bound_to 17176
  221.7324   27.7662   12.5113 LP  0  0  0  0  0  0  0  0  0  0  0  0  # atno 27259 bound_to 17220
  220.9901   27.7076   10.9475 LP  0  0  0  0  0  0  0  0  0  0  0  0  # atno 27260 bound_to 17220
  227.9123   25.5903    6.1147 LP  0  0  0  0  0  0  0  0  0  0  0  0  # atno 27261 bound_to 17050
  227.6550   26.4046    4.6078 LP  0  0  0  0  0  0  0  0  0  0  0  0  # atno 27262 bound_to 17050
  230.3674   22.5375    6.7704 LP  0  0  0  0  0  0  0  0  0  0  0  0  # atno 27263 bound_to 18462
  229.8612   22.6522    8.3187 LP  0  0  0  0  0  0  0  0  0  0  0  0  # atno 27264 bound_to 18462
  220.8599   30.4740   11.9642 LP  0  0  0  0  0  0  0  0  0  0  0  0  # atno 27265 bound_to 18201
  225.1120   32.3382    8.3468 LP  0  0  0  0  0  0  0  0  0  0  0  0  # atno 27266 bound_to 18276
  226.6041   32.2969    7.6848 LP  0  0  0  0  0  0  0  0  0  0  0  0  # atno 27267 bound_to 18276
  230.3126   34.5976   13.3083 LP  0  0  0  0  0  0  0  0  0  0  0  0  # atno 27268 bound_to 10092
  230.9683   36.0701   13.0465 LP  0  0  0  0  0  0  0  0  0  0  0  0  # atno 27269 bound_to 10092
  224.8485   33.6388   11.9728 LP  0  0  0  0  0  0  0  0  0  0  0  0  # atno 27270 bound_to 10132
  223.6667   33.2017   10.7844 LP  0  0  0  0  0  0  0  0  0  0  0  0  # atno 27271 bound_to 10132
  220.5763   22.6979   11.4737 LP  0  0  0  0  0  0  0  0  0  0  0  0  # atno 27272 bound_to 11410
  222.2154   22.7617   10.9176 LP  0  0  0  0  0  0  0  0  0  0  0  0  # atno 27273 bound_to 11410
  220.9450   24.4825   12.1383 LP  0  0  0  0  0  0  0  0  0  0  0  0  # atno 27274 bound_to 17279
  228.6477   19.7755    6.1827 LP  0  0  0  0  0  0  0  0  0  0  0  0  # atno 27275 bound_to 16954
  227.2038   20.5382    6.1714 LP  0  0  0  0  0  0  0  0  0  0  0  0  # atno 27276 bound_to 16954
  221.6297   20.8608    8.2758 LP  0  0  0  0  0  0  0  0  0  0  0  0  # atno 27277 bound_to 11457
  222.9831   25.0144    7.0876 LP  0  0  0  0  0  0  0  0  0  0  0  0  # atno 27278 bound_to 11523
  226.7463   22.5310    4.3406 LP  0  0  0  0  0  0  0  0  0  0  0  0  # atno 27279 bound_to 11602
  225.6862   21.7388    5.4580 LP  0  0  0  0  0  0  0  0  0  0  0  0  # atno 27280 bound_to 11602
  222.8451   24.7781    4.1076 LP  0  0  0  0  0  0  0  0  0  0  0  0  # atno 27283 bound_to 11599
  222.4550   18.5483    9.8675 LP  0  0  0  0  0  0  0  0  0  0  0  0  # atno 27286 bound_to 11412
  221.5847   19.3362    8.7324 LP  0  0  0  0  0  0  0  0  0  0  0  0  # atno 27287 bound_to 11412
  234.4563   17.8489   10.0162 LP  0  0  0  0  0  0  0  0  0  0  0  0  # atno 27288 bound_to 18684
  233.9042   18.1216   11.6351 LP  0  0  0  0  0  0  0  0  0  0  0  0  # atno 27289 bound_to 18684

> <Gold.Score>
     Fitness  S(hb_ext) S(vdw_ext)  S(hb_int)    S(int)      intcor
     42.84       4.95      33.80       0.00      -8.59      -0.76

> <Gold.Goldscore.Fitness>
42.8399

> <Gold.Goldscore.Internal.Vdw>
-7.4083

> <Gold.Goldscore.Internal.Torsion>
-1.9491

> <Gold.Goldscore.External.Vdw>
33.8046

> <Gold.Goldscore.Internal.HBond>
0.0000

> <Gold.Goldscore.External.HBond>
4.9510

> <Gold.Goldscore.Internal.Correction>
-0.7650

> <Gold.Goldscore.Hbonds>
donor molecule, donor type, donor heavy atom, donor atom, acceptor molecule, acceptor atom, score
      L1  H    10    23       P1 18311  0.83

> <Gold.Goldscore.Internal.Vdw.Weighted>
-7.4083

> <Gold.Goldscore.Internal.Torsion.Weighted>
-1.9491

> <Gold.Goldscore.External.Vdw.Weighted>
46.4813

> <Gold.Goldscore.Internal.HBond.Weighted>
0.0000

> <Gold.Goldscore.External.HBond.Weighted>
4.9510

> <Gold.Goldscore.Internal.Correction.Weighted>
-0.7650

> <Gold.Rescore>
     Score     S(PLP)   S(hbond)     S(cho)   S(metal)  DE(clash)   DE(tors)     intcor
     35.83     -37.19       0.61       0.00       0.00       1.39       0.90       ----

> <Gold.PLP.Fitness>
35.8342

> <Gold.PLP.PLP>
-37.1910

> <Gold.PLP.part.hbond>
-4.5346

> <Gold.PLP.part.metal>
0.0000

> <Gold.PLP.part.buried>
10.3530

> <Gold.PLP.part.nonpolar>
-47.5362

> <Gold.PLP.part.repulsive>
3.3494

> <Gold.PLP.ligand.clash>
1.3924

> <Gold.PLP.ligand.torsion>
0.8971

> <Gold.PLP.Chemscore.Hbond>
0.6100

> <Gold.PLP.Chemscore.CHOScore>
0.0000

> <Gold.PLP.Chemscore.Metal>
0.0000

> <Gold.Chemscore.Hbonds>
donor molecule, donor type, donor heavy atom, donor atom, acceptor molecule, acceptor atom, score
      L1  H    10    23       P1 18311  0.55

> <Gold.PLP.Chemscore.Internal.Correction>
   9.000000E+99

