#       Name:                CT1002167954
#       Creating user name   hitesit
#       Creation time:       Sun Apr 16 20:25:32 2023


#       File generated by GOLD software.
#

@<TRIPOS>MOLECULE
CT1002167954|ligand_prepared|mol2|1|dock4
    29    30     1
SMALL
NO_CHARGES


@<TRIPOS>ATOM
      1 C1         228.8195  23.0064  11.9534 C.3            1 RES1               0.0000
      2 C2         229.7683  21.7970  12.0787 C.ar           1 RES1               0.0000
      3 C3         227.7933  22.8638  13.0736 C.2            1 RES1               0.0000
      4 C4         229.6953  24.2493  12.0666 C.2            1 RES1               0.0000
      5 C5         228.0673  23.0733  10.6039 C.3            1 RES1               0.0000
      6 C6         229.9968  21.2007  13.3152 C.ar           1 RES1               0.0000
      7 C7         230.4190  21.2657  10.9684 C.ar           1 RES1               0.0000
      8 N8         227.9051  23.7021  14.1435 N.am           1 RES1               0.0000
      9 O9         226.9231  22.0026  13.0372 O.2            1 RES1               0.0000
     10 N10        229.5185  25.0624  13.1554 N.am           1 RES1               0.0000
     11 O11        230.5484  24.5229  11.2314 O.2            1 RES1               0.0000
     12 C12        227.0352  24.1877  10.5317 C.3            1 RES1               0.0000
     13 C13        230.8428  20.1108  13.4370 C.ar           1 RES1               0.0000
     14 C14        231.2649  20.1759  11.0924 C.ar           1 RES1               0.0000
     15 C15        228.6844  24.8288  14.2145 C.2            1 RES1               0.0000
     16 C16        231.4770  19.5975  12.3258 C.ar           1 RES1               0.0000
     17 O17        228.6205  25.5796  15.1837 O.2            1 RES1               0.0000
     18 H18        228.7986  23.2167   9.7988 H              1 RES1               0.0000
     19 H19        227.5636  22.1140  10.4324 H              1 RES1               0.0000
     20 H20        229.5084  21.5924  14.2013 H              1 RES1               0.0000
     21 H21        230.2680  21.7052   9.9883 H              1 RES1               0.0000
     22 H22        227.3590  23.4698  14.9669 H              1 RES1               0.0000
     23 H23        230.0587  25.9215  13.1783 H              1 RES1               0.0000
     24 H24        226.5370  24.1899   9.5645 H              1 RES1               0.0000
     25 H25        226.2779  24.0625  11.3028 H              1 RES1               0.0000
     26 H26        227.5055  25.1586  10.6730 H              1 RES1               0.0000
     27 H27        231.0075  19.6601  14.4101 H              1 RES1               0.0000
     28 H28        231.7624  19.7755  10.2152 H              1 RES1               0.0000
     29 H29        232.1394  18.7435  12.4213 H              1 RES1               0.0000
@<TRIPOS>BOND
    1    1    2 1     
    2    1    3 1     
    3    1    4 1     
    4    1    5 1     
    5    2    6 ar    
    6    2    7 ar    
    7    3    8 1     
    8    3    9 2     
    9    4   10 1     
   10    4   11 2     
   11    5   12 1     
   12    5   18 1     
   13    5   19 1     
   14    6   13 ar    
   15    6   20 1     
   16    7   14 ar    
   17    7   21 1     
   18    8   15 1     
   19    8   22 1     
   20   10   15 1     
   21   10   23 1     
   22   12   24 1     
   23   12   25 1     
   24   12   26 1     
   25   13   16 ar    
   26   13   27 1     
   27   14   16 ar    
   28   14   28 1     
   29   15   17 2     
   30   16   29 1     
@<TRIPOS>SUBSTRUCTURE
      1 RES1           1
@<TRIPOS>SET
DONOR_HYDROGENS      STATIC     ATOMS    <user>   **** ""
2 22 23
ATOM$RED        STATIC     ATOMS    COLORGROUP SYSTEM
2 22 23
@<TRIPOS>COMMENT
> <Gold.Version>
2022.3.0

> <Gold.Id.Protein>
unknown|4v3u_clean|pdb

> <Gold.Protein.RotatedTorsions>
[  594  544  543  542 ] final   58.17 input   59.98 | X-H torsion
[  739  695  696  697 ] final  110.59 input   98.51 | X-H torsion
[ 2556 2523 2524 2525 ] final  -92.37 input  111.11 | X-H torsion
[ 2632 2595 2596 2597 ] final  -92.85 input   53.40 | X-H torsion
[ 26082 26043 26042 26040 ] final  -36.13 input   60.02 | X-H torsion
[ 27179 27119 27118 27114 ] final  -71.11 input   60.01 | X-H torsion
[ 7425 7411 7412 7413 ] final  122.39 input   83.97 | X-H torsion
[ 7476 7453 7454 7455 ] final   29.21 input   94.79 | X-H torsion
[ 7522 7511 7512 7513 ] final  -63.31 input   85.82 | X-H torsion
[ 17193 17173 17174 17175 ] final -167.38 input   42.33 | X-H torsion
[ 17249 17217 17218 17219 ] final   46.31 input  107.71 | X-H torsion
[ 18293 18271 18272 18273 ] final  153.60 input   26.15 | X-H torsion
[ 18325 18311 18312 18313 ] final  102.51 input   53.27 | X-H torsion
[ 18407 18359 18360 18361 ] final    6.71 input   33.85 | X-H torsion
[ 18493 18451 18452 18453 ] final  -71.25 input  113.35 | X-H torsion
[ 18561 18527 18528 18529 ] final  -52.28 input   85.91 | X-H torsion
[ 18501 18462 18461 18459 ] final  -73.95 input   59.98 | X-H torsion
[ 18241 18201 18202 18203 ] final  -88.53 input   44.19 | X-H torsion
[ 18297 18276 18275 18272 ] final  100.36 input   59.98 | X-H torsion
[ 10103 10092 10091 10088 ] final  -15.67 input   59.98 | X-H torsion
[ 17301 17279 17280 17281 ] final -175.75 input   44.55 | X-H torsion
[ 16993 16954 16953 16951 ] final  -13.84 input   59.99 | X-H torsion
[ 11475 11457 11458 11459 ] final   64.48 input   48.15 | X-H torsion
[ 11539 11523 11524 11525 ] final   85.39 input  117.79 | X-H torsion
[ 11615 11599 11600 11601 ] final   59.26 input   58.98 | X-H torsion
[ 11423 11412 11411 11408 ] final  169.64 input   60.01 | X-H torsion
[ 27181 27121 27120 27118 ] final -169.57 input   60.02 | X-H torsion
[ 10139 10129 10130 10131 ] final  -68.50 input   28.23 | X-H torsion
[ 17355 17327 17328 17329 ] final  -14.56 input   73.50 | X-H torsion
[ 27201  698  697  696 ] final   62.60 input    0.00 | X-H torsion
[ 27204 2526 2525 2524 ] final -146.79 input    0.00 | X-H torsion
[ 27228 7328 7327 7326 ] final  116.62 input    0.00 | X-H torsion
[ 27233 7514 7513 7512 ] final -104.58 input    0.00 | X-H torsion
[ 27236 17124 17123 17122 ] final -154.21 input    0.00 | X-H torsion
[ 27240 18204 18203 18202 ] final    2.01 input    0.00 | X-H torsion
[ 27243 18274 18273 18272 ] final -147.68 input    0.00 | X-H torsion
[ 27246 18314 18313 18312 ] final -155.37 input   -0.00 | X-H torsion
[ 27249 18362 18361 18360 ] final  107.70 input    0.00 | X-H torsion
[ 27257 17176 17175 17174 ] final -131.07 input   -0.00 | X-H torsion
[ 27259 17220 17219 17218 ] final -137.87 input   -0.00 | X-H torsion
[ 27261 17050 17049 17048 ] final   96.58 input    0.00 | X-H torsion
[ 27270 10132 10131 10130 ] final -150.33 input    0.00 | X-H torsion
[ 27272 11410 11409 11408 ] final  -93.92 input   -0.00 | X-H torsion
[ 27279 11602 11601 11600 ] final -106.00 input    0.00 | X-H torsion
[ 27288 18684 18683 18682 ] final   41.58 input   -0.00 | X-H torsion

> <Gold.Protein.ActiveResidues>
 LYS309  TRP311  GLU314  MET341  HIS342  TRP414  ALA417  ARG419  CYS420  VAL421 
 GLY422  ARG423  LEU460  SER462  ALA463  SER482  GLN483  LEU484  ILE485  ARG486 
 ALA502  TRP566  TYR567  LEU569  PRO570  ALA571  VAL572  SER573  ASN574  MET575 
 PHE589  SER590  GLY591  TRP592  TYR593  MET594  GLU597  ILE598  ARG601  ASP602 
 ASP605  ARG608  TRP683  PHE696  HIS697  GLU699  TYR711  ASP714  HEM750  H4B760 

> <Gold.Protein.RotatedAtoms>
  221.1780    8.9149   18.6038 H   0  0  0  0  0  0  0  0  0  0  0  0  # atno 594  bound_to 544 
  220.4672    7.5668   17.9527 H   0  0  0  0  0  0  0  0  0  0  0  0  # atno 595  bound_to 544 
  219.9597    8.1443   19.4215 H   0  0  0  0  0  0  0  0  0  0  0  0  # atno 596  bound_to 544 
  227.8047    7.8048   20.5879 H   0  0  0  0  0  0  0  0  0  0  0  0  # atno 739  bound_to 695 
  225.5192   14.1548   26.2815 H   0  0  0  0  0  0  0  0  0  0  0  0  # atno 2556 bound_to 2523
  223.1879   15.5686   25.2680 H   0  0  0  0  0  0  0  0  0  0  0  0  # atno 2632 bound_to 2595
  229.1230   26.9397   22.3520 H   0  0  0  0  0  0  0  0  0  0  0  0  # atno 7425 bound_to 7411
  232.5978   27.6907   19.6493 H   0  0  0  0  0  0  0  0  0  0  0  0  # atno 7476 bound_to 7453
  234.1836   29.5793   20.1853 H   0  0  0  0  0  0  0  0  0  0  0  0  # atno 7522 bound_to 7511
  230.5895   34.8338   11.8763 H   0  0  0  0  0  0  0  0  0  0  0  0  # atno 10103 bound_to 10092
  226.6106   35.5791   11.7413 H   0  0  0  0  0  0  0  0  0  0  0  0  # atno 10139 bound_to 10129
  222.0892   17.9560    9.8725 H   0  0  0  0  0  0  0  0  0  0  0  0  # atno 11423 bound_to 11412
  221.5032   20.9312    8.1016 H   0  0  0  0  0  0  0  0  0  0  0  0  # atno 11475 bound_to 11457
  223.0338   24.9732    7.0536 H   0  0  0  0  0  0  0  0  0  0  0  0  # atno 11539 bound_to 11523
  224.1660   24.5088    5.1431 H   0  0  0  0  0  0  0  0  0  0  0  0  # atno 11615 bound_to 11599
  228.3185   21.2026    7.0278 H   0  0  0  0  0  0  0  0  0  0  0  0  # atno 16993 bound_to 16954
  227.2445   27.1534    8.3333 H   0  0  0  0  0  0  0  0  0  0  0  0  # atno 17193 bound_to 17173
  224.0661   27.3314   11.0767 H   0  0  0  0  0  0  0  0  0  0  0  0  # atno 17249 bound_to 17217
  221.5746   25.6251   10.9976 H   0  0  0  0  0  0  0  0  0  0  0  0  # atno 17301 bound_to 17279
  219.0642   24.7390   13.0944 H   0  0  0  0  0  0  0  0  0  0  0  0  # atno 17355 bound_to 17327
  221.2782   30.2966   10.8296 H   0  0  0  0  0  0  0  0  0  0  0  0  # atno 18241 bound_to 18201
  224.2867   31.2136   10.7442 H   0  0  0  0  0  0  0  0  0  0  0  0  # atno 18293 bound_to 18271
  226.9445   32.5293    8.1749 H   0  0  0  0  0  0  0  0  0  0  0  0  # atno 18297 bound_to 18276
  228.5200   30.2595   11.6197 H   0  0  0  0  0  0  0  0  0  0  0  0  # atno 18325 bound_to 18311
  232.0396   30.3945   11.5884 H   0  0  0  0  0  0  0  0  0  0  0  0  # atno 18407 bound_to 18359
  233.7644   28.6531   10.1909 H   0  0  0  0  0  0  0  0  0  0  0  0  # atno 18493 bound_to 18451
  230.9489   21.4822    7.5914 H   0  0  0  0  0  0  0  0  0  0  0  0  # atno 18501 bound_to 18462
  235.9878   26.0895   10.9716 H   0  0  0  0  0  0  0  0  0  0  0  0  # atno 18561 bound_to 18527
  224.4403   19.7286   20.3784 H   0  0  0  0  0  0  0  0  0  0  0  0  # atno 26082 bound_to 26043
  230.3627   12.5029   20.3190 H   0  0  0  0  0  0  0  0  0  0  0  0  # atno 27179 bound_to 27119
  229.8439   13.5567   25.3866 H   0  0  0  0  0  0  0  0  0  0  0  0  # atno 27181 bound_to 27121
  227.0009    6.3178   20.1544 LP  0  0  0  0  0  0  0  0  0  0  0  0  # atno 27200 bound_to 695 
  227.0071    8.6400   16.0494 LP  0  0  0  0  0  0  0  0  0  0  0  0  # atno 27201 bound_to 698 
  226.5709    6.9996   15.7047 LP  0  0  0  0  0  0  0  0  0  0  0  0  # atno 27202 bound_to 698 
  224.5619   13.0355   25.3451 LP  0  0  0  0  0  0  0  0  0  0  0  0  # atno 27203 bound_to 2523
  222.8373   17.5541   25.1975 LP  0  0  0  0  0  0  0  0  0  0  0  0  # atno 27204 bound_to 2526
  224.0326   17.4715   23.9467 LP  0  0  0  0  0  0  0  0  0  0  0  0  # atno 27205 bound_to 2526
  222.4357   14.1641   24.5439 LP  0  0  0  0  0  0  0  0  0  0  0  0  # atno 27206 bound_to 2595
  224.3515   19.6528   22.0017 LP  0  0  0  0  0  0  0  0  0  0  0  0  # atno 27210 bound_to 26043
  224.4408   21.1012   21.2529 LP  0  0  0  0  0  0  0  0  0  0  0  0  # atno 27211 bound_to 26043
  230.4709   11.3799   21.4923 LP  0  0  0  0  0  0  0  0  0  0  0  0  # atno 27214 bound_to 27119
  231.6668   12.4737   21.2925 LP  0  0  0  0  0  0  0  0  0  0  0  0  # atno 27215 bound_to 27119
  230.5271   24.5395   20.4445 LP  0  0  0  0  0  0  0  0  0  0  0  0  # atno 27228 bound_to 7328
  231.5859   24.1029   21.7438 LP  0  0  0  0  0  0  0  0  0  0  0  0  # atno 27229 bound_to 7328
  230.4959   25.8712   22.4866 LP  0  0  0  0  0  0  0  0  0  0  0  0  # atno 27230 bound_to 7411
  232.5623   26.8576   21.1857 LP  0  0  0  0  0  0  0  0  0  0  0  0  # atno 27231 bound_to 7453
  233.1787   28.9272   18.9146 LP  0  0  0  0  0  0  0  0  0  0  0  0  # atno 27232 bound_to 7511
  233.9181   33.9279   18.5031 LP  0  0  0  0  0  0  0  0  0  0  0  0  # atno 27233 bound_to 7514
  232.5007   33.2322   17.7911 LP  0  0  0  0  0  0  0  0  0  0  0  0  # atno 27234 bound_to 7514
  227.1347   28.3826   10.2123 LP  0  0  0  0  0  0  0  0  0  0  0  0  # atno 27236 bound_to 17124
  228.5626   28.7719    9.3125 LP  0  0  0  0  0  0  0  0  0  0  0  0  # atno 27237 bound_to 17124
  226.4797   25.5958    8.5283 LP  0  0  0  0  0  0  0  0  0  0  0  0  # atno 27238 bound_to 17173
  224.8249   25.8812   10.4499 LP  0  0  0  0  0  0  0  0  0  0  0  0  # atno 27239 bound_to 17217
  223.4953   28.7268   11.3264 LP  0  0  0  0  0  0  0  0  0  0  0  0  # atno 27240 bound_to 18204
  225.1405   28.9489   10.8321 LP  0  0  0  0  0  0  0  0  0  0  0  0  # atno 27241 bound_to 18204
  225.2359   31.8749   12.0487 LP  0  0  0  0  0  0  0  0  0  0  0  0  # atno 27242 bound_to 18271
  228.2133   33.5616   10.9896 LP  0  0  0  0  0  0  0  0  0  0  0  0  # atno 27243 bound_to 18274
  226.6137   33.2753   11.5889 LP  0  0  0  0  0  0  0  0  0  0  0  0  # atno 27244 bound_to 18274
  228.1251   31.3850   10.3391 LP  0  0  0  0  0  0  0  0  0  0  0  0  # atno 27245 bound_to 18311
  231.2265   31.0287    8.3099 LP  0  0  0  0  0  0  0  0  0  0  0  0  # atno 27246 bound_to 18314
  230.1752   32.3301    8.7584 LP  0  0  0  0  0  0  0  0  0  0  0  0  # atno 27247 bound_to 18314
  231.5367   31.5145   10.3427 LP  0  0  0  0  0  0  0  0  0  0  0  0  # atno 27248 bound_to 18359
  233.0952   28.1087   12.0367 LP  0  0  0  0  0  0  0  0  0  0  0  0  # atno 27249 bound_to 18362
  234.2996   29.3468   12.1659 LP  0  0  0  0  0  0  0  0  0  0  0  0  # atno 27250 bound_to 18362
  234.3143   28.2222    8.5899 LP  0  0  0  0  0  0  0  0  0  0  0  0  # atno 27251 bound_to 18451
  235.3066   26.2130   12.5762 LP  0  0  0  0  0  0  0  0  0  0  0  0  # atno 27252 bound_to 18527
  222.5441   25.4963    9.1323 LP  0  0  0  0  0  0  0  0  0  0  0  0  # atno 27257 bound_to 17176
  223.9568   25.0124    8.2547 LP  0  0  0  0  0  0  0  0  0  0  0  0  # atno 27258 bound_to 17176
  220.6581   27.5555   12.2012 LP  0  0  0  0  0  0  0  0  0  0  0  0  # atno 27259 bound_to 17220
  222.0644   27.9183   11.2576 LP  0  0  0  0  0  0  0  0  0  0  0  0  # atno 27260 bound_to 17220
  228.4276   25.4236    5.2837 LP  0  0  0  0  0  0  0  0  0  0  0  0  # atno 27261 bound_to 17050
  227.1396   26.5712    5.4387 LP  0  0  0  0  0  0  0  0  0  0  0  0  # atno 27262 bound_to 17050
  230.1827   22.7368    6.8938 LP  0  0  0  0  0  0  0  0  0  0  0  0  # atno 27263 bound_to 18462
  229.9803   22.4357    8.4860 LP  0  0  0  0  0  0  0  0  0  0  0  0  # atno 27264 bound_to 18462
  221.5416   29.5340   12.3812 LP  0  0  0  0  0  0  0  0  0  0  0  0  # atno 27265 bound_to 18201
  225.7657   32.7824    9.2683 LP  0  0  0  0  0  0  0  0  0  0  0  0  # atno 27266 bound_to 18276
  225.4021   32.1701    7.7988 LP  0  0  0  0  0  0  0  0  0  0  0  0  # atno 27267 bound_to 18276
  230.3702   34.7871   13.4879 LP  0  0  0  0  0  0  0  0  0  0  0  0  # atno 27268 bound_to 10092
  231.0185   36.1120   12.7873 LP  0  0  0  0  0  0  0  0  0  0  0  0  # atno 27269 bound_to 10092
  223.4248   33.2108   11.2666 LP  0  0  0  0  0  0  0  0  0  0  0  0  # atno 27270 bound_to 10132
  225.0904   33.6297   11.4906 LP  0  0  0  0  0  0  0  0  0  0  0  0  # atno 27271 bound_to 10132
  220.7865   23.2847   10.9296 LP  0  0  0  0  0  0  0  0  0  0  0  0  # atno 27272 bound_to 11410
  222.0052   22.1749   11.4617 LP  0  0  0  0  0  0  0  0  0  0  0  0  # atno 27273 bound_to 11410
  220.9352   24.3446   11.9949 LP  0  0  0  0  0  0  0  0  0  0  0  0  # atno 27274 bound_to 17279
  228.7453   19.8340    6.2582 LP  0  0  0  0  0  0  0  0  0  0  0  0  # atno 27275 bound_to 16954
  227.2302   20.4230    6.1029 LP  0  0  0  0  0  0  0  0  0  0  0  0  # atno 27276 bound_to 16954
  220.9466   21.8339    9.4965 LP  0  0  0  0  0  0  0  0  0  0  0  0  # atno 27277 bound_to 11457
  221.5939   23.9859    7.0778 LP  0  0  0  0  0  0  0  0  0  0  0  0  # atno 27278 bound_to 11523
  226.7886   21.9456    4.2776 LP  0  0  0  0  0  0  0  0  0  0  0  0  # atno 27279 bound_to 11602
  225.6438   22.3241    5.5210 LP  0  0  0  0  0  0  0  0  0  0  0  0  # atno 27280 bound_to 11602
  222.6789   24.4427    4.2311 LP  0  0  0  0  0  0  0  0  0  0  0  0  # atno 27283 bound_to 11599
  222.1369   19.4151    9.1530 LP  0  0  0  0  0  0  0  0  0  0  0  0  # atno 27286 bound_to 11412
  220.9800   18.3375    8.7442 LP  0  0  0  0  0  0  0  0  0  0  0  0  # atno 27287 bound_to 11412
  233.5458   18.3486   11.2899 LP  0  0  0  0  0  0  0  0  0  0  0  0  # atno 27288 bound_to 18684
  234.8146   17.6219   10.3614 LP  0  0  0  0  0  0  0  0  0  0  0  0  # atno 27289 bound_to 18684

> <Gold.Score>
     Fitness  S(hb_ext) S(vdw_ext)  S(hb_int)    S(int)      intcor
     39.55       0.00      29.52       0.00      -1.04      -0.77

> <Gold.Goldscore.Fitness>
39.5521

> <Gold.Goldscore.Internal.Vdw>
-1.3921

> <Gold.Goldscore.Internal.Torsion>
-0.4176

> <Gold.Goldscore.External.Vdw>
29.5247

> <Gold.Goldscore.Internal.HBond>
0.0000

> <Gold.Goldscore.External.HBond>
0.0000

> <Gold.Goldscore.Internal.Correction>
-0.7653

> <Gold.Goldscore.Internal.Vdw.Weighted>
-1.3921

> <Gold.Goldscore.Internal.Torsion.Weighted>
-0.4176

> <Gold.Goldscore.External.Vdw.Weighted>
40.5965

> <Gold.Goldscore.Internal.HBond.Weighted>
0.0000

> <Gold.Goldscore.External.HBond.Weighted>
0.0000

> <Gold.Goldscore.Internal.Correction.Weighted>
-0.7653

> <Gold.Rescore>
     Score     S(PLP)   S(hbond)     S(cho)   S(metal)  DE(clash)   DE(tors)     intcor
      9.41     -11.65       0.00       0.00       0.00       0.00       1.12       ----

> <Gold.PLP.Fitness>
9.4083

> <Gold.PLP.PLP>
-11.6548

> <Gold.PLP.part.hbond>
-1.0000

> <Gold.PLP.part.metal>
0.0000

> <Gold.PLP.part.buried>
22.2148

> <Gold.PLP.part.nonpolar>
-34.2343

> <Gold.PLP.part.repulsive>
1.0794

> <Gold.PLP.ligand.clash>
0.0000

> <Gold.PLP.ligand.torsion>
1.1233

> <Gold.PLP.Chemscore.Hbond>
0.0000

> <Gold.PLP.Chemscore.CHOScore>
0.0000

> <Gold.PLP.Chemscore.Metal>
0.0000

> <Gold.PLP.Chemscore.Internal.Correction>
   9.000000E+99

