#       Name:                CT1002167954
#       Creating user name   hitesit
#       Creation time:       Sun Apr 16 20:21:55 2023


#       File generated by GOLD software.
#

@<TRIPOS>MOLECULE
CT1002167954|ligand_prepared|mol2|1|dock7
    29    30     1
SMALL
NO_CHARGES


@<TRIPOS>ATOM
      1 C1         186.7054  17.9282  47.3824 C.3            1 RES1               0.0000
      2 C2         186.3792  16.9961  48.5672 C.ar           1 RES1               0.0000
      3 C3         188.2271  17.9757  47.2809 C.2            1 RES1               0.0000
      4 C4         186.0190  17.3237  46.1625 C.2            1 RES1               0.0000
      5 C5         186.1797  19.3717  47.5600 C.3            1 RES1               0.0000
      6 C6         186.0620  17.5220  49.8160 C.ar           1 RES1               0.0000
      7 C7         186.3888  15.6110  48.4262 C.ar           1 RES1               0.0000
      8 N8         188.8134  17.2958  46.2543 N.am           1 RES1               0.0000
      9 O9         188.9048  18.5678  48.1118 O.2            1 RES1               0.0000
     10 N10        186.8108  16.8485  45.1501 N.am           1 RES1               0.0000
     11 O11        184.8001  17.2395  46.0762 O.2            1 RES1               0.0000
     12 C12        186.2411  20.2071  46.2909 C.3            1 RES1               0.0000
     13 C13        185.7623  16.6932  50.8845 C.ar           1 RES1               0.0000
     14 C14        186.0891  14.7840  49.4961 C.ar           1 RES1               0.0000
     15 C15        188.1773  16.7792  45.1542 C.2            1 RES1               0.0000
     16 C16        185.7753  15.3239  50.7253 C.ar           1 RES1               0.0000
     17 O17        188.8170  16.2880  44.2287 O.2            1 RES1               0.0000
     18 H18        185.1391  19.3287  47.9044 H              1 RES1               0.0000
     19 H19        186.7704  19.8693  48.3391 H              1 RES1               0.0000
     20 H20        186.0492  18.5971  49.9610 H              1 RES1               0.0000
     21 H21        186.6339  15.1640  47.4687 H              1 RES1               0.0000
     22 H22        189.8176  17.1586  46.3098 H              1 RES1               0.0000
     23 H23        186.3376  16.5158  44.3160 H              1 RES1               0.0000
     24 H24        185.8607  21.2104  46.4708 H              1 RES1               0.0000
     25 H25        187.2655  20.2919  45.9341 H              1 RES1               0.0000
     26 H26        185.6438  19.7545  45.5020 H              1 RES1               0.0000
     27 H27        185.5173  17.1230  51.8502 H              1 RES1               0.0000
     28 H28        186.1011  13.7069  49.3664 H              1 RES1               0.0000
     29 H29        185.5401  14.6749  51.5624 H              1 RES1               0.0000
@<TRIPOS>BOND
    1    1    2 1     
    2    1    3 1     
    3    1    4 1     
    4    1    5 1     
    5    2    6 ar    
    6    2    7 ar    
    7    3    8 1     
    8    3    9 2     
    9    4   10 1     
   10    4   11 2     
   11    5   12 1     
   12    5   18 1     
   13    5   19 1     
   14    6   13 ar    
   15    6   20 1     
   16    7   14 ar    
   17    7   21 1     
   18    8   15 1     
   19    8   22 1     
   20   10   15 1     
   21   10   23 1     
   22   12   24 1     
   23   12   25 1     
   24   12   26 1     
   25   13   16 ar    
   26   13   27 1     
   27   14   16 ar    
   28   14   28 1     
   29   15   17 2     
   30   16   29 1     
@<TRIPOS>SUBSTRUCTURE
      1 RES1           1
@<TRIPOS>SET
DONOR_HYDROGENS      STATIC     ATOMS    <user>   **** ""
2 22 23
ATOM$RED        STATIC     ATOMS    COLORGROUP SYSTEM
2 22 23
@<TRIPOS>COMMENT
> <Gold.Version>
2022.3.0

> <Gold.Id.Protein>
unknown|4d1n_clean|pdb

> <Gold.Protein.RotatedTorsions>
[ 16986 16944 16943 16941 ] final  -77.94 input   59.98 | X-H torsion
[ 18494 18452 18451 18449 ] final   95.33 input   59.98 | X-H torsion
[ 18557 18521 18522 18523 ] final  -61.83 input   91.55 | X-H torsion
[ 18701 18674 18675 18676 ] final   34.36 input  121.65 | X-H torsion
[ 18757 18733 18734 18735 ] final   13.02 input   95.18 | X-H torsion
[ 18937 18904 18905 18906 ] final  121.48 input   99.08 | X-H torsion
[ 19021 18997 18998 18999 ] final  -96.51 input  121.68 | X-H torsion
[ 17190 17170 17171 17172 ] final -128.32 input   47.05 | X-H torsion
[ 17242 17212 17213 17214 ] final  -29.27 input  118.29 | X-H torsion
[ 18817 18805 18806 18807 ] final -103.12 input  116.09 | X-H torsion
[ 19085 19049 19050 19051 ] final  164.90 input   88.91 | X-H torsion
[ 18486 18441 18442 18443 ] final -107.06 input  100.68 | X-H torsion
[ 17298 17275 17276 17277 ] final   58.28 input   51.25 | X-H torsion
[ 18290 18267 18268 18269 ] final   51.69 input   31.65 | X-H torsion
[ 18324 18309 18310 18311 ] final  133.11 input   53.83 | X-H torsion
[ 18399 18347 18348 18349 ] final  -82.71 input   27.99 | X-H torsion
[ 7521 7509 7510 7511 ] final  -57.81 input   80.33 | X-H torsion
[ 7493 7448 7449 7450 ] final -147.49 input   99.31 | X-H torsion
[ 18598 18585 18586 18587 ] final  -42.72 input  129.83 | X-H torsion
[ 10115 10088 10087 10084 ] final   88.86 input   59.98 | X-H torsion
[ 18294 18272 18271 18268 ] final  113.97 input   59.99 | X-H torsion
[ 18643 18622 18620 18617 ] final  -79.38 input   59.97 | X-H torsion
[ 18857 18836 18837 18838 ] final  -50.25 input   87.55 | X-H torsion
[ 22429 22408 22409 22410 ] final   31.15 input   59.22 | X-H torsion
[ 10151 10126 10127 10128 ] final   60.73 input   20.82 | X-H torsion
[ 18234 18192 18193 18194 ] final   77.18 input   40.98 | X-H torsion
[ 11814 11769 11770 11771 ] final   52.12 input   85.42 | X-H torsion
[ 16978 16933 16934 16935 ] final  -94.84 input   88.91 | X-H torsion
[ 27198 18524 18523 18522 ] final  173.52 input    0.00 | X-H torsion
[ 27200 18619 18618 18617 ] final   97.59 input    0.00 | X-H torsion
[ 27203 18677 18676 18675 ] final   90.47 input    0.00 | X-H torsion
[ 27223 17119 17118 17117 ] final   93.28 input    0.00 | X-H torsion
[ 27227 11596 11595 11594 ] final  -93.45 input   -0.00 | X-H torsion
[ 27231 17044 17043 17042 ] final   90.49 input    0.00 | X-H torsion
[ 27233 18736 18735 18734 ] final  113.44 input   -0.00 | X-H torsion
[ 27235 18588 18587 18586 ] final  110.25 input    0.00 | X-H torsion
[ 27238 18907 18906 18905 ] final -115.24 input    0.00 | X-H torsion
[ 27240 19000 18999 18998 ] final -169.82 input    0.00 | X-H torsion
[ 27243 17173 17172 17171 ] final  -76.92 input    0.00 | X-H torsion
[ 27245 18350 18349 18348 ] final  118.54 input    0.00 | X-H torsion
[ 27248 11406 11405 11404 ] final  -80.08 input   -0.00 | X-H torsion
[ 27250 18195 18194 18193 ] final -162.53 input    0.00 | X-H torsion
[ 27254 17215 17214 17213 ] final  145.52 input   -0.00 | X-H torsion
[ 27260 18312 18311 18310 ] final -156.32 input   -0.00 | X-H torsion
[ 27262 18444 18443 18442 ] final   57.78 input    0.00 | X-H torsion
[ 27265 18270 18269 18268 ] final  116.23 input    0.00 | X-H torsion
[ 27273 16936 16935 16934 ] final  -84.89 input   -0.00 | X-H torsion

> <Gold.Protein.ActiveResidues>
 TRP414  CYS420  VAL421  GLY422  LEU460  SER462  ALA463  SER482  GLN483  ILE485 
 ARG486  TYR487  ASP500  ASN503  TRP566  TYR567  LEU569  PRO570  ALA571  VAL572 
 SER573  ASN574  PHE589  SER590  GLY591  TRP592  TYR593  MET594  GLY595  THR596 
 GLU597  ILE598  GLY599  VAL600  ARG601  ASP602  TYR603  ARG608  ILE653  VAL654 
 TRP683  PRO687  HEM750  H4B760 

> <Gold.Protein.RotatedAtoms>
  196.4908   11.8785   53.4267 H   0  0  0  0  0  0  0  0  0  0  0  0  # atno 7493 bound_to 7448
  196.0407    8.8796   54.6987 H   0  0  0  0  0  0  0  0  0  0  0  0  # atno 7521 bound_to 7509
  189.4640    1.1804   51.6044 H   0  0  0  0  0  0  0  0  0  0  0  0  # atno 10115 bound_to 10088
  186.9629    2.2097   47.2186 H   0  0  0  0  0  0  0  0  0  0  0  0  # atno 10151 bound_to 10126
  176.4425   17.7272   47.4422 H   0  0  0  0  0  0  0  0  0  0  0  0  # atno 11814 bound_to 11769
  175.5790   12.4126   54.2942 H   0  0  0  0  0  0  0  0  0  0  0  0  # atno 16978 bound_to 16933
  180.8585   15.1333   50.3410 H   0  0  0  0  0  0  0  0  0  0  0  0  # atno 16986 bound_to 16944
  183.7527    9.6369   48.1910 H   0  0  0  0  0  0  0  0  0  0  0  0  # atno 17190 bound_to 17170
  184.8330   10.0434   44.7890 H   0  0  0  0  0  0  0  0  0  0  0  0  # atno 17242 bound_to 17212
  185.1805   12.9630   42.2473 H   0  0  0  0  0  0  0  0  0  0  0  0  # atno 17298 bound_to 17275
  187.3555    8.1324   42.5907 H   0  0  0  0  0  0  0  0  0  0  0  0  # atno 18234 bound_to 18192
  186.9384    4.8024   45.6552 H   0  0  0  0  0  0  0  0  0  0  0  0  # atno 18290 bound_to 18267
  184.1315    4.0291   47.7754 H   0  0  0  0  0  0  0  0  0  0  0  0  # atno 18294 bound_to 18272
  187.7426    6.3265   49.1889 H   0  0  0  0  0  0  0  0  0  0  0  0  # atno 18324 bound_to 18309
  186.3591    6.4486   51.9451 H   0  0  0  0  0  0  0  0  0  0  0  0  # atno 18399 bound_to 18347
  185.5722    8.0318   54.3696 H   0  0  0  0  0  0  0  0  0  0  0  0  # atno 18486 bound_to 18441
  182.0968   13.2088   51.0651 H   0  0  0  0  0  0  0  0  0  0  0  0  # atno 18494 bound_to 18452
  186.2645   10.2916   56.9655 H   0  0  0  0  0  0  0  0  0  0  0  0  # atno 18557 bound_to 18521
  186.6253   12.4534   59.0628 H   0  0  0  0  0  0  0  0  0  0  0  0  # atno 18598 bound_to 18585
  189.2249   15.3422   60.1191 H   0  0  0  0  0  0  0  0  0  0  0  0  # atno 18643 bound_to 18622
  185.7116   15.8436   58.4344 H   0  0  0  0  0  0  0  0  0  0  0  0  # atno 18701 bound_to 18674
  184.4092   16.7590   57.8992 H   0  0  0  0  0  0  0  0  0  0  0  0  # atno 18757 bound_to 18733
  181.8922   17.5285   58.8090 H   0  0  0  0  0  0  0  0  0  0  0  0  # atno 18817 bound_to 18805
  183.3152   19.8044   59.9152 H   0  0  0  0  0  0  0  0  0  0  0  0  # atno 18857 bound_to 18836
  185.6381   20.2160   57.8065 H   0  0  0  0  0  0  0  0  0  0  0  0  # atno 18937 bound_to 18904
  183.7967   21.4074   55.1659 H   0  0  0  0  0  0  0  0  0  0  0  0  # atno 19021 bound_to 18997
  180.6716   20.4796   56.7604 H   0  0  0  0  0  0  0  0  0  0  0  0  # atno 19085 bound_to 19049
  186.1729    8.3847   59.9329 H   0  0  0  0  0  0  0  0  0  0  0  0  # atno 22429 bound_to 22408
  179.8516   15.7034   49.1971 LP  0  0  0  0  0  0  0  0  0  0  0  0  # atno 27193 bound_to 16944
  180.8300   14.4373   48.8706 LP  0  0  0  0  0  0  0  0  0  0  0  0  # atno 27194 bound_to 16944
  182.3822   14.5055   52.0064 LP  0  0  0  0  0  0  0  0  0  0  0  0  # atno 27195 bound_to 18452
  180.9253   13.7690   52.0463 LP  0  0  0  0  0  0  0  0  0  0  0  0  # atno 27196 bound_to 18452
  187.7152   10.8426   56.1582 LP  0  0  0  0  0  0  0  0  0  0  0  0  # atno 27197 bound_to 18521
  185.5876   13.9292   58.2506 LP  0  0  0  0  0  0  0  0  0  0  0  0  # atno 27198 bound_to 18524
  186.7178   13.3830   57.0572 LP  0  0  0  0  0  0  0  0  0  0  0  0  # atno 27199 bound_to 18524
  186.8120   18.9365   58.2733 LP  0  0  0  0  0  0  0  0  0  0  0  0  # atno 27200 bound_to 18619
  185.1887   18.6198   58.7876 LP  0  0  0  0  0  0  0  0  0  0  0  0  # atno 27201 bound_to 18619
  187.3779   16.2880   58.1632 LP  0  0  0  0  0  0  0  0  0  0  0  0  # atno 27202 bound_to 18674
  184.1629   18.1233   54.8539 LP  0  0  0  0  0  0  0  0  0  0  0  0  # atno 27203 bound_to 18677
  184.5605   19.0823   56.2403 LP  0  0  0  0  0  0  0  0  0  0  0  0  # atno 27204 bound_to 18677
  184.1365   15.9623   56.3643 LP  0  0  0  0  0  0  0  0  0  0  0  0  # atno 27209 bound_to 18733
  184.5966   21.4821   58.4071 LP  0  0  0  0  0  0  0  0  0  0  0  0  # atno 27210 bound_to 18904
  183.2665   20.0731   56.1605 LP  0  0  0  0  0  0  0  0  0  0  0  0  # atno 27211 bound_to 18997
  184.4175    7.7122   48.6561 LP  0  0  0  0  0  0  0  0  0  0  0  0  # atno 27223 bound_to 17119
  185.5972    8.9730   48.7928 LP  0  0  0  0  0  0  0  0  0  0  0  0  # atno 27224 bound_to 17119
  182.7133   10.6750   47.2442 LP  0  0  0  0  0  0  0  0  0  0  0  0  # atno 27225 bound_to 17170
  185.8490   10.5687   46.1139 LP  0  0  0  0  0  0  0  0  0  0  0  0  # atno 27226 bound_to 17212
  178.9624   13.1643   47.8831 LP  0  0  0  0  0  0  0  0  0  0  0  0  # atno 27227 bound_to 11596
  179.7567   13.4646   46.3734 LP  0  0  0  0  0  0  0  0  0  0  0  0  # atno 27228 bound_to 11596
  180.0169   10.2427   49.4691 LP  0  0  0  0  0  0  0  0  0  0  0  0  # atno 27231 bound_to 17044
  180.6310    9.1874   48.2406 LP  0  0  0  0  0  0  0  0  0  0  0  0  # atno 27232 bound_to 17044
  180.8470   19.2987   58.4471 LP  0  0  0  0  0  0  0  0  0  0  0  0  # atno 27233 bound_to 18736
  182.2124   19.6866   57.4544 LP  0  0  0  0  0  0  0  0  0  0  0  0  # atno 27234 bound_to 18736
  183.9795   16.0242   60.7151 LP  0  0  0  0  0  0  0  0  0  0  0  0  # atno 27235 bound_to 18588
  183.8044   15.2671   59.1672 LP  0  0  0  0  0  0  0  0  0  0  0  0  # atno 27236 bound_to 18588
  183.4984   17.1276   59.3796 LP  0  0  0  0  0  0  0  0  0  0  0  0  # atno 27237 bound_to 18805
  182.4938   23.3166   55.9993 LP  0  0  0  0  0  0  0  0  0  0  0  0  # atno 27238 bound_to 18907
  183.7254   23.5633   54.8066 LP  0  0  0  0  0  0  0  0  0  0  0  0  # atno 27239 bound_to 18907
  179.2832   22.8866   55.4911 LP  0  0  0  0  0  0  0  0  0  0  0  0  # atno 27240 bound_to 19000
  179.7595   22.1521   53.9965 LP  0  0  0  0  0  0  0  0  0  0  0  0  # atno 27241 bound_to 19000
  181.4980   21.9964   56.4907 LP  0  0  0  0  0  0  0  0  0  0  0  0  # atno 27242 bound_to 19049
  183.3106   10.0530   43.3809 LP  0  0  0  0  0  0  0  0  0  0  0  0  # atno 27243 bound_to 17173
  183.0827   11.5419   44.2360 LP  0  0  0  0  0  0  0  0  0  0  0  0  # atno 27244 bound_to 17173
  187.3491    8.9672   53.8098 LP  0  0  0  0  0  0  0  0  0  0  0  0  # atno 27245 bound_to 18350
  187.9736    7.5414   54.5694 LP  0  0  0  0  0  0  0  0  0  0  0  0  # atno 27246 bound_to 18350
  184.5314    7.7311   55.7409 LP  0  0  0  0  0  0  0  0  0  0  0  0  # atno 27247 bound_to 18441
  185.0475   13.9193   41.9278 LP  0  0  0  0  0  0  0  0  0  0  0  0  # atno 27248 bound_to 11406
  185.1422   14.8020   43.4150 LP  0  0  0  0  0  0  0  0  0  0  0  0  # atno 27249 bound_to 11406
  186.5435    8.2437   46.1885 LP  0  0  0  0  0  0  0  0  0  0  0  0  # atno 27250 bound_to 18195
  186.5298    8.5134   44.4776 LP  0  0  0  0  0  0  0  0  0  0  0  0  # atno 27251 bound_to 18195
  186.1777    9.6020   41.8282 LP  0  0  0  0  0  0  0  0  0  0  0  0  # atno 27254 bound_to 17215
  187.4080    9.8469   43.0225 LP  0  0  0  0  0  0  0  0  0  0  0  0  # atno 27255 bound_to 17215
  186.0255   11.4836   42.6123 LP  0  0  0  0  0  0  0  0  0  0  0  0  # atno 27256 bound_to 17275
  187.2564    6.5032   45.4169 LP  0  0  0  0  0  0  0  0  0  0  0  0  # atno 27257 bound_to 18267
  186.0897    5.7478   49.1762 LP  0  0  0  0  0  0  0  0  0  0  0  0  # atno 27258 bound_to 18309
  187.1737    5.3553   53.0469 LP  0  0  0  0  0  0  0  0  0  0  0  0  # atno 27259 bound_to 18347
  184.2043    5.3069   52.0010 LP  0  0  0  0  0  0  0  0  0  0  0  0  # atno 27260 bound_to 18312
  184.8759    4.0594   51.0046 LP  0  0  0  0  0  0  0  0  0  0  0  0  # atno 27261 bound_to 18312
  186.3598    7.9021   57.5748 LP  0  0  0  0  0  0  0  0  0  0  0  0  # atno 27262 bound_to 18444
  186.0444    9.1244   58.7608 LP  0  0  0  0  0  0  0  0  0  0  0  0  # atno 27263 bound_to 18444
  194.5217    9.3818   54.0052 LP  0  0  0  0  0  0  0  0  0  0  0  0  # atno 27264 bound_to 7509
  188.3187    3.8202   48.2761 LP  0  0  0  0  0  0  0  0  0  0  0  0  # atno 27265 bound_to 18270
  186.6903    3.3551   47.9127 LP  0  0  0  0  0  0  0  0  0  0  0  0  # atno 27266 bound_to 18270
  195.0789   10.8437   53.3815 LP  0  0  0  0  0  0  0  0  0  0  0  0  # atno 27267 bound_to 7448
  186.5861   11.5434   60.5537 LP  0  0  0  0  0  0  0  0  0  0  0  0  # atno 27268 bound_to 18585
  188.6408    2.5005   51.1269 LP  0  0  0  0  0  0  0  0  0  0  0  0  # atno 27269 bound_to 10088
  190.2666    2.4516   50.9813 LP  0  0  0  0  0  0  0  0  0  0  0  0  # atno 27270 bound_to 10088
  185.3767    3.9928   46.7287 LP  0  0  0  0  0  0  0  0  0  0  0  0  # atno 27271 bound_to 18272
  183.8942    4.4544   46.2229 LP  0  0  0  0  0  0  0  0  0  0  0  0  # atno 27272 bound_to 18272
  179.1813   11.0614   53.3425 LP  0  0  0  0  0  0  0  0  0  0  0  0  # atno 27273 bound_to 16936
  178.4759   10.8918   54.9153 LP  0  0  0  0  0  0  0  0  0  0  0  0  # atno 27274 bound_to 16936

> <Gold.Score>
     Fitness  S(hb_ext) S(vdw_ext)  S(hb_int)    S(int)      intcor
     33.06       7.51      18.98       0.00      -0.55      -0.76

> <Gold.Goldscore.Fitness>
33.0649

> <Gold.Goldscore.Internal.Vdw>
-0.7219

> <Gold.Goldscore.Internal.Torsion>
-0.5871

> <Gold.Goldscore.External.Vdw>
18.9822

> <Gold.Goldscore.Internal.HBond>
0.0000

> <Gold.Goldscore.External.HBond>
7.5149

> <Gold.Goldscore.Internal.Correction>
-0.7585

> <Gold.Goldscore.Hbonds>
donor molecule, donor type, donor heavy atom, donor atom, acceptor molecule, acceptor atom, score
      P1  H 11457 11492       L1    11  0.33
      P1  H 17327 17351       L1    17  1.00
      L1  H     8    22       P1 26826  0.74
      L1  H    10    23       P1 11406  0.21

> <Gold.Goldscore.Internal.Vdw.Weighted>
-0.7219

> <Gold.Goldscore.Internal.Torsion.Weighted>
-0.5871

> <Gold.Goldscore.External.Vdw.Weighted>
26.1006

> <Gold.Goldscore.Internal.HBond.Weighted>
0.0000

> <Gold.Goldscore.External.HBond.Weighted>
7.5149

> <Gold.Goldscore.Internal.Correction.Weighted>
-0.7585

> <Gold.Rescore>
     Score     S(PLP)   S(hbond)     S(cho)   S(metal)  DE(clash)   DE(tors)     intcor
     32.37     -23.46       3.00       0.00       0.00       0.00       0.05       ----

> <Gold.PLP.Fitness>
32.3667

> <Gold.PLP.PLP>
-23.4599

> <Gold.PLP.part.hbond>
-2.9693

> <Gold.PLP.part.metal>
0.0000

> <Gold.PLP.part.buried>
-5.4732

> <Gold.PLP.part.nonpolar>
-16.0486

> <Gold.PLP.part.repulsive>
0.4673

> <Gold.PLP.ligand.clash>
0.0000

> <Gold.PLP.ligand.torsion>
0.0466

> <Gold.PLP.Chemscore.Hbond>
3.0000

> <Gold.PLP.Chemscore.CHOScore>
0.0000

> <Gold.PLP.Chemscore.Metal>
0.0000

> <Gold.Chemscore.Hbonds>
donor molecule, donor type, donor heavy atom, donor atom, acceptor molecule, acceptor atom, score
      L1  H     8    22       P1 26826  1.00
      P1  H 11457 11492       L1    11  1.00
      P1  H 17327 17351       L1    17  0.70

> <Gold.PLP.Chemscore.Internal.Correction>
   9.000000E+99

