#       Name:                CT1002167954
#       Creating user name   hitesit
#       Creation time:       Sun Apr 16 20:21:57 2023


#       File generated by GOLD software.
#

@<TRIPOS>MOLECULE
CT1002167954|ligand_prepared|mol2|1|dock9
    29    30     1
SMALL
NO_CHARGES


@<TRIPOS>ATOM
      1 C1         188.4888  11.2089  49.7282 C.3            1 RES1               0.0000
      2 C2         187.6567  12.4955  49.5519 C.ar           1 RES1               0.0000
      3 C3         188.8802  11.1504  51.2018 C.2            1 RES1               0.0000
      4 C4         187.5967  10.0584  49.2753 C.2            1 RES1               0.0000
      5 C5         189.7787  11.1774  48.8757 C.3            1 RES1               0.0000
      6 C6         188.2811  13.7353  49.4530 C.ar           1 RES1               0.0000
      7 C7         186.2665  12.4583  49.4838 C.ar           1 RES1               0.0000
      8 N8         188.2381  10.2418  51.9905 N.am           1 RES1               0.0000
      9 O9         189.7113  11.9169  51.6732 O.2            1 RES1               0.0000
     10 N10        187.2021   9.1433  50.2158 N.am           1 RES1               0.0000
     11 O11        187.2183   9.9454  48.1159 O.2            1 RES1               0.0000
     12 C12        190.5006   9.8395  48.9053 C.3            1 RES1               0.0000
     13 C13        187.5427  14.8956  49.2891 C.ar           1 RES1               0.0000
     14 C14        185.5300  13.6199  49.3201 C.ar           1 RES1               0.0000
     15 C15        187.4572   9.2000  51.5589 C.2            1 RES1               0.0000
     16 C16        186.1669  14.8387  49.2221 C.ar           1 RES1               0.0000
     17 O17        187.0218   8.3683  52.3501 O.2            1 RES1               0.0000
     18 H18        189.5212  11.4168  47.8366 H              1 RES1               0.0000
     19 H19        190.4616  11.9551  49.2396 H              1 RES1               0.0000
     20 H20        189.3628  13.8000  49.5061 H              1 RES1               0.0000
     21 H21        185.7440  11.5107  49.5597 H              1 RES1               0.0000
     22 H22        188.3488  10.3467  52.9941 H              1 RES1               0.0000
     23 H23        186.6688   8.3459  49.8839 H              1 RES1               0.0000
     24 H24        191.3982   9.8718  48.2913 H              1 RES1               0.0000
     25 H25        190.7939   9.5817  49.9208 H              1 RES1               0.0000
     26 H26        189.8591   9.0466  48.5262 H              1 RES1               0.0000
     27 H27        188.0487  15.8524  49.2138 H              1 RES1               0.0000
     28 H28        184.4474  13.5704  49.2685 H              1 RES1               0.0000
     29 H29        185.5888  15.7477  49.0933 H              1 RES1               0.0000
@<TRIPOS>BOND
    1    1    2 1     
    2    1    3 1     
    3    1    4 1     
    4    1    5 1     
    5    2    6 ar    
    6    2    7 ar    
    7    3    8 1     
    8    3    9 2     
    9    4   10 1     
   10    4   11 2     
   11    5   12 1     
   12    5   18 1     
   13    5   19 1     
   14    6   13 ar    
   15    6   20 1     
   16    7   14 ar    
   17    7   21 1     
   18    8   15 1     
   19    8   22 1     
   20   10   15 1     
   21   10   23 1     
   22   12   24 1     
   23   12   25 1     
   24   12   26 1     
   25   13   16 ar    
   26   13   27 1     
   27   14   16 ar    
   28   14   28 1     
   29   15   17 2     
   30   16   29 1     
@<TRIPOS>SUBSTRUCTURE
      1 RES1           1
@<TRIPOS>SET
DONOR_HYDROGENS      STATIC     ATOMS    <user>   **** ""
2 22 23
ATOM$RED        STATIC     ATOMS    COLORGROUP SYSTEM
2 22 23
@<TRIPOS>COMMENT
> <Gold.Version>
2022.3.0

> <Gold.Id.Protein>
unknown|4d1n_clean|pdb

> <Gold.Protein.RotatedTorsions>
[ 16986 16944 16943 16941 ] final  -52.07 input   59.98 | X-H torsion
[ 18494 18452 18451 18449 ] final  106.75 input   59.98 | X-H torsion
[ 18557 18521 18522 18523 ] final   11.98 input   91.55 | X-H torsion
[ 18701 18674 18675 18676 ] final   85.28 input  121.65 | X-H torsion
[ 18757 18733 18734 18735 ] final  -23.03 input   95.18 | X-H torsion
[ 18937 18904 18905 18906 ] final -119.30 input   99.08 | X-H torsion
[ 19021 18997 18998 18999 ] final  -43.97 input  121.68 | X-H torsion
[ 17190 17170 17171 17172 ] final   14.82 input   47.05 | X-H torsion
[ 17242 17212 17213 17214 ] final   85.93 input  118.29 | X-H torsion
[ 18817 18805 18806 18807 ] final  170.13 input  116.09 | X-H torsion
[ 19085 19049 19050 19051 ] final   25.90 input   88.91 | X-H torsion
[ 18486 18441 18442 18443 ] final -116.69 input  100.68 | X-H torsion
[ 17298 17275 17276 17277 ] final   53.97 input   51.25 | X-H torsion
[ 18290 18267 18268 18269 ] final -113.04 input   31.65 | X-H torsion
[ 18324 18309 18310 18311 ] final -113.52 input   53.83 | X-H torsion
[ 18399 18347 18348 18349 ] final   84.22 input   27.99 | X-H torsion
[ 7521 7509 7510 7511 ] final   77.43 input   80.33 | X-H torsion
[ 7493 7448 7449 7450 ] final   45.37 input   99.31 | X-H torsion
[ 18598 18585 18586 18587 ] final -159.67 input  129.83 | X-H torsion
[ 10115 10088 10087 10084 ] final   52.79 input   59.98 | X-H torsion
[ 18294 18272 18271 18268 ] final -172.12 input   59.99 | X-H torsion
[ 18643 18622 18620 18617 ] final  113.29 input   59.97 | X-H torsion
[ 18857 18836 18837 18838 ] final -138.83 input   87.55 | X-H torsion
[ 22429 22408 22409 22410 ] final -166.75 input   59.22 | X-H torsion
[ 10151 10126 10127 10128 ] final  -65.92 input   20.82 | X-H torsion
[ 18234 18192 18193 18194 ] final -125.01 input   40.98 | X-H torsion
[ 11814 11769 11770 11771 ] final   45.92 input   85.42 | X-H torsion
[ 16978 16933 16934 16935 ] final  -17.94 input   88.91 | X-H torsion
[ 27198 18524 18523 18522 ] final -126.54 input    0.00 | X-H torsion
[ 27200 18619 18618 18617 ] final   33.03 input    0.00 | X-H torsion
[ 27203 18677 18676 18675 ] final   67.71 input    0.00 | X-H torsion
[ 27223 17119 17118 17117 ] final -135.20 input    0.00 | X-H torsion
[ 27227 11596 11595 11594 ] final -116.06 input   -0.00 | X-H torsion
[ 27231 17044 17043 17042 ] final -120.11 input    0.00 | X-H torsion
[ 27233 18736 18735 18734 ] final -119.84 input   -0.00 | X-H torsion
[ 27235 18588 18587 18586 ] final   61.60 input    0.00 | X-H torsion
[ 27238 18907 18906 18905 ] final -173.30 input    0.00 | X-H torsion
[ 27240 19000 18999 18998 ] final  -58.60 input    0.00 | X-H torsion
[ 27243 17173 17172 17171 ] final  106.52 input    0.00 | X-H torsion
[ 27245 18350 18349 18348 ] final -107.30 input    0.00 | X-H torsion
[ 27248 11406 11405 11404 ] final  -87.56 input   -0.00 | X-H torsion
[ 27250 18195 18194 18193 ] final  -68.94 input    0.00 | X-H torsion
[ 27254 17215 17214 17213 ] final -112.98 input   -0.00 | X-H torsion
[ 27260 18312 18311 18310 ] final  -59.53 input   -0.00 | X-H torsion
[ 27262 18444 18443 18442 ] final  -65.17 input    0.00 | X-H torsion
[ 27265 18270 18269 18268 ] final  -14.54 input    0.00 | X-H torsion
[ 27273 16936 16935 16934 ] final  -22.01 input   -0.00 | X-H torsion

> <Gold.Protein.ActiveResidues>
 TRP414  CYS420  VAL421  GLY422  LEU460  SER462  ALA463  SER482  GLN483  ILE485 
 ARG486  TYR487  ASP500  ASN503  TRP566  TYR567  LEU569  PRO570  ALA571  VAL572 
 SER573  ASN574  PHE589  SER590  GLY591  TRP592  TYR593  MET594  GLY595  THR596 
 GLU597  ILE598  GLY599  VAL600  ARG601  ASP602  TYR603  ARG608  ILE653  VAL654 
 TRP683  PRO687  HEM750  H4B760 

> <Gold.Protein.RotatedAtoms>
  194.9693   10.9743   53.4864 H   0  0  0  0  0  0  0  0  0  0  0  0  # atno 7493 bound_to 7448
  194.9389    9.1532   53.5419 H   0  0  0  0  0  0  0  0  0  0  0  0  # atno 7521 bound_to 7509
  188.9138    1.3620   51.5831 H   0  0  0  0  0  0  0  0  0  0  0  0  # atno 10115 bound_to 10088
  188.4290    1.6383   47.1948 H   0  0  0  0  0  0  0  0  0  0  0  0  # atno 10151 bound_to 10126
  176.4464   17.7402   47.3470 H   0  0  0  0  0  0  0  0  0  0  0  0  # atno 11814 bound_to 11769
  176.6800   12.4279   54.3725 H   0  0  0  0  0  0  0  0  0  0  0  0  # atno 16978 bound_to 16933
  181.0685   14.8123   50.1722 H   0  0  0  0  0  0  0  0  0  0  0  0  # atno 16986 bound_to 16944
  183.2049   10.9269   47.2674 H   0  0  0  0  0  0  0  0  0  0  0  0  # atno 17190 bound_to 17170
  186.1484    9.9224   45.5031 H   0  0  0  0  0  0  0  0  0  0  0  0  # atno 17242 bound_to 17212
  185.2378   12.9877   42.2265 H   0  0  0  0  0  0  0  0  0  0  0  0  # atno 17298 bound_to 17275
  186.5354    6.7915   41.9011 H   0  0  0  0  0  0  0  0  0  0  0  0  # atno 18234 bound_to 18192
  187.4647    6.4640   45.5130 H   0  0  0  0  0  0  0  0  0  0  0  0  # atno 18290 bound_to 18267
  183.5575    4.3779   46.8724 H   0  0  0  0  0  0  0  0  0  0  0  0  # atno 18294 bound_to 18272
  186.8015    5.2579   48.7522 H   0  0  0  0  0  0  0  0  0  0  0  0  # atno 18324 bound_to 18309
  187.2801    5.5059   53.1390 H   0  0  0  0  0  0  0  0  0  0  0  0  # atno 18399 bound_to 18347
  185.4489    8.0802   54.3025 H   0  0  0  0  0  0  0  0  0  0  0  0  # atno 18486 bound_to 18441
  181.9255   13.1374   51.0823 H   0  0  0  0  0  0  0  0  0  0  0  0  # atno 18494 bound_to 18452
  186.4186   11.2390   56.5028 H   0  0  0  0  0  0  0  0  0  0  0  0  # atno 18557 bound_to 18521
  186.0497   11.3073   59.8528 H   0  0  0  0  0  0  0  0  0  0  0  0  # atno 18598 bound_to 18585
  189.5741   16.8059   59.0247 H   0  0  0  0  0  0  0  0  0  0  0  0  # atno 18643 bound_to 18622
  186.1579   15.2901   58.1748 H   0  0  0  0  0  0  0  0  0  0  0  0  # atno 18701 bound_to 18674
  184.5004   17.1256   57.4984 H   0  0  0  0  0  0  0  0  0  0  0  0  # atno 18757 bound_to 18733
  182.3340   16.6305   59.5133 H   0  0  0  0  0  0  0  0  0  0  0  0  # atno 18817 bound_to 18805
  183.8203   19.5826   61.0220 H   0  0  0  0  0  0  0  0  0  0  0  0  # atno 18857 bound_to 18836
  185.4730   21.5764   58.4637 H   0  0  0  0  0  0  0  0  0  0  0  0  # atno 18937 bound_to 18904
  183.4691   21.5947   55.8497 H   0  0  0  0  0  0  0  0  0  0  0  0  # atno 19021 bound_to 18997
  181.7332   21.7324   56.9910 H   0  0  0  0  0  0  0  0  0  0  0  0  # atno 19085 bound_to 19049
  186.1243    6.6766   60.1532 H   0  0  0  0  0  0  0  0  0  0  0  0  # atno 22429 bound_to 22408
  179.9265   15.8179   49.5965 LP  0  0  0  0  0  0  0  0  0  0  0  0  # atno 27193 bound_to 16944
  180.5436   14.6461   48.6412 LP  0  0  0  0  0  0  0  0  0  0  0  0  # atno 27194 bound_to 16944
  182.5047   14.4277   51.8876 LP  0  0  0  0  0  0  0  0  0  0  0  0  # atno 27195 bound_to 18452
  180.9751   13.9187   52.1478 LP  0  0  0  0  0  0  0  0  0  0  0  0  # atno 27196 bound_to 18452
  187.5655    9.9223   56.6077 LP  0  0  0  0  0  0  0  0  0  0  0  0  # atno 27197 bound_to 18521
  186.3928   14.2454   58.2413 LP  0  0  0  0  0  0  0  0  0  0  0  0  # atno 27198 bound_to 18524
  185.9125   13.0667   57.0666 LP  0  0  0  0  0  0  0  0  0  0  0  0  # atno 27199 bound_to 18524
  186.5488   19.0179   59.1563 LP  0  0  0  0  0  0  0  0  0  0  0  0  # atno 27200 bound_to 18619
  185.4518   18.5384   57.9046 LP  0  0  0  0  0  0  0  0  0  0  0  0  # atno 27201 bound_to 18619
  186.9393   16.8321   58.4185 LP  0  0  0  0  0  0  0  0  0  0  0  0  # atno 27202 bound_to 18674
  184.4974   18.1746   54.8067 LP  0  0  0  0  0  0  0  0  0  0  0  0  # atno 27203 bound_to 18677
  184.2260   19.0311   56.2875 LP  0  0  0  0  0  0  0  0  0  0  0  0  # atno 27204 bound_to 18677
  184.0484   15.6079   56.7518 LP  0  0  0  0  0  0  0  0  0  0  0  0  # atno 27209 bound_to 18733
  184.7587   20.1463   57.7617 LP  0  0  0  0  0  0  0  0  0  0  0  0  # atno 27210 bound_to 18904
  183.5874   19.8896   55.4907 LP  0  0  0  0  0  0  0  0  0  0  0  0  # atno 27211 bound_to 18997
  185.4953    8.7394   48.1290 LP  0  0  0  0  0  0  0  0  0  0  0  0  # atno 27223 bound_to 17119
  184.5195    7.9458   49.3199 LP  0  0  0  0  0  0  0  0  0  0  0  0  # atno 27224 bound_to 17119
  183.2477    9.4163   48.1453 LP  0  0  0  0  0  0  0  0  0  0  0  0  # atno 27225 bound_to 17170
  184.5754   10.6858   45.4225 LP  0  0  0  0  0  0  0  0  0  0  0  0  # atno 27226 bound_to 17212
  178.9313   13.5014   47.8574 LP  0  0  0  0  0  0  0  0  0  0  0  0  # atno 27227 bound_to 11596
  179.7878   13.1275   46.3991 LP  0  0  0  0  0  0  0  0  0  0  0  0  # atno 27228 bound_to 11596
  180.9441    9.5176   48.2835 LP  0  0  0  0  0  0  0  0  0  0  0  0  # atno 27231 bound_to 17044
  179.7039    9.9125   49.4263 LP  0  0  0  0  0  0  0  0  0  0  0  0  # atno 27232 bound_to 17044
  182.2632   19.8759   58.2059 LP  0  0  0  0  0  0  0  0  0  0  0  0  # atno 27233 bound_to 18736
  180.7962   19.1095   57.6956 LP  0  0  0  0  0  0  0  0  0  0  0  0  # atno 27234 bound_to 18736
  183.5762   15.4358   60.7197 LP  0  0  0  0  0  0  0  0  0  0  0  0  # atno 27235 bound_to 18588
  184.2078   15.8554   59.1625 LP  0  0  0  0  0  0  0  0  0  0  0  0  # atno 27236 bound_to 18588
  183.0720   17.9942   58.6999 LP  0  0  0  0  0  0  0  0  0  0  0  0  # atno 27237 bound_to 18805
  182.3421   23.0918   55.2037 LP  0  0  0  0  0  0  0  0  0  0  0  0  # atno 27238 bound_to 18907
  183.8772   23.7881   55.6021 LP  0  0  0  0  0  0  0  0  0  0  0  0  # atno 27239 bound_to 18907
  180.1486   22.9742   54.3570 LP  0  0  0  0  0  0  0  0  0  0  0  0  # atno 27240 bound_to 19000
  178.8941   22.0644   55.1306 LP  0  0  0  0  0  0  0  0  0  0  0  0  # atno 27241 bound_to 19000
  180.4629   20.7750   56.2659 LP  0  0  0  0  0  0  0  0  0  0  0  0  # atno 27242 bound_to 19049
  183.1231   11.5614   44.2096 LP  0  0  0  0  0  0  0  0  0  0  0  0  # atno 27243 bound_to 17173
  183.2701   10.0334   43.4073 LP  0  0  0  0  0  0  0  0  0  0  0  0  # atno 27244 bound_to 17173
  187.8784    8.0496   55.0026 LP  0  0  0  0  0  0  0  0  0  0  0  0  # atno 27245 bound_to 18350
  187.4443    8.4590   53.3766 LP  0  0  0  0  0  0  0  0  0  0  0  0  # atno 27246 bound_to 18350
  184.6517    7.6839   55.8064 LP  0  0  0  0  0  0  0  0  0  0  0  0  # atno 27247 bound_to 18441
  184.9995   13.8368   41.9884 LP  0  0  0  0  0  0  0  0  0  0  0  0  # atno 27248 bound_to 11406
  185.1901   14.8845   43.3544 LP  0  0  0  0  0  0  0  0  0  0  0  0  # atno 27249 bound_to 11406
  187.3687    8.6175   45.3092 LP  0  0  0  0  0  0  0  0  0  0  0  0  # atno 27250 bound_to 18195
  185.7046    8.1396   45.3569 LP  0  0  0  0  0  0  0  0  0  0  0  0  # atno 27251 bound_to 18195
  187.3963   10.1448   41.9680 LP  0  0  0  0  0  0  0  0  0  0  0  0  # atno 27254 bound_to 17215
  186.1895    9.3041   42.8827 LP  0  0  0  0  0  0  0  0  0  0  0  0  # atno 27255 bound_to 17215
  185.9685   11.4591   42.6330 LP  0  0  0  0  0  0  0  0  0  0  0  0  # atno 27256 bound_to 17275
  186.7407    4.8752   45.5563 LP  0  0  0  0  0  0  0  0  0  0  0  0  # atno 27257 bound_to 18267
  186.9979    6.7790   49.5976 LP  0  0  0  0  0  0  0  0  0  0  0  0  # atno 27258 bound_to 18309
  186.2911    6.2587   51.9028 LP  0  0  0  0  0  0  0  0  0  0  0  0  # atno 27259 bound_to 18347
  184.5062    5.1196   50.7555 LP  0  0  0  0  0  0  0  0  0  0  0  0  # atno 27260 bound_to 18312
  184.5740    4.2468   52.2500 LP  0  0  0  0  0  0  0  0  0  0  0  0  # atno 27261 bound_to 18312
  185.4034    8.7846   58.3635 LP  0  0  0  0  0  0  0  0  0  0  0  0  # atno 27262 bound_to 18444
  187.0009    8.2418   57.9721 LP  0  0  0  0  0  0  0  0  0  0  0  0  # atno 27263 bound_to 18444
  195.6120    9.1111   55.1499 LP  0  0  0  0  0  0  0  0  0  0  0  0  # atno 27264 bound_to 7509
  187.0699    3.5885   47.3453 LP  0  0  0  0  0  0  0  0  0  0  0  0  # atno 27265 bound_to 18270
  187.9391    3.5868   48.8435 LP  0  0  0  0  0  0  0  0  0  0  0  0  # atno 27266 bound_to 18270
  196.5471   11.7162   53.3239 LP  0  0  0  0  0  0  0  0  0  0  0  0  # atno 27267 bound_to 7448
  187.1487   12.6636   59.7816 LP  0  0  0  0  0  0  0  0  0  0  0  0  # atno 27268 bound_to 18585
  189.0700    2.8465   50.9349 LP  0  0  0  0  0  0  0  0  0  0  0  0  # atno 27269 bound_to 10088
  190.3913    1.9228   51.1948 LP  0  0  0  0  0  0  0  0  0  0  0  0  # atno 27270 bound_to 10088
  184.8488    3.8742   47.7248 LP  0  0  0  0  0  0  0  0  0  0  0  0  # atno 27271 bound_to 18272
  185.0002    4.2215   46.1364 LP  0  0  0  0  0  0  0  0  0  0  0  0  # atno 27272 bound_to 18272
  178.6457   11.7006   53.6902 LP  0  0  0  0  0  0  0  0  0  0  0  0  # atno 27273 bound_to 16936
  179.0114   10.2526   54.5675 LP  0  0  0  0  0  0  0  0  0  0  0  0  # atno 27274 bound_to 16936

> <Gold.Score>
     Fitness  S(hb_ext) S(vdw_ext)  S(hb_int)    S(int)      intcor
     30.60       0.44      22.70       0.00      -1.05      -0.76

> <Gold.Goldscore.Fitness>
30.6028

> <Gold.Goldscore.Internal.Vdw>
-1.3495

> <Gold.Goldscore.Internal.Torsion>
-0.4586

> <Gold.Goldscore.External.Vdw>
22.6979

> <Gold.Goldscore.Internal.HBond>
0.0000

> <Gold.Goldscore.External.HBond>
0.4428

> <Gold.Goldscore.Internal.Correction>
-0.7585

> <Gold.Goldscore.Hbonds>
donor molecule, donor type, donor heavy atom, donor atom, acceptor molecule, acceptor atom, score
      P1  H 18441 18486       L1    17  0.16
      L1  H    10    23       P1 18309  0.02

> <Gold.Goldscore.Internal.Vdw.Weighted>
-1.3495

> <Gold.Goldscore.Internal.Torsion.Weighted>
-0.4586

> <Gold.Goldscore.External.Vdw.Weighted>
31.2096

> <Gold.Goldscore.Internal.HBond.Weighted>
0.0000

> <Gold.Goldscore.External.HBond.Weighted>
0.4428

> <Gold.Goldscore.Internal.Correction.Weighted>
-0.7585

> <Gold.Rescore>
     Score     S(PLP)   S(hbond)     S(cho)   S(metal)  DE(clash)   DE(tors)     intcor
     26.96     -28.41       0.27       0.00       0.00       0.00       1.13       ----

> <Gold.PLP.Fitness>
26.9597

> <Gold.PLP.PLP>
-28.4112

> <Gold.PLP.part.hbond>
-4.0000

> <Gold.PLP.part.metal>
0.0000

> <Gold.PLP.part.buried>
13.3791

> <Gold.PLP.part.nonpolar>
-40.2531

> <Gold.PLP.part.repulsive>
2.3523

> <Gold.PLP.ligand.clash>
0.0000

> <Gold.PLP.ligand.torsion>
1.1290

> <Gold.PLP.Chemscore.Hbond>
0.2688

> <Gold.PLP.Chemscore.CHOScore>
0.0000

> <Gold.PLP.Chemscore.Metal>
0.0000

> <Gold.Chemscore.Hbonds>
donor molecule, donor type, donor heavy atom, donor atom, acceptor molecule, acceptor atom, score
      L1  H    10    23       P1 17119  0.11

> <Gold.PLP.Chemscore.Internal.Correction>
   9.000000E+99

