#       Name:                CT1002167954
#       Creating user name   hitesit
#       Creation time:       Sun Apr 16 20:21:52 2023


#       File generated by GOLD software.
#

@<TRIPOS>MOLECULE
CT1002167954|ligand_prepared|mol2|1|dock3
    29    30     1
SMALL
NO_CHARGES


@<TRIPOS>ATOM
      1 C1         186.8109  17.6490  47.5863 C.3            1 RES1               0.0000
      2 C2         186.5555  16.5951  48.6830 C.ar           1 RES1               0.0000
      3 C3         188.3252  17.7370  47.4210 C.2            1 RES1               0.0000
      4 C4         186.0769  17.1579  46.3435 C.2            1 RES1               0.0000
      5 C5         186.2721  19.0562  47.9345 C.3            1 RES1               0.0000
      6 C6         187.0204  15.2917  48.5353 C.ar           1 RES1               0.0000
      7 C7         185.8601  16.9113  49.8471 C.ar           1 RES1               0.0000
      8 N8         188.8725  17.1768  46.3046 N.am           1 RES1               0.0000
      9 O9         189.0323  18.2552  48.2764 O.2            1 RES1               0.0000
     10 N10        186.8270  16.8039  45.2527 N.am           1 RES1               0.0000
     11 O11        184.8567  17.0584  46.3046 O.2            1 RES1               0.0000
     12 C12        186.5429  20.0991  46.8616 C.3            1 RES1               0.0000
     13 C13        186.8008  14.3397  49.5170 C.ar           1 RES1               0.0000
     14 C14        185.6414  15.9576  50.8275 C.ar           1 RES1               0.0000
     15 C15        188.1930  16.7620  45.1874 C.2            1 RES1               0.0000
     16 C16        186.1116  14.6720  50.6638 C.ar           1 RES1               0.0000
     17 O17        188.7957  16.3802  44.1883 O.2            1 RES1               0.0000
     18 H18        185.1893  18.9895  48.0968 H              1 RES1               0.0000
     19 H19        186.7321  19.3880  48.8735 H              1 RES1               0.0000
     20 H20        187.5626  15.0110  47.6385 H              1 RES1               0.0000
     21 H21        185.4800  17.9161  49.9969 H              1 RES1               0.0000
     22 H22        189.8802  17.0549  46.2999 H              1 RES1               0.0000
     23 H23        186.3200  16.5482  44.4113 H              1 RES1               0.0000
     24 H24        186.1445  21.0678  47.1560 H              1 RES1               0.0000
     25 H25        187.6120  20.2097  46.6922 H              1 RES1               0.0000
     26 H26        186.0783  19.8135  45.9201 H              1 RES1               0.0000
     27 H27        187.1717  13.3289  49.3827 H              1 RES1               0.0000
     28 H28        185.0979  16.2235  51.7282 H              1 RES1               0.0000
     29 H29        185.9400  13.9261  51.4328 H              1 RES1               0.0000
@<TRIPOS>BOND
    1    1    2 1     
    2    1    3 1     
    3    1    4 1     
    4    1    5 1     
    5    2    6 ar    
    6    2    7 ar    
    7    3    8 1     
    8    3    9 2     
    9    4   10 1     
   10    4   11 2     
   11    5   12 1     
   12    5   18 1     
   13    5   19 1     
   14    6   13 ar    
   15    6   20 1     
   16    7   14 ar    
   17    7   21 1     
   18    8   15 1     
   19    8   22 1     
   20   10   15 1     
   21   10   23 1     
   22   12   24 1     
   23   12   25 1     
   24   12   26 1     
   25   13   16 ar    
   26   13   27 1     
   27   14   16 ar    
   28   14   28 1     
   29   15   17 2     
   30   16   29 1     
@<TRIPOS>SUBSTRUCTURE
      1 RES1           1
@<TRIPOS>SET
DONOR_HYDROGENS      STATIC     ATOMS    <user>   **** ""
2 22 23
ATOM$RED        STATIC     ATOMS    COLORGROUP SYSTEM
2 22 23
@<TRIPOS>COMMENT
> <Gold.Version>
2022.3.0

> <Gold.Id.Protein>
unknown|4d1n_clean|pdb

> <Gold.Protein.RotatedTorsions>
[ 16986 16944 16943 16941 ] final   11.99 input   59.98 | X-H torsion
[ 18494 18452 18451 18449 ] final  -70.06 input   59.98 | X-H torsion
[ 18557 18521 18522 18523 ] final -157.56 input   91.55 | X-H torsion
[ 18701 18674 18675 18676 ] final -123.98 input  121.65 | X-H torsion
[ 18757 18733 18734 18735 ] final   80.13 input   95.18 | X-H torsion
[ 18937 18904 18905 18906 ] final  131.95 input   99.08 | X-H torsion
[ 19021 18997 18998 18999 ] final    2.47 input  121.68 | X-H torsion
[ 17190 17170 17171 17172 ] final   57.17 input   47.05 | X-H torsion
[ 17242 17212 17213 17214 ] final -154.29 input  118.29 | X-H torsion
[ 18817 18805 18806 18807 ] final  114.85 input  116.09 | X-H torsion
[ 19085 19049 19050 19051 ] final   49.75 input   88.91 | X-H torsion
[ 18486 18441 18442 18443 ] final -135.29 input  100.68 | X-H torsion
[ 17298 17275 17276 17277 ] final  -99.23 input   51.25 | X-H torsion
[ 18290 18267 18268 18269 ] final   62.74 input   31.65 | X-H torsion
[ 18324 18309 18310 18311 ] final  121.96 input   53.83 | X-H torsion
[ 18399 18347 18348 18349 ] final  177.68 input   27.99 | X-H torsion
[ 7521 7509 7510 7511 ] final   76.91 input   80.33 | X-H torsion
[ 7493 7448 7449 7450 ] final   71.93 input   99.31 | X-H torsion
[ 18598 18585 18586 18587 ] final  147.56 input  129.83 | X-H torsion
[ 10115 10088 10087 10084 ] final   31.30 input   59.98 | X-H torsion
[ 18294 18272 18271 18268 ] final -124.24 input   59.99 | X-H torsion
[ 18643 18622 18620 18617 ] final   -7.74 input   59.97 | X-H torsion
[ 18857 18836 18837 18838 ] final -134.88 input   87.55 | X-H torsion
[ 22429 22408 22409 22410 ] final   28.30 input   59.22 | X-H torsion
[ 10151 10126 10127 10128 ] final  -41.08 input   20.82 | X-H torsion
[ 18234 18192 18193 18194 ] final -126.78 input   40.98 | X-H torsion
[ 11814 11769 11770 11771 ] final  139.45 input   85.42 | X-H torsion
[ 16978 16933 16934 16935 ] final  138.72 input   88.91 | X-H torsion
[ 27198 18524 18523 18522 ] final  -43.87 input    0.00 | X-H torsion
[ 27200 18619 18618 18617 ] final -137.88 input    0.00 | X-H torsion
[ 27203 18677 18676 18675 ] final  136.11 input    0.00 | X-H torsion
[ 27223 17119 17118 17117 ] final   15.03 input    0.00 | X-H torsion
[ 27227 11596 11595 11594 ] final  169.57 input   -0.00 | X-H torsion
[ 27231 17044 17043 17042 ] final  -11.82 input    0.00 | X-H torsion
[ 27233 18736 18735 18734 ] final  123.46 input   -0.00 | X-H torsion
[ 27235 18588 18587 18586 ] final   28.81 input    0.00 | X-H torsion
[ 27238 18907 18906 18905 ] final    8.66 input    0.00 | X-H torsion
[ 27240 19000 18999 18998 ] final -154.29 input    0.00 | X-H torsion
[ 27243 17173 17172 17171 ] final  -99.07 input    0.00 | X-H torsion
[ 27245 18350 18349 18348 ] final   55.54 input    0.00 | X-H torsion
[ 27248 11406 11405 11404 ] final  151.05 input   -0.00 | X-H torsion
[ 27250 18195 18194 18193 ] final -135.10 input    0.00 | X-H torsion
[ 27254 17215 17214 17213 ] final   29.53 input   -0.00 | X-H torsion
[ 27260 18312 18311 18310 ] final   53.50 input   -0.00 | X-H torsion
[ 27262 18444 18443 18442 ] final  120.41 input    0.00 | X-H torsion
[ 27265 18270 18269 18268 ] final  -84.30 input    0.00 | X-H torsion
[ 27273 16936 16935 16934 ] final  -72.89 input   -0.00 | X-H torsion

> <Gold.Protein.ActiveResidues>
 TRP414  CYS420  VAL421  GLY422  LEU460  SER462  ALA463  SER482  GLN483  ILE485 
 ARG486  TYR487  ASP500  ASN503  TRP566  TYR567  LEU569  PRO570  ALA571  VAL572 
 SER573  ASN574  PHE589  SER590  GLY591  TRP592  TYR593  MET594  GLY595  THR596 
 GLU597  ILE598  GLY599  VAL600  ARG601  ASP602  TYR603  ARG608  ILE653  VAL654 
 TRP683  PRO687  HEM750  H4B760 

> <Gold.Protein.RotatedAtoms>
  194.9134   11.3490   53.6415 H   0  0  0  0  0  0  0  0  0  0  0  0  # atno 7493 bound_to 7448
  194.9455    9.1500   53.5391 H   0  0  0  0  0  0  0  0  0  0  0  0  # atno 7521 bound_to 7509
  188.6741    1.6032   51.5044 H   0  0  0  0  0  0  0  0  0  0  0  0  # atno 10115 bound_to 10088
  188.3041    1.9800   47.0894 H   0  0  0  0  0  0  0  0  0  0  0  0  # atno 10151 bound_to 10126
  175.9629   16.8479   48.1512 H   0  0  0  0  0  0  0  0  0  0  0  0  # atno 11814 bound_to 11769
  175.9875   13.1105   52.9313 H   0  0  0  0  0  0  0  0  0  0  0  0  # atno 16978 bound_to 16933
  181.0740   14.3646   49.2861 H   0  0  0  0  0  0  0  0  0  0  0  0  # atno 16986 bound_to 16944
  182.6419   10.6260   47.2368 H   0  0  0  0  0  0  0  0  0  0  0  0  # atno 17190 bound_to 17170
  185.1317   10.9367   46.0546 H   0  0  0  0  0  0  0  0  0  0  0  0  # atno 17242 bound_to 17212
  186.2847   11.6786   42.5091 H   0  0  0  0  0  0  0  0  0  0  0  0  # atno 17298 bound_to 17275
  186.5589    6.7911   41.8878 H   0  0  0  0  0  0  0  0  0  0  0  0  # atno 18234 bound_to 18192
  186.7877    4.8376   45.5853 H   0  0  0  0  0  0  0  0  0  0  0  0  # atno 18290 bound_to 18267
  183.9214    4.4538   46.2099 H   0  0  0  0  0  0  0  0  0  0  0  0  # atno 18294 bound_to 18272
  187.6782    6.4575   49.2821 H   0  0  0  0  0  0  0  0  0  0  0  0  # atno 18324 bound_to 18309
  186.2917    5.1500   52.3677 H   0  0  0  0  0  0  0  0  0  0  0  0  # atno 18399 bound_to 18347
  185.1818    8.1569   54.2348 H   0  0  0  0  0  0  0  0  0  0  0  0  # atno 18486 bound_to 18441
  181.7286   14.5287   52.3197 H   0  0  0  0  0  0  0  0  0  0  0  0  # atno 18494 bound_to 18452
  187.4682    9.8310   56.6995 H   0  0  0  0  0  0  0  0  0  0  0  0  # atno 18557 bound_to 18521
  186.4731   11.4477   60.4991 H   0  0  0  0  0  0  0  0  0  0  0  0  # atno 18598 bound_to 18585
  188.5921   15.5239   59.2434 H   0  0  0  0  0  0  0  0  0  0  0  0  # atno 18643 bound_to 18622
  187.2694   16.5774   58.2742 H   0  0  0  0  0  0  0  0  0  0  0  0  # atno 18701 bound_to 18674
  184.1307   15.8188   57.8163 H   0  0  0  0  0  0  0  0  0  0  0  0  # atno 18757 bound_to 18733
  183.1485   16.7374   59.6059 H   0  0  0  0  0  0  0  0  0  0  0  0  # atno 18817 bound_to 18805
  183.7704   19.6100   60.9998 H   0  0  0  0  0  0  0  0  0  0  0  0  # atno 18857 bound_to 18836
  185.7578   20.3121   57.8542 H   0  0  0  0  0  0  0  0  0  0  0  0  # atno 18937 bound_to 18904
  183.2094   21.1899   56.3524 H   0  0  0  0  0  0  0  0  0  0  0  0  # atno 19021 bound_to 18997
  181.7223   21.4413   57.2123 H   0  0  0  0  0  0  0  0  0  0  0  0  # atno 19085 bound_to 19049
  186.1467    8.3954   59.9658 H   0  0  0  0  0  0  0  0  0  0  0  0  # atno 22429 bound_to 22408
  180.5332   15.4958   50.3231 LP  0  0  0  0  0  0  0  0  0  0  0  0  # atno 27193 bound_to 16944
  179.9313   15.4191   48.8070 LP  0  0  0  0  0  0  0  0  0  0  0  0  # atno 27194 bound_to 16944
  181.0695   13.2521   51.5550 LP  0  0  0  0  0  0  0  0  0  0  0  0  # atno 27195 bound_to 18452
  182.6087   13.6936   51.2347 LP  0  0  0  0  0  0  0  0  0  0  0  0  # atno 27196 bound_to 18452
  186.5458   11.2902   56.4166 LP  0  0  0  0  0  0  0  0  0  0  0  0  # atno 27197 bound_to 18521
  186.9688   13.7565   57.3822 LP  0  0  0  0  0  0  0  0  0  0  0  0  # atno 27198 bound_to 18524
  185.3366   13.5556   57.9257 LP  0  0  0  0  0  0  0  0  0  0  0  0  # atno 27199 bound_to 18524
  185.3580   18.5318   58.0045 LP  0  0  0  0  0  0  0  0  0  0  0  0  # atno 27200 bound_to 18619
  186.6427   19.0246   59.0565 LP  0  0  0  0  0  0  0  0  0  0  0  0  # atno 27201 bound_to 18619
  185.8467   15.5667   58.3207 LP  0  0  0  0  0  0  0  0  0  0  0  0  # atno 27202 bound_to 18674
  183.6330   18.2418   55.2494 LP  0  0  0  0  0  0  0  0  0  0  0  0  # atno 27203 bound_to 18677
  185.0904   18.9639   55.8448 LP  0  0  0  0  0  0  0  0  0  0  0  0  # atno 27204 bound_to 18677
  184.4058   16.8712   56.4445 LP  0  0  0  0  0  0  0  0  0  0  0  0  # atno 27209 bound_to 18733
  184.4791   21.3878   58.3603 LP  0  0  0  0  0  0  0  0  0  0  0  0  # atno 27210 bound_to 18904
  183.8419   20.2861   54.9983 LP  0  0  0  0  0  0  0  0  0  0  0  0  # atno 27211 bound_to 18997
  184.7606    8.2418   49.5484 LP  0  0  0  0  0  0  0  0  0  0  0  0  # atno 27223 bound_to 17119
  185.2542    8.4433   47.9005 LP  0  0  0  0  0  0  0  0  0  0  0  0  # atno 27224 bound_to 17119
  183.7971    9.7099   48.1752 LP  0  0  0  0  0  0  0  0  0  0  0  0  # atno 27225 bound_to 17170
  185.5598    9.7037   44.8885 LP  0  0  0  0  0  0  0  0  0  0  0  0  # atno 27226 bound_to 17212
  179.2487   14.1733   47.1199 LP  0  0  0  0  0  0  0  0  0  0  0  0  # atno 27227 bound_to 11596
  179.4705   12.4556   47.1366 LP  0  0  0  0  0  0  0  0  0  0  0  0  # atno 27228 bound_to 11596
  179.7065    9.1099   48.8058 LP  0  0  0  0  0  0  0  0  0  0  0  0  # atno 27231 bound_to 17044
  180.9415   10.3203   48.9039 LP  0  0  0  0  0  0  0  0  0  0  0  0  # atno 27232 bound_to 17044
  180.9281   19.3597   58.5594 LP  0  0  0  0  0  0  0  0  0  0  0  0  # atno 27233 bound_to 18736
  182.1313   19.6256   57.3421 LP  0  0  0  0  0  0  0  0  0  0  0  0  # atno 27234 bound_to 18736
  183.4128   15.0961   60.4084 LP  0  0  0  0  0  0  0  0  0  0  0  0  # atno 27235 bound_to 18588
  184.3712   16.1952   59.4739 LP  0  0  0  0  0  0  0  0  0  0  0  0  # atno 27236 bound_to 18588
  182.2859   17.8911   58.6105 LP  0  0  0  0  0  0  0  0  0  0  0  0  # atno 27237 bound_to 18805
  183.8852   23.7854   55.5738 LP  0  0  0  0  0  0  0  0  0  0  0  0  # atno 27238 bound_to 18907
  182.3341   23.0945   55.2321 LP  0  0  0  0  0  0  0  0  0  0  0  0  # atno 27239 bound_to 18907
  179.4472   23.0419   55.4304 LP  0  0  0  0  0  0  0  0  0  0  0  0  # atno 27240 bound_to 19000
  179.5954   21.9967   54.0572 LP  0  0  0  0  0  0  0  0  0  0  0  0  # atno 27241 bound_to 19000
  180.4735   21.0589   56.0501 LP  0  0  0  0  0  0  0  0  0  0  0  0  # atno 27242 bound_to 19049
  183.5545   10.2388   43.2518 LP  0  0  0  0  0  0  0  0  0  0  0  0  # atno 27243 bound_to 17173
  182.8387   11.3561   44.3650 LP  0  0  0  0  0  0  0  0  0  0  0  0  # atno 27244 bound_to 17173
  187.5202    8.2152   53.3360 LP  0  0  0  0  0  0  0  0  0  0  0  0  # atno 27245 bound_to 18350
  187.8025    8.2934   55.0432 LP  0  0  0  0  0  0  0  0  0  0  0  0  # atno 27246 bound_to 18350
  184.9122    7.6091   55.8724 LP  0  0  0  0  0  0  0  0  0  0  0  0  # atno 27247 bound_to 18441
  184.8352   14.1222   43.4625 LP  0  0  0  0  0  0  0  0  0  0  0  0  # atno 27248 bound_to 11406
  185.3544   14.5991   41.8804 LP  0  0  0  0  0  0  0  0  0  0  0  0  # atno 27249 bound_to 11406
  186.9269    8.3653   46.1060 LP  0  0  0  0  0  0  0  0  0  0  0  0  # atno 27250 bound_to 18195
  186.1463    8.3919   44.5601 LP  0  0  0  0  0  0  0  0  0  0  0  0  # atno 27251 bound_to 18195
  186.6215    9.4149   43.2158 LP  0  0  0  0  0  0  0  0  0  0  0  0  # atno 27254 bound_to 17215
  186.9643   10.0340   41.6349 LP  0  0  0  0  0  0  0  0  0  0  0  0  # atno 27255 bound_to 17215
  184.9279   12.7603   42.3520 LP  0  0  0  0  0  0  0  0  0  0  0  0  # atno 27256 bound_to 17275
  187.4041    6.4687   45.4854 LP  0  0  0  0  0  0  0  0  0  0  0  0  # atno 27257 bound_to 18267
  186.1519    5.6214   49.0863 LP  0  0  0  0  0  0  0  0  0  0  0  0  # atno 27258 bound_to 18309
  187.2383    6.5997   52.6420 LP  0  0  0  0  0  0  0  0  0  0  0  0  # atno 27259 bound_to 18347
  184.8683    3.8865   51.4154 LP  0  0  0  0  0  0  0  0  0  0  0  0  # atno 27260 bound_to 18312
  184.2119    5.4798   51.5902 LP  0  0  0  0  0  0  0  0  0  0  0  0  # atno 27261 bound_to 18312
  187.0292    8.2968   58.0294 LP  0  0  0  0  0  0  0  0  0  0  0  0  # atno 27262 bound_to 18444
  185.3751    8.7297   58.3062 LP  0  0  0  0  0  0  0  0  0  0  0  0  # atno 27263 bound_to 18444
  195.6054    9.1142   55.1527 LP  0  0  0  0  0  0  0  0  0  0  0  0  # atno 27264 bound_to 7509
  186.6970    3.2992   48.2161 LP  0  0  0  0  0  0  0  0  0  0  0  0  # atno 27265 bound_to 18270
  188.3119    3.8761   47.9728 LP  0  0  0  0  0  0  0  0  0  0  0  0  # atno 27266 bound_to 18270
  196.6010   11.3546   53.1743 LP  0  0  0  0  0  0  0  0  0  0  0  0  # atno 27267 bound_to 7448
  186.7348   12.5265   59.1499 LP  0  0  0  0  0  0  0  0  0  0  0  0  # atno 27268 bound_to 18585
  189.4102    2.9100   50.8729 LP  0  0  0  0  0  0  0  0  0  0  0  0  # atno 27269 bound_to 10088
  190.2926    1.6164   51.3360 LP  0  0  0  0  0  0  0  0  0  0  0  0  # atno 27270 bound_to 10088
  184.1020    4.0342   47.7716 LP  0  0  0  0  0  0  0  0  0  0  0  0  # atno 27271 bound_to 18272
  185.3804    3.9851   46.7568 LP  0  0  0  0  0  0  0  0  0  0  0  0  # atno 27272 bound_to 18272
  179.0932   11.2197   53.3409 LP  0  0  0  0  0  0  0  0  0  0  0  0  # atno 27273 bound_to 16936
  178.5639   10.7335   54.9168 LP  0  0  0  0  0  0  0  0  0  0  0  0  # atno 27274 bound_to 16936

> <Gold.Score>
     Fitness  S(hb_ext) S(vdw_ext)  S(hb_int)    S(int)      intcor
     32.78       7.07      18.71       0.00      -0.01      -0.79

> <Gold.Goldscore.Fitness>
32.7780

> <Gold.Goldscore.Internal.Vdw>
-0.4335

> <Gold.Goldscore.Internal.Torsion>
-0.3686

> <Gold.Goldscore.External.Vdw>
18.7078

> <Gold.Goldscore.Internal.HBond>
0.0000

> <Gold.Goldscore.External.HBond>
7.0670

> <Gold.Goldscore.Internal.Correction>
-0.7898

> <Gold.Goldscore.Hbonds>
donor molecule, donor type, donor heavy atom, donor atom, acceptor molecule, acceptor atom, score
      P1  H 11457 11492       L1    11  0.41
      P1  H 17327 17351       L1    17  1.00
      L1  H     8    22       P1 26826  0.70
      L1  H    10    23       P1 11406  0.02

> <Gold.Goldscore.Internal.Vdw.Weighted>
-0.4335

> <Gold.Goldscore.Internal.Torsion.Weighted>
-0.3686

> <Gold.Goldscore.External.Vdw.Weighted>
25.7232

> <Gold.Goldscore.Internal.HBond.Weighted>
0.0000

> <Gold.Goldscore.External.HBond.Weighted>
7.0670

> <Gold.Goldscore.Internal.Correction.Weighted>
-0.7898

> <Gold.Rescore>
     Score     S(PLP)   S(hbond)     S(cho)   S(metal)  DE(clash)   DE(tors)     intcor
     31.99     -23.04       3.00       0.00       0.00       0.00       0.02       ----

> <Gold.PLP.Fitness>
31.9950

> <Gold.PLP.PLP>
-23.0436

> <Gold.PLP.part.hbond>
-3.0860

> <Gold.PLP.part.metal>
0.0000

> <Gold.PLP.part.buried>
-4.6813

> <Gold.PLP.part.nonpolar>
-15.9492

> <Gold.PLP.part.repulsive>
0.9079

> <Gold.PLP.ligand.clash>
0.0000

> <Gold.PLP.ligand.torsion>
0.0243

> <Gold.PLP.Chemscore.Hbond>
3.0000

> <Gold.PLP.Chemscore.CHOScore>
0.0000

> <Gold.PLP.Chemscore.Metal>
0.0000

> <Gold.Chemscore.Hbonds>
donor molecule, donor type, donor heavy atom, donor atom, acceptor molecule, acceptor atom, score
      L1  H     8    22       P1 26826  1.00
      P1  H 11457 11492       L1    11  0.50
      P1  H 17327 17351       L1    17  0.76

> <Gold.PLP.Chemscore.Internal.Correction>
   9.000000E+99

