#       Name:                CT1002167954
#       Creating user name   hitesit
#       Creation time:       Sun Apr 16 20:21:51 2023


#       File generated by GOLD software.
#

@<TRIPOS>MOLECULE
CT1002167954|ligand_prepared|mol2|1|dock2
    29    30     1
SMALL
NO_CHARGES


@<TRIPOS>ATOM
      1 C1         185.4967  16.7266  50.9315 C.3            1 RES1               0.0000
      2 C2         186.3445  16.2962  49.7172 C.ar           1 RES1               0.0000
      3 C3         185.2155  18.2155  50.7517 C.2            1 RES1               0.0000
      4 C4         184.2487  15.8510  50.9123 C.2            1 RES1               0.0000
      5 C5         186.2037  16.5210  52.2915 C.3            1 RES1               0.0000
      6 C6         186.4019  17.0903  48.5758 C.ar           1 RES1               0.0000
      7 C7         187.0755  15.1111  49.7244 C.ar           1 RES1               0.0000
      8 N8         183.9551  18.5800  50.3796 N.am           1 RES1               0.0000
      9 O9         186.0966  19.0541  50.8955 O.2            1 RES1               0.0000
     10 N10        183.0411  16.4591  50.6894 N.am           1 RES1               0.0000
     11 O11        184.3020  14.6377  51.0717 O.2            1 RES1               0.0000
     12 C12        185.4167  17.0541  53.4784 C.3            1 RES1               0.0000
     13 C13        187.1648  16.7150  47.4824 C.ar           1 RES1               0.0000
     14 C14        187.8375  14.7375  48.6298 C.ar           1 RES1               0.0000
     15 C15        182.8412  17.7796  50.3916 C.2            1 RES1               0.0000
     16 C16        187.8833  15.5387  47.5088 C.ar           1 RES1               0.0000
     17 O17        181.7299  18.2417  50.1496 O.2            1 RES1               0.0000
     18 H18        186.3812  15.4485  52.4386 H              1 RES1               0.0000
     19 H19        187.1794  17.0214  52.2615 H              1 RES1               0.0000
     20 H20        185.8412  18.0182  48.5358 H              1 RES1               0.0000
     21 H21        187.0536  14.4646  50.5951 H              1 RES1               0.0000
     22 H22        183.8292  19.5362  50.0632 H              1 RES1               0.0000
     23 H23        182.2145  15.8731  50.7512 H              1 RES1               0.0000
     24 H24        185.9573  16.8844  54.4072 H              1 RES1               0.0000
     25 H25        185.2437  18.1236  53.3775 H              1 RES1               0.0000
     26 H26        184.4502  16.5600  53.5536 H              1 RES1               0.0000
     27 H27        187.1964  17.3484  46.6020 H              1 RES1               0.0000
     28 H28        188.4010  13.8106  48.6547 H              1 RES1               0.0000
     29 H29        188.4812  15.2451  46.6523 H              1 RES1               0.0000
@<TRIPOS>BOND
    1    1    2 1     
    2    1    3 1     
    3    1    4 1     
    4    1    5 1     
    5    2    6 ar    
    6    2    7 ar    
    7    3    8 1     
    8    3    9 2     
    9    4   10 1     
   10    4   11 2     
   11    5   12 1     
   12    5   18 1     
   13    5   19 1     
   14    6   13 ar    
   15    6   20 1     
   16    7   14 ar    
   17    7   21 1     
   18    8   15 1     
   19    8   22 1     
   20   10   15 1     
   21   10   23 1     
   22   12   24 1     
   23   12   25 1     
   24   12   26 1     
   25   13   16 ar    
   26   13   27 1     
   27   14   16 ar    
   28   14   28 1     
   29   15   17 2     
   30   16   29 1     
@<TRIPOS>SUBSTRUCTURE
      1 RES1           1
@<TRIPOS>SET
DONOR_HYDROGENS      STATIC     ATOMS    <user>   **** ""
2 22 23
ATOM$RED        STATIC     ATOMS    COLORGROUP SYSTEM
2 22 23
@<TRIPOS>COMMENT
> <Gold.Version>
2022.3.0

> <Gold.Id.Protein>
unknown|4d1n_clean|pdb

> <Gold.Protein.RotatedTorsions>
[ 16986 16944 16943 16941 ] final  -61.47 input   59.98 | X-H torsion
[ 18494 18452 18451 18449 ] final    8.78 input   59.98 | X-H torsion
[ 18557 18521 18522 18523 ] final  168.26 input   91.55 | X-H torsion
[ 18701 18674 18675 18676 ] final   63.31 input  121.65 | X-H torsion
[ 18757 18733 18734 18735 ] final  135.50 input   95.18 | X-H torsion
[ 18937 18904 18905 18906 ] final  -50.33 input   99.08 | X-H torsion
[ 19021 18997 18998 18999 ] final   85.87 input  121.68 | X-H torsion
[ 17190 17170 17171 17172 ] final    1.39 input   47.05 | X-H torsion
[ 17242 17212 17213 17214 ] final -115.38 input  118.29 | X-H torsion
[ 18817 18805 18806 18807 ] final  105.11 input  116.09 | X-H torsion
[ 19085 19049 19050 19051 ] final  -91.57 input   88.91 | X-H torsion
[ 18486 18441 18442 18443 ] final   28.25 input  100.68 | X-H torsion
[ 17298 17275 17276 17277 ] final   33.49 input   51.25 | X-H torsion
[ 18290 18267 18268 18269 ] final  127.43 input   31.65 | X-H torsion
[ 18324 18309 18310 18311 ] final -178.57 input   53.83 | X-H torsion
[ 18399 18347 18348 18349 ] final   88.10 input   27.99 | X-H torsion
[ 7521 7509 7510 7511 ] final   30.71 input   80.33 | X-H torsion
[ 7493 7448 7449 7450 ] final  123.67 input   99.31 | X-H torsion
[ 18598 18585 18586 18587 ] final  -51.54 input  129.83 | X-H torsion
[ 10115 10088 10087 10084 ] final   60.57 input   59.98 | X-H torsion
[ 18294 18272 18271 18268 ] final   60.57 input   59.99 | X-H torsion
[ 18643 18622 18620 18617 ] final   12.76 input   59.97 | X-H torsion
[ 18857 18836 18837 18838 ] final -149.30 input   87.55 | X-H torsion
[ 22429 22408 22409 22410 ] final   85.02 input   59.22 | X-H torsion
[ 10151 10126 10127 10128 ] final  -49.52 input   20.82 | X-H torsion
[ 18234 18192 18193 18194 ] final   79.94 input   40.98 | X-H torsion
[ 11814 11769 11770 11771 ] final -150.03 input   85.42 | X-H torsion
[ 16978 16933 16934 16935 ] final   27.89 input   88.91 | X-H torsion
[ 27198 18524 18523 18522 ] final  -94.93 input    0.00 | X-H torsion
[ 27200 18619 18618 18617 ] final -172.87 input    0.00 | X-H torsion
[ 27203 18677 18676 18675 ] final  118.44 input    0.00 | X-H torsion
[ 27223 17119 17118 17117 ] final -139.22 input    0.00 | X-H torsion
[ 27227 11596 11595 11594 ] final  143.61 input   -0.00 | X-H torsion
[ 27231 17044 17043 17042 ] final  -44.93 input    0.00 | X-H torsion
[ 27233 18736 18735 18734 ] final   97.11 input   -0.00 | X-H torsion
[ 27235 18588 18587 18586 ] final  117.59 input    0.00 | X-H torsion
[ 27238 18907 18906 18905 ] final   98.08 input    0.00 | X-H torsion
[ 27240 19000 18999 18998 ] final  -77.45 input    0.00 | X-H torsion
[ 27243 17173 17172 17171 ] final    7.21 input    0.00 | X-H torsion
[ 27245 18350 18349 18348 ] final   93.72 input    0.00 | X-H torsion
[ 27248 11406 11405 11404 ] final  -51.21 input   -0.00 | X-H torsion
[ 27250 18195 18194 18193 ] final  -10.27 input    0.00 | X-H torsion
[ 27254 17215 17214 17213 ] final  -33.10 input   -0.00 | X-H torsion
[ 27260 18312 18311 18310 ] final  -35.77 input   -0.00 | X-H torsion
[ 27262 18444 18443 18442 ] final  -48.45 input    0.00 | X-H torsion
[ 27265 18270 18269 18268 ] final  163.43 input    0.00 | X-H torsion
[ 27273 16936 16935 16934 ] final -118.59 input   -0.00 | X-H torsion

> <Gold.Protein.ActiveResidues>
 TRP414  CYS420  VAL421  GLY422  LEU460  SER462  ALA463  SER482  GLN483  ILE485 
 ARG486  TYR487  ASP500  ASN503  TRP566  TYR567  LEU569  PRO570  ALA571  VAL572 
 SER573  ASN574  PHE589  SER590  GLY591  TRP592  TYR593  MET594  GLY595  THR596 
 GLU597  ILE598  GLY599  VAL600  ARG601  ASP602  TYR603  ARG608  ILE653  VAL654 
 TRP683  PRO687  HEM750  H4B760 

> <Gold.Protein.RotatedAtoms>
  195.3032   12.0062   53.7856 H   0  0  0  0  0  0  0  0  0  0  0  0  # atno 7493 bound_to 7448
  195.5824    8.8918   53.5644 H   0  0  0  0  0  0  0  0  0  0  0  0  # atno 7521 bound_to 7509
  189.0214    1.2965   51.6001 H   0  0  0  0  0  0  0  0  0  0  0  0  # atno 10115 bound_to 10088
  188.3636    1.8692   47.1206 H   0  0  0  0  0  0  0  0  0  0  0  0  # atno 10151 bound_to 10126
  175.5731   16.2150   47.4439 H   0  0  0  0  0  0  0  0  0  0  0  0  # atno 11814 bound_to 11769
  177.0452   12.7037   53.8543 H   0  0  0  0  0  0  0  0  0  0  0  0  # atno 16978 bound_to 16933
  181.0033   14.9258   50.2523 H   0  0  0  0  0  0  0  0  0  0  0  0  # atno 16986 bound_to 16944
  183.4016   10.9407   47.3297 H   0  0  0  0  0  0  0  0  0  0  0  0  # atno 17190 bound_to 17170
  184.6847   10.8622   45.6733 H   0  0  0  0  0  0  0  0  0  0  0  0  # atno 17242 bound_to 17212
  185.5324   13.0442   42.1461 H   0  0  0  0  0  0  0  0  0  0  0  0  # atno 17298 bound_to 17275
  187.3836    8.1179   42.5628 H   0  0  0  0  0  0  0  0  0  0  0  0  # atno 18234 bound_to 18192
  186.2818    5.5474   45.2227 H   0  0  0  0  0  0  0  0  0  0  0  0  # atno 18290 bound_to 18267
  184.9491    3.8695   47.6593 H   0  0  0  0  0  0  0  0  0  0  0  0  # atno 18294 bound_to 18272
  187.6491    5.6980   48.8306 H   0  0  0  0  0  0  0  0  0  0  0  0  # atno 18324 bound_to 18309
  187.2491    5.4547   53.1297 H   0  0  0  0  0  0  0  0  0  0  0  0  # atno 18399 bound_to 18347
  185.1596    7.5664   55.8832 H   0  0  0  0  0  0  0  0  0  0  0  0  # atno 18486 bound_to 18441
  182.6543   14.2100   51.6443 H   0  0  0  0  0  0  0  0  0  0  0  0  # atno 18494 bound_to 18452
  187.7783   10.1603   56.4401 H   0  0  0  0  0  0  0  0  0  0  0  0  # atno 18557 bound_to 18521
  186.5314   12.3654   59.0188 H   0  0  0  0  0  0  0  0  0  0  0  0  # atno 18598 bound_to 18585
  188.5886   15.7565   59.0050 H   0  0  0  0  0  0  0  0  0  0  0  0  # atno 18643 bound_to 18622
  185.9011   15.4749   58.2867 H   0  0  0  0  0  0  0  0  0  0  0  0  # atno 18701 bound_to 18674
  184.0086   15.5051   57.0607 H   0  0  0  0  0  0  0  0  0  0  0  0  # atno 18757 bound_to 18733
  183.2708   16.8206   59.5739 H   0  0  0  0  0  0  0  0  0  0  0  0  # atno 18817 bound_to 18805
  183.9572   19.5061   61.0615 H   0  0  0  0  0  0  0  0  0  0  0  0  # atno 18857 bound_to 18836
  184.4917   21.4191   58.3780 H   0  0  0  0  0  0  0  0  0  0  0  0  # atno 18937 bound_to 18904
  183.2711   20.0364   56.1440 H   0  0  0  0  0  0  0  0  0  0  0  0  # atno 19021 bound_to 18997
  180.6921   21.5751   55.9041 H   0  0  0  0  0  0  0  0  0  0  0  0  # atno 19085 bound_to 19049
  186.5524    7.8499   59.4922 H   0  0  0  0  0  0  0  0  0  0  0  0  # atno 22429 bound_to 22408
  179.8842   15.7925   49.4499 LP  0  0  0  0  0  0  0  0  0  0  0  0  # atno 27193 bound_to 16944
  180.6515   14.5572   48.7071 LP  0  0  0  0  0  0  0  0  0  0  0  0  # atno 27194 bound_to 16944
  181.1608   14.1920   52.2910 LP  0  0  0  0  0  0  0  0  0  0  0  0  # atno 27195 bound_to 18452
  181.5853   13.0745   51.1786 LP  0  0  0  0  0  0  0  0  0  0  0  0  # atno 27196 bound_to 18452
  186.2446   10.9702   56.6686 LP  0  0  0  0  0  0  0  0  0  0  0  0  # atno 27197 bound_to 18521
  186.7723   14.1714   57.9710 LP  0  0  0  0  0  0  0  0  0  0  0  0  # atno 27198 bound_to 18524
  185.5331   13.1408   57.3369 LP  0  0  0  0  0  0  0  0  0  0  0  0  # atno 27199 bound_to 18524
  185.7856   18.5893   57.7130 LP  0  0  0  0  0  0  0  0  0  0  0  0  # atno 27200 bound_to 18619
  186.2151   18.9670   59.3479 LP  0  0  0  0  0  0  0  0  0  0  0  0  # atno 27201 bound_to 18619
  187.1916   16.6504   58.3084 LP  0  0  0  0  0  0  0  0  0  0  0  0  # atno 27202 bound_to 18674
  183.7993   18.1624   55.0575 LP  0  0  0  0  0  0  0  0  0  0  0  0  # atno 27203 bound_to 18677
  184.9242   19.0433   56.0367 LP  0  0  0  0  0  0  0  0  0  0  0  0  # atno 27204 bound_to 18677
  184.5239   17.1745   57.1748 LP  0  0  0  0  0  0  0  0  0  0  0  0  # atno 27209 bound_to 18733
  185.7223   20.3007   57.8458 LP  0  0  0  0  0  0  0  0  0  0  0  0  # atno 27210 bound_to 18904
  183.7814   21.4160   55.2024 LP  0  0  0  0  0  0  0  0  0  0  0  0  # atno 27211 bound_to 18997
  185.4692    8.7040   48.0872 LP  0  0  0  0  0  0  0  0  0  0  0  0  # atno 27223 bound_to 17119
  184.5456    7.9811   49.3617 LP  0  0  0  0  0  0  0  0  0  0  0  0  # atno 27224 bound_to 17119
  183.0558    9.4029   48.0845 LP  0  0  0  0  0  0  0  0  0  0  0  0  # atno 27225 bound_to 17170
  185.9927    9.7759   45.2578 LP  0  0  0  0  0  0  0  0  0  0  0  0  # atno 27226 bound_to 17212
  179.4409   14.1069   46.7884 LP  0  0  0  0  0  0  0  0  0  0  0  0  # atno 27227 bound_to 11596
  179.2783   12.5220   47.4681 LP  0  0  0  0  0  0  0  0  0  0  0  0  # atno 27228 bound_to 11596
  180.0520    8.9853   48.4762 LP  0  0  0  0  0  0  0  0  0  0  0  0  # atno 27231 bound_to 17044
  180.5960   10.4449   49.2335 LP  0  0  0  0  0  0  0  0  0  0  0  0  # atno 27232 bound_to 17044
  180.7604   19.2128   58.2334 LP  0  0  0  0  0  0  0  0  0  0  0  0  # atno 27233 bound_to 18736
  182.2989   19.7725   57.6681 LP  0  0  0  0  0  0  0  0  0  0  0  0  # atno 27234 bound_to 18736
  184.0424   16.0994   60.6633 LP  0  0  0  0  0  0  0  0  0  0  0  0  # atno 27235 bound_to 18588
  183.7416   15.1919   59.2190 LP  0  0  0  0  0  0  0  0  0  0  0  0  # atno 27236 bound_to 18588
  182.1680   17.8108   58.6415 LP  0  0  0  0  0  0  0  0  0  0  0  0  # atno 27237 bound_to 18805
  183.3383   23.3599   54.5715 LP  0  0  0  0  0  0  0  0  0  0  0  0  # atno 27238 bound_to 18907
  182.8809   23.5200   56.2344 LP  0  0  0  0  0  0  0  0  0  0  0  0  # atno 27239 bound_to 18907
  180.1111   23.1341   54.5882 LP  0  0  0  0  0  0  0  0  0  0  0  0  # atno 27240 bound_to 19000
  178.9316   21.9045   54.8994 LP  0  0  0  0  0  0  0  0  0  0  0  0  # atno 27241 bound_to 19000
  181.4779   20.9284   57.3256 LP  0  0  0  0  0  0  0  0  0  0  0  0  # atno 27242 bound_to 19049
  182.5424   10.3761   44.1885 LP  0  0  0  0  0  0  0  0  0  0  0  0  # atno 27243 bound_to 17173
  183.8509   11.2188   43.4283 LP  0  0  0  0  0  0  0  0  0  0  0  0  # atno 27244 bound_to 17173
  187.3783    8.7305   53.5239 LP  0  0  0  0  0  0  0  0  0  0  0  0  # atno 27245 bound_to 18350
  187.9445    7.7781   54.8553 LP  0  0  0  0  0  0  0  0  0  0  0  0  # atno 27246 bound_to 18350
  184.9339    8.1851   54.2644 LP  0  0  0  0  0  0  0  0  0  0  0  0  # atno 27247 bound_to 18441
  185.2328   14.2938   41.8191 LP  0  0  0  0  0  0  0  0  0  0  0  0  # atno 27248 bound_to 11406
  184.9568   14.4275   43.5238 LP  0  0  0  0  0  0  0  0  0  0  0  0  # atno 27249 bound_to 11406
  186.9188    8.6054   44.5898 LP  0  0  0  0  0  0  0  0  0  0  0  0  # atno 27250 bound_to 18195
  186.1544    8.1517   46.0763 LP  0  0  0  0  0  0  0  0  0  0  0  0  # atno 27251 bound_to 18195
  187.3961    9.8372   43.0364 LP  0  0  0  0  0  0  0  0  0  0  0  0  # atno 27254 bound_to 17215
  186.1897    9.6117   41.8142 LP  0  0  0  0  0  0  0  0  0  0  0  0  # atno 27255 bound_to 17215
  185.6757   11.4029   42.7128 LP  0  0  0  0  0  0  0  0  0  0  0  0  # atno 27256 bound_to 17275
  187.8997    5.7733   45.8407 LP  0  0  0  0  0  0  0  0  0  0  0  0  # atno 27257 bound_to 18267
  186.1800    6.3543   49.5220 LP  0  0  0  0  0  0  0  0  0  0  0  0  # atno 27258 bound_to 18309
  186.3208    6.3078   51.9117 LP  0  0  0  0  0  0  0  0  0  0  0  0  # atno 27259 bound_to 18347
  184.6470    4.8086   50.6526 LP  0  0  0  0  0  0  0  0  0  0  0  0  # atno 27260 bound_to 18312
  184.4332    4.5578   52.3530 LP  0  0  0  0  0  0  0  0  0  0  0  0  # atno 27261 bound_to 18312
  185.3423    8.6143   58.1884 LP  0  0  0  0  0  0  0  0  0  0  0  0  # atno 27262 bound_to 18444
  187.0620    8.4122   58.1472 LP  0  0  0  0  0  0  0  0  0  0  0  0  # atno 27263 bound_to 18444
  194.9752    9.3697   55.1276 LP  0  0  0  0  0  0  0  0  0  0  0  0  # atno 27264 bound_to 7509
  187.9635    3.5977   48.8287 LP  0  0  0  0  0  0  0  0  0  0  0  0  # atno 27265 bound_to 18270
  187.0454    3.5776   47.3602 LP  0  0  0  0  0  0  0  0  0  0  0  0  # atno 27266 bound_to 18270
  196.2250   10.7204   53.0352 LP  0  0  0  0  0  0  0  0  0  0  0  0  # atno 27267 bound_to 7448
  186.6779   11.6295   60.5967 LP  0  0  0  0  0  0  0  0  0  0  0  0  # atno 27268 bound_to 18585
  188.9578    2.7950   50.9684 LP  0  0  0  0  0  0  0  0  0  0  0  0  # atno 27269 bound_to 10088
  190.3952    2.0402   51.1442 LP  0  0  0  0  0  0  0  0  0  0  0  0  # atno 27270 bound_to 10088
  184.9005    4.2580   46.0800 LP  0  0  0  0  0  0  0  0  0  0  0  0  # atno 27271 bound_to 18272
  183.5467    4.3499   46.9885 LP  0  0  0  0  0  0  0  0  0  0  0  0  # atno 27272 bound_to 18272
  179.3362   10.6200   53.5246 LP  0  0  0  0  0  0  0  0  0  0  0  0  # atno 27273 bound_to 16936
  178.3209   11.3332   54.7332 LP  0  0  0  0  0  0  0  0  0  0  0  0  # atno 27274 bound_to 16936

> <Gold.Score>
     Fitness  S(hb_ext) S(vdw_ext)  S(hb_int)    S(int)      intcor
     37.06       5.56      23.95       0.00      -1.43      -0.79

> <Gold.Goldscore.Fitness>
37.0642

> <Gold.Goldscore.Internal.Vdw>
-1.8180

> <Gold.Goldscore.Internal.Torsion>
-0.4075

> <Gold.Goldscore.External.Vdw>
23.9516

> <Gold.Goldscore.Internal.HBond>
0.0000

> <Gold.Goldscore.External.HBond>
5.5650

> <Gold.Goldscore.Internal.Correction>
-0.7912

> <Gold.Goldscore.Hbonds>
donor molecule, donor type, donor heavy atom, donor atom, acceptor molecule, acceptor atom, score
      P1  H 11682 11730       L1    17  0.19
      P1  H 18452 18494       L1    11  0.48
      P1  H 19334 19368       L1    17  0.57
      L1  H    10    23       P1 18452  0.03

> <Gold.Goldscore.Internal.Vdw.Weighted>
-1.8180

> <Gold.Goldscore.Internal.Torsion.Weighted>
-0.4075

> <Gold.Goldscore.External.Vdw.Weighted>
32.9335

> <Gold.Goldscore.Internal.HBond.Weighted>
0.0000

> <Gold.Goldscore.External.HBond.Weighted>
5.5650

> <Gold.Goldscore.Internal.Correction.Weighted>
-0.7912

> <Gold.Rescore>
     Score     S(PLP)   S(hbond)     S(cho)   S(metal)  DE(clash)   DE(tors)     intcor
     21.70     -17.24       2.49       0.00       0.00       1.98       0.53       ----

> <Gold.PLP.Fitness>
21.7004

> <Gold.PLP.PLP>
-17.2436

> <Gold.PLP.part.hbond>
-4.7123

> <Gold.PLP.part.metal>
0.0000

> <Gold.PLP.part.buried>
4.2036

> <Gold.PLP.part.nonpolar>
-21.4538

> <Gold.PLP.part.repulsive>
2.2490

> <Gold.PLP.ligand.clash>
1.9782

> <Gold.PLP.ligand.torsion>
0.5250

> <Gold.PLP.Chemscore.Hbond>
2.4950

> <Gold.PLP.Chemscore.CHOScore>
0.0000

> <Gold.PLP.Chemscore.Metal>
0.0000

> <Gold.Chemscore.Hbonds>
donor molecule, donor type, donor heavy atom, donor atom, acceptor molecule, acceptor atom, score
      P1  H 11682 11730       L1    17  1.00
      P1  H 18452 18494       L1    11  1.00
      P1  H 19334 19368       L1    17  0.76

> <Gold.PLP.Chemscore.Internal.Correction>
   9.000000E+99

