#       Name:                CT1002167954
#       Creating user name   hitesit
#       Creation time:       Sun Apr 16 20:21:58 2023


#       File generated by GOLD software.
#

@<TRIPOS>MOLECULE
CT1002167954|ligand_prepared|mol2|1|dock10
    29    30     1
SMALL
NO_CHARGES


@<TRIPOS>ATOM
      1 C1         186.0773  18.2956  49.6147 C.3            1 RES1               0.0000
      2 C2         186.3495  16.7778  49.6461 C.ar           1 RES1               0.0000
      3 C3         185.0957  18.5784  50.7481 C.2            1 RES1               0.0000
      4 C4         187.4319  18.9755  49.7807 C.2            1 RES1               0.0000
      5 C5         185.4533  18.7911  48.2893 C.3            1 RES1               0.0000
      6 C6         185.8098  15.9818  50.6521 C.ar           1 RES1               0.0000
      7 C7         187.1347  16.1600  48.6764 C.ar           1 RES1               0.0000
      8 N8         185.5790  19.1980  51.8628 N.am           1 RES1               0.0000
      9 O9         183.9240  18.2276  50.6812 O.2            1 RES1               0.0000
     10 N10        187.6482  19.7065  50.9194 N.am           1 RES1               0.0000
     11 O11        188.3198  18.8710  48.9434 O.2            1 RES1               0.0000
     12 C12        185.3167  20.3031  48.2035 C.3            1 RES1               0.0000
     13 C13        186.0441  14.6171  50.6857 C.ar           1 RES1               0.0000
     14 C14        187.3679  14.7951  48.7121 C.ar           1 RES1               0.0000
     15 C15        186.7942  19.8232  51.9821 C.2            1 RES1               0.0000
     16 C16        186.8228  14.0228  49.7156 C.ar           1 RES1               0.0000
     17 O17        187.0820  20.4540  52.9952 O.2            1 RES1               0.0000
     18 H18        186.0755  18.4449  47.4549 H              1 RES1               0.0000
     19 H19        184.4598  18.3400  48.1764 H              1 RES1               0.0000
     20 H20        185.1965  16.4321  51.4254 H              1 RES1               0.0000
     21 H21        187.5747  16.7479  47.8781 H              1 RES1               0.0000
     22 H22        184.9818  19.1962  52.6835 H              1 RES1               0.0000
     23 H23        188.5272  20.2104  50.9805 H              1 RES1               0.0000
     24 H24        184.8737  20.5972  47.2543 H              1 RES1               0.0000
     25 H25        184.6832  20.6793  49.0041 H              1 RES1               0.0000
     26 H26        186.2894  20.7836  48.2869 H              1 RES1               0.0000
     27 H27        185.6139  14.0140  51.4784 H              1 RES1               0.0000
     28 H28        187.9819  14.3318  47.9469 H              1 RES1               0.0000
     29 H29        187.0059  12.9537  49.7420 H              1 RES1               0.0000
@<TRIPOS>BOND
    1    1    2 1     
    2    1    3 1     
    3    1    4 1     
    4    1    5 1     
    5    2    6 ar    
    6    2    7 ar    
    7    3    8 1     
    8    3    9 2     
    9    4   10 1     
   10    4   11 2     
   11    5   12 1     
   12    5   18 1     
   13    5   19 1     
   14    6   13 ar    
   15    6   20 1     
   16    7   14 ar    
   17    7   21 1     
   18    8   15 1     
   19    8   22 1     
   20   10   15 1     
   21   10   23 1     
   22   12   24 1     
   23   12   25 1     
   24   12   26 1     
   25   13   16 ar    
   26   13   27 1     
   27   14   16 ar    
   28   14   28 1     
   29   15   17 2     
   30   16   29 1     
@<TRIPOS>SUBSTRUCTURE
      1 RES1           1
@<TRIPOS>SET
DONOR_HYDROGENS      STATIC     ATOMS    <user>   **** ""
2 22 23
ATOM$RED        STATIC     ATOMS    COLORGROUP SYSTEM
2 22 23
@<TRIPOS>COMMENT
> <Gold.Version>
2022.3.0

> <Gold.Id.Protein>
unknown|4d1n_clean|pdb

> <Gold.Protein.RotatedTorsions>
[ 16986 16944 16943 16941 ] final -131.46 input   59.98 | X-H torsion
[ 18494 18452 18451 18449 ] final  131.15 input   59.98 | X-H torsion
[ 18557 18521 18522 18523 ] final   -1.98 input   91.55 | X-H torsion
[ 18701 18674 18675 18676 ] final   75.49 input  121.65 | X-H torsion
[ 18757 18733 18734 18735 ] final   58.79 input   95.18 | X-H torsion
[ 18937 18904 18905 18906 ] final  -12.20 input   99.08 | X-H torsion
[ 19021 18997 18998 18999 ] final    1.37 input  121.68 | X-H torsion
[ 17190 17170 17171 17172 ] final   89.23 input   47.05 | X-H torsion
[ 17242 17212 17213 17214 ] final -117.54 input  118.29 | X-H torsion
[ 18817 18805 18806 18807 ] final  124.29 input  116.09 | X-H torsion
[ 19085 19049 19050 19051 ] final  150.40 input   88.91 | X-H torsion
[ 18486 18441 18442 18443 ] final   57.43 input  100.68 | X-H torsion
[ 17298 17275 17276 17277 ] final   81.11 input   51.25 | X-H torsion
[ 18290 18267 18268 18269 ] final   -7.34 input   31.65 | X-H torsion
[ 18324 18309 18310 18311 ] final  -87.99 input   53.83 | X-H torsion
[ 18399 18347 18348 18349 ] final -112.46 input   27.99 | X-H torsion
[ 7521 7509 7510 7511 ] final    8.82 input   80.33 | X-H torsion
[ 7493 7448 7449 7450 ] final  108.42 input   99.31 | X-H torsion
[ 18598 18585 18586 18587 ] final   34.40 input  129.83 | X-H torsion
[ 10115 10088 10087 10084 ] final  -89.04 input   59.98 | X-H torsion
[ 18294 18272 18271 18268 ] final   83.92 input   59.99 | X-H torsion
[ 18643 18622 18620 18617 ] final -160.90 input   59.97 | X-H torsion
[ 18857 18836 18837 18838 ] final -109.35 input   87.55 | X-H torsion
[ 22429 22408 22409 22410 ] final -171.47 input   59.22 | X-H torsion
[ 10151 10126 10127 10128 ] final  103.63 input   20.82 | X-H torsion
[ 18234 18192 18193 18194 ] final    1.18 input   40.98 | X-H torsion
[ 11814 11769 11770 11771 ] final  -60.49 input   85.42 | X-H torsion
[ 16978 16933 16934 16935 ] final   94.19 input   88.91 | X-H torsion
[ 27198 18524 18523 18522 ] final   28.29 input    0.00 | X-H torsion
[ 27200 18619 18618 18617 ] final -171.14 input    0.00 | X-H torsion
[ 27203 18677 18676 18675 ] final   99.61 input    0.00 | X-H torsion
[ 27223 17119 17118 17117 ] final  127.86 input    0.00 | X-H torsion
[ 27227 11596 11595 11594 ] final  127.06 input   -0.00 | X-H torsion
[ 27231 17044 17043 17042 ] final   75.84 input    0.00 | X-H torsion
[ 27233 18736 18735 18734 ] final  135.19 input   -0.00 | X-H torsion
[ 27235 18588 18587 18586 ] final -122.53 input    0.00 | X-H torsion
[ 27238 18907 18906 18905 ] final  105.40 input    0.00 | X-H torsion
[ 27240 19000 18999 18998 ] final  164.06 input    0.00 | X-H torsion
[ 27243 17173 17172 17171 ] final   -4.81 input    0.00 | X-H torsion
[ 27245 18350 18349 18348 ] final -173.17 input    0.00 | X-H torsion
[ 27248 11406 11405 11404 ] final -177.95 input   -0.00 | X-H torsion
[ 27250 18195 18194 18193 ] final  126.04 input    0.00 | X-H torsion
[ 27254 17215 17214 17213 ] final  154.26 input   -0.00 | X-H torsion
[ 27260 18312 18311 18310 ] final  179.79 input   -0.00 | X-H torsion
[ 27262 18444 18443 18442 ] final  161.20 input    0.00 | X-H torsion
[ 27265 18270 18269 18268 ] final  113.35 input    0.00 | X-H torsion
[ 27273 16936 16935 16934 ] final  -84.81 input   -0.00 | X-H torsion

> <Gold.Protein.ActiveResidues>
 TRP414  CYS420  VAL421  GLY422  LEU460  SER462  ALA463  SER482  GLN483  ILE485 
 ARG486  TYR487  ASP500  ASN503  TRP566  TYR567  LEU569  PRO570  ALA571  VAL572 
 SER573  ASN574  PHE589  SER590  GLY591  TRP592  TYR593  MET594  GLY595  THR596 
 GLU597  ILE598  GLY599  VAL600  ARG601  ASP602  TYR603  ARG608  ILE653  VAL654 
 TRP683  PRO687  HEM750  H4B760 

> <Gold.Protein.RotatedAtoms>
  195.1290   11.8468   53.7715 H   0  0  0  0  0  0  0  0  0  0  0  0  # atno 7493 bound_to 7448
  195.8415    8.8154   53.7590 H   0  0  0  0  0  0  0  0  0  0  0  0  # atno 7521 bound_to 7509
  189.4157    2.9031   50.8724 H   0  0  0  0  0  0  0  0  0  0  0  0  # atno 10115 bound_to 10088
  186.6952    1.6746   47.4573 H   0  0  0  0  0  0  0  0  0  0  0  0  # atno 10151 bound_to 10126
  175.8900   16.8326   46.4023 H   0  0  0  0  0  0  0  0  0  0  0  0  # atno 11814 bound_to 11769
  176.6484   13.0824   53.0534 H   0  0  0  0  0  0  0  0  0  0  0  0  # atno 16978 bound_to 16933
  180.2674   15.6993   50.1392 H   0  0  0  0  0  0  0  0  0  0  0  0  # atno 16986 bound_to 16944
  182.4081   10.2222   47.3816 H   0  0  0  0  0  0  0  0  0  0  0  0  # atno 17190 bound_to 17170
  184.7031   10.8735   45.6989 H   0  0  0  0  0  0  0  0  0  0  0  0  # atno 17242 bound_to 17212
  184.9245   12.7670   42.3723 H   0  0  0  0  0  0  0  0  0  0  0  0  # atno 17298 bound_to 17275
  186.3661    7.9233   42.9610 H   0  0  0  0  0  0  0  0  0  0  0  0  # atno 18234 bound_to 18192
  187.7041    5.1334   45.8999 H   0  0  0  0  0  0  0  0  0  0  0  0  # atno 18290 bound_to 18267
  184.6021    3.9142   47.8045 H   0  0  0  0  0  0  0  0  0  0  0  0  # atno 18294 bound_to 18272
  186.4365    5.3348   48.8791 H   0  0  0  0  0  0  0  0  0  0  0  0  # atno 18324 bound_to 18309
  186.1411    6.0471   51.8955 H   0  0  0  0  0  0  0  0  0  0  0  0  # atno 18399 bound_to 18347
  184.7246    7.6604   55.8586 H   0  0  0  0  0  0  0  0  0  0  0  0  # atno 18486 bound_to 18441
  181.5522   13.0783   51.1996 H   0  0  0  0  0  0  0  0  0  0  0  0  # atno 18494 bound_to 18452
  186.2914   11.1020   56.6100 H   0  0  0  0  0  0  0  0  0  0  0  0  # atno 18557 bound_to 18521
  187.2032   12.6218   59.9852 H   0  0  0  0  0  0  0  0  0  0  0  0  # atno 18598 bound_to 18585
  190.0334   16.2582   60.0797 H   0  0  0  0  0  0  0  0  0  0  0  0  # atno 18643 bound_to 18622
  186.0339   15.3597   58.2234 H   0  0  0  0  0  0  0  0  0  0  0  0  # atno 18701 bound_to 18674
  184.2184   16.0972   57.9695 H   0  0  0  0  0  0  0  0  0  0  0  0  # atno 18757 bound_to 18733
  183.0179   16.6731   59.6234 H   0  0  0  0  0  0  0  0  0  0  0  0  # atno 18817 bound_to 18805
  183.4903   19.7570   60.7696 H   0  0  0  0  0  0  0  0  0  0  0  0  # atno 18857 bound_to 18836
  184.2384   20.9551   58.1508 H   0  0  0  0  0  0  0  0  0  0  0  0  # atno 18937 bound_to 18904
  183.2137   21.2043   56.3446 H   0  0  0  0  0  0  0  0  0  0  0  0  # atno 19021 bound_to 18997
  180.8116   20.4667   56.9340 H   0  0  0  0  0  0  0  0  0  0  0  0  # atno 19085 bound_to 19049
  186.1679    6.6822   60.0964 H   0  0  0  0  0  0  0  0  0  0  0  0  # atno 22429 bound_to 22408
  180.1052   15.1315   48.6232 LP  0  0  0  0  0  0  0  0  0  0  0  0  # atno 27193 bound_to 16944
  181.1717   14.4392   49.6478 LP  0  0  0  0  0  0  0  0  0  0  0  0  # atno 27194 bound_to 16944
  182.6686   14.1870   51.6157 LP  0  0  0  0  0  0  0  0  0  0  0  0  # atno 27195 bound_to 18452
  181.1870   14.2189   52.3016 LP  0  0  0  0  0  0  0  0  0  0  0  0  # atno 27196 bound_to 18452
  187.6891   10.0555   56.5035 LP  0  0  0  0  0  0  0  0  0  0  0  0  # atno 27197 bound_to 18521
  186.2721   13.1336   56.9737 LP  0  0  0  0  0  0  0  0  0  0  0  0  # atno 27198 bound_to 18524
  186.0332   14.1786   58.3342 LP  0  0  0  0  0  0  0  0  0  0  0  0  # atno 27199 bound_to 18524
  185.7611   18.5846   57.7210 LP  0  0  0  0  0  0  0  0  0  0  0  0  # atno 27200 bound_to 18619
  186.2395   18.9717   59.3400 LP  0  0  0  0  0  0  0  0  0  0  0  0  # atno 27201 bound_to 18619
  187.0611   16.7636   58.3707 LP  0  0  0  0  0  0  0  0  0  0  0  0  # atno 27202 bound_to 18674
  184.0344   18.1237   54.9043 LP  0  0  0  0  0  0  0  0  0  0  0  0  # atno 27203 bound_to 18677
  184.6890   19.0820   56.1900 LP  0  0  0  0  0  0  0  0  0  0  0  0  # atno 27204 bound_to 18677
  184.3210   16.6021   56.2963 LP  0  0  0  0  0  0  0  0  0  0  0  0  # atno 27209 bound_to 18733
  185.9711   20.7564   58.0689 LP  0  0  0  0  0  0  0  0  0  0  0  0  # atno 27210 bound_to 18904
  183.8376   20.2720   55.0060 LP  0  0  0  0  0  0  0  0  0  0  0  0  # atno 27211 bound_to 18997
  184.5952    7.8075   48.1824 LP  0  0  0  0  0  0  0  0  0  0  0  0  # atno 27223 bound_to 17119
  185.4196    8.8776   49.2665 LP  0  0  0  0  0  0  0  0  0  0  0  0  # atno 27224 bound_to 17119
  184.0252   10.1039   48.0339 LP  0  0  0  0  0  0  0  0  0  0  0  0  # atno 27225 bound_to 17170
  185.9749    9.7650   45.2330 LP  0  0  0  0  0  0  0  0  0  0  0  0  # atno 27226 bound_to 17212
  179.5573   13.9787   46.6090 LP  0  0  0  0  0  0  0  0  0  0  0  0  # atno 27227 bound_to 11596
  179.1618   12.6502   47.6475 LP  0  0  0  0  0  0  0  0  0  0  0  0  # atno 27228 bound_to 11596
  179.8501   10.0980   49.4704 LP  0  0  0  0  0  0  0  0  0  0  0  0  # atno 27231 bound_to 17044
  180.7978    9.3321   48.2394 LP  0  0  0  0  0  0  0  0  0  0  0  0  # atno 27232 bound_to 17044
  181.0460   19.4361   58.6669 LP  0  0  0  0  0  0  0  0  0  0  0  0  # atno 27233 bound_to 18736
  182.0134   19.5493   57.2346 LP  0  0  0  0  0  0  0  0  0  0  0  0  # atno 27234 bound_to 18736
  184.2354   15.9045   59.1894 LP  0  0  0  0  0  0  0  0  0  0  0  0  # atno 27235 bound_to 18588
  183.5486   15.3868   60.6928 LP  0  0  0  0  0  0  0  0  0  0  0  0  # atno 27236 bound_to 18588
  182.4120   17.9532   58.5937 LP  0  0  0  0  0  0  0  0  0  0  0  0  # atno 27237 bound_to 18805
  183.2379   23.3164   54.5554 LP  0  0  0  0  0  0  0  0  0  0  0  0  # atno 27238 bound_to 18907
  182.9814   23.5635   56.2505 LP  0  0  0  0  0  0  0  0  0  0  0  0  # atno 27239 bound_to 18907
  179.0520   22.5715   55.4697 LP  0  0  0  0  0  0  0  0  0  0  0  0  # atno 27240 bound_to 19000
  179.9907   22.4672   54.0179 LP  0  0  0  0  0  0  0  0  0  0  0  0  # atno 27241 bound_to 19000
  181.3615   22.0090   56.3215 LP  0  0  0  0  0  0  0  0  0  0  0  0  # atno 27242 bound_to 19049
  182.5947   10.2384   44.0825 LP  0  0  0  0  0  0  0  0  0  0  0  0  # atno 27243 bound_to 17173
  183.7986   11.3564   43.5344 LP  0  0  0  0  0  0  0  0  0  0  0  0  # atno 27244 bound_to 17173
  187.5453    8.8961   54.7593 LP  0  0  0  0  0  0  0  0  0  0  0  0  # atno 27245 bound_to 18350
  187.7775    7.6125   53.6199 LP  0  0  0  0  0  0  0  0  0  0  0  0  # atno 27246 bound_to 18350
  185.3582    8.0934   54.2885 LP  0  0  0  0  0  0  0  0  0  0  0  0  # atno 27247 bound_to 18441
  184.7332   13.7652   43.1860 LP  0  0  0  0  0  0  0  0  0  0  0  0  # atno 27248 bound_to 11406
  185.4564   14.9561   42.1569 LP  0  0  0  0  0  0  0  0  0  0  0  0  # atno 27249 bound_to 11406
  185.7481    8.1167   45.5774 LP  0  0  0  0  0  0  0  0  0  0  0  0  # atno 27250 bound_to 18195
  187.3251    8.6404   45.0887 LP  0  0  0  0  0  0  0  0  0  0  0  0  # atno 27251 bound_to 18195
  186.2594    9.6648   41.7458 LP  0  0  0  0  0  0  0  0  0  0  0  0  # atno 27254 bound_to 17215
  187.3264    9.7841   43.1049 LP  0  0  0  0  0  0  0  0  0  0  0  0  # atno 27255 bound_to 17215
  186.2800   11.6784   42.4880 LP  0  0  0  0  0  0  0  0  0  0  0  0  # atno 27256 bound_to 17275
  186.5062    6.1789   45.1772 LP  0  0  0  0  0  0  0  0  0  0  0  0  # atno 27257 bound_to 18267
  187.3501    6.7048   49.4752 LP  0  0  0  0  0  0  0  0  0  0  0  0  # atno 27258 bound_to 18309
  187.3826    5.7401   53.0944 LP  0  0  0  0  0  0  0  0  0  0  0  0  # atno 27259 bound_to 18347
  184.2631    5.0454   52.2390 LP  0  0  0  0  0  0  0  0  0  0  0  0  # atno 27260 bound_to 18312
  184.8172    4.3210   50.7666 LP  0  0  0  0  0  0  0  0  0  0  0  0  # atno 27261 bound_to 18312
  186.9920    8.7257   58.4525 LP  0  0  0  0  0  0  0  0  0  0  0  0  # atno 27262 bound_to 18444
  185.4123    8.3007   57.8831 LP  0  0  0  0  0  0  0  0  0  0  0  0  # atno 27263 bound_to 18444
  194.7188    9.4453   54.9351 LP  0  0  0  0  0  0  0  0  0  0  0  0  # atno 27264 bound_to 7509
  188.3241    3.8300   48.2342 LP  0  0  0  0  0  0  0  0  0  0  0  0  # atno 27265 bound_to 18270
  186.6849    3.3453   47.9547 LP  0  0  0  0  0  0  0  0  0  0  0  0  # atno 27266 bound_to 18270
  196.3931   10.8742   53.0488 LP  0  0  0  0  0  0  0  0  0  0  0  0  # atno 27267 bound_to 7448
  186.0213   11.3789   59.6522 LP  0  0  0  0  0  0  0  0  0  0  0  0  # atno 27268 bound_to 18585
  190.2901    1.6120   51.3381 LP  0  0  0  0  0  0  0  0  0  0  0  0  # atno 27269 bound_to 10088
  188.6659    1.6057   51.5071 LP  0  0  0  0  0  0  0  0  0  0  0  0  # atno 27270 bound_to 10088
  185.1865    4.1388   46.3026 LP  0  0  0  0  0  0  0  0  0  0  0  0  # atno 27271 bound_to 18272
  183.6102    4.4241   46.6197 LP  0  0  0  0  0  0  0  0  0  0  0  0  # atno 27272 bound_to 18272
  179.1807   11.0625   53.3423 LP  0  0  0  0  0  0  0  0  0  0  0  0  # atno 27273 bound_to 16936
  178.4764   10.8907   54.9154 LP  0  0  0  0  0  0  0  0  0  0  0  0  # atno 27274 bound_to 16936

> <Gold.Score>
     Fitness  S(hb_ext) S(vdw_ext)  S(hb_int)    S(int)      intcor
     28.93       3.84      20.65       0.00      -3.30      -0.76

> <Gold.Goldscore.Fitness>
28.9257

> <Gold.Goldscore.Internal.Vdw>
-3.6348

> <Gold.Goldscore.Internal.Torsion>
-0.4205

> <Gold.Goldscore.External.Vdw>
20.6453

> <Gold.Goldscore.Internal.HBond>
0.0000

> <Gold.Goldscore.External.HBond>
3.8351

> <Gold.Goldscore.Internal.Correction>
-0.7585

> <Gold.Goldscore.Hbonds>
donor molecule, donor type, donor heavy atom, donor atom, acceptor molecule, acceptor atom, score
      P1  H 19333 19366       L1     9  0.03
      L1  H     8    22       P1 19003  0.13
      L1  H    10    23       P1 27088  0.48

> <Gold.Goldscore.Internal.Vdw.Weighted>
-3.6348

> <Gold.Goldscore.Internal.Torsion.Weighted>
-0.4205

> <Gold.Goldscore.External.Vdw.Weighted>
28.3873

> <Gold.Goldscore.Internal.HBond.Weighted>
0.0000

> <Gold.Goldscore.External.HBond.Weighted>
3.8351

> <Gold.Goldscore.Internal.Correction.Weighted>
-0.7585

> <Gold.Rescore>
     Score     S(PLP)   S(hbond)     S(cho)   S(metal)  DE(clash)   DE(tors)     intcor
     15.44     -15.46       0.77       0.00       0.00       1.81       0.27       ----

> <Gold.PLP.Fitness>
15.4354

> <Gold.PLP.PLP>
-15.4617

> <Gold.PLP.part.hbond>
-3.0000

> <Gold.PLP.part.metal>
0.0000

> <Gold.PLP.part.buried>
4.1484

> <Gold.PLP.part.nonpolar>
-17.9989

> <Gold.PLP.part.repulsive>
3.6839

> <Gold.PLP.ligand.clash>
1.8128

> <Gold.PLP.ligand.torsion>
0.2651

> <Gold.PLP.Chemscore.Hbond>
0.7722

> <Gold.PLP.Chemscore.CHOScore>
0.0000

> <Gold.PLP.Chemscore.Metal>
0.0000

> <Gold.Chemscore.Hbonds>
donor molecule, donor type, donor heavy atom, donor atom, acceptor molecule, acceptor atom, score
      L1  H     8    22       P1 19003  0.77
      P1  H 19333 19366       L1     9  0.09

> <Gold.PLP.Chemscore.Internal.Correction>
   9.000000E+99

