#       Name:                CT1002167954
#       Creating user name   hitesit
#       Creation time:       Sun Apr 16 20:29:16 2023


#       File generated by GOLD software.
#

@<TRIPOS>MOLECULE
CT1002167954|ligand_prepared|mol2|1|dock8
    29    30     1
SMALL
NO_CHARGES


@<TRIPOS>ATOM
      1 C1         224.3343  46.1310  32.2423 C.3            1 RES1               0.0000
      2 C2         223.5978  44.7768  32.1952 C.ar           1 RES1               0.0000
      3 C3         224.9064  46.3563  30.8458 C.2            1 RES1               0.0000
      4 C4         223.2974  47.1661  32.6642 C.2            1 RES1               0.0000
      5 C5         225.4960  46.1754  33.2620 C.3            1 RES1               0.0000
      6 C6         222.7743  44.4549  31.1205 C.ar           1 RES1               0.0000
      7 C7         223.7338  43.8396  33.2160 C.ar           1 RES1               0.0000
      8 N8         224.2973  47.2863  30.0559 N.am           1 RES1               0.0000
      9 O9         225.8530  45.6999  30.4295 O.2            1 RES1               0.0000
     10 N10        222.9519  48.1349  31.7587 N.am           1 RES1               0.0000
     11 O11        222.7643  47.1418  33.7667 O.2            1 RES1               0.0000
     12 C12        226.3645  47.4184  33.1485 C.3            1 RES1               0.0000
     13 C13        222.1130  43.2391  31.0667 C.ar           1 RES1               0.0000
     14 C14        223.0714  42.6245  33.1602 C.ar           1 RES1               0.0000
     15 C15        223.3821  48.2236  30.4628 C.2            1 RES1               0.0000
     16 C16        222.2614  42.3230  32.0861 C.ar           1 RES1               0.0000
     17 O17        222.9841  49.0925  29.6922 O.2            1 RES1               0.0000
     18 H18        225.0784  46.1278  34.2753 H              1 RES1               0.0000
     19 H19        226.1268  45.2896  33.1174 H              1 RES1               0.0000
     20 H20        222.6434  45.1643  30.3102 H              1 RES1               0.0000
     21 H21        224.3649  44.0557  34.0713 H              1 RES1               0.0000
     22 H22        224.5451  47.2847  29.0715 H              1 RES1               0.0000
     23 H23        222.3150  48.8568  32.0805 H              1 RES1               0.0000
     24 H24        227.1639  47.3991  33.8862 H              1 RES1               0.0000
     25 H25        226.8163  47.4844  32.1609 H              1 RES1               0.0000
     26 H26        225.7741  48.3176  33.3119 H              1 RES1               0.0000
     27 H27        221.4756  43.0073  30.2198 H              1 RES1               0.0000
     28 H28        223.1906  41.9067  33.9651 H              1 RES1               0.0000
     29 H29        221.7436  41.3705  32.0435 H              1 RES1               0.0000
@<TRIPOS>BOND
    1    1    2 1     
    2    1    3 1     
    3    1    4 1     
    4    1    5 1     
    5    2    6 ar    
    6    2    7 ar    
    7    3    8 1     
    8    3    9 2     
    9    4   10 1     
   10    4   11 2     
   11    5   12 1     
   12    5   18 1     
   13    5   19 1     
   14    6   13 ar    
   15    6   20 1     
   16    7   14 ar    
   17    7   21 1     
   18    8   15 1     
   19    8   22 1     
   20   10   15 1     
   21   10   23 1     
   22   12   24 1     
   23   12   25 1     
   24   12   26 1     
   25   13   16 ar    
   26   13   27 1     
   27   14   16 ar    
   28   14   28 1     
   29   15   17 2     
   30   16   29 1     
@<TRIPOS>SUBSTRUCTURE
      1 RES1           1
@<TRIPOS>SET
DONOR_HYDROGENS      STATIC     ATOMS    <user>   **** ""
2 22 23
ATOM$RED        STATIC     ATOMS    COLORGROUP SYSTEM
2 22 23
@<TRIPOS>COMMENT
> <Gold.Version>
2022.3.0

> <Gold.Id.Protein>
unknown|4d1n_clean|pdb

> <Gold.Protein.RotatedTorsions>
[ 1577 1535 1534 1533 ] final -127.07 input   60.00 | X-H torsion
[ 4299 4278 4277 4274 ] final  -67.28 input   59.99 | X-H torsion
[ 4339 4317 4318 4319 ] final -149.47 input  114.03 | X-H torsion
[ 4343 4322 4321 4318 ] final  125.16 input   59.99 | X-H torsion
[ 6681 6660 6659 6657 ] final   95.60 input   60.02 | X-H torsion
[ 23749 23701 23702 23703 ] final  -79.61 input   59.44 | X-H torsion
[ 23797 23783 23784 23785 ] final -125.37 input  -92.48 | X-H torsion
[ 4155 4117 4118 4119 ] final  -12.52 input  119.10 | X-H torsion
[ 6906 6885 6886 6887 ] final -108.35 input  108.16 | X-H torsion
[ 1337 1305 1306 1307 ] final   82.67 input  118.39 | X-H torsion
[ 1567 1527 1528 1529 ] final -134.00 input   90.05 | X-H torsion
[ 4077 4043 4044 4045 ] final  151.66 input  116.01 | X-H torsion
[ 25737 25709 25710 25711 ] final   45.93 input   60.94 | X-H torsion
[ 1631 1609 1610 1611 ] final   80.65 input  112.52 | X-H torsion
[ 1281 1253 1251 1248 ] final  131.00 input   60.01 | X-H torsion
[ 23825 23811 23812 23813 ] final -141.79 input  -23.57 | X-H torsion
[ 27193 4046 4045 4044 ] final  -12.77 input   -0.00 | X-H torsion
[ 27207 23650 23649 23648 ] final  -15.77 input    0.00 | X-H torsion
[ 27210 23704 23703 23702 ] final   19.11 input    0.00 | X-H torsion
[ 27213 25712 25711 25710 ] final -124.61 input    0.00 | X-H torsion
[ 27217 6888 6887 6886 ] final  176.06 input    0.00 | X-H torsion
[ 27219 1308 1307 1306 ] final  109.32 input    0.00 | X-H torsion
[ 27223 1530 1529 1528 ] final  155.22 input   -0.00 | X-H torsion
[ 27225 3782 3781 3780 ] final  -92.58 input    0.00 | X-H torsion
[ 27227 3996 3995 3994 ] final -103.39 input   -0.00 | X-H torsion

> <Gold.Protein.ActiveResidues>
 THR320  LEU321  LYS324  SER325  GLU365  PHE366  ASP368  GLN369  TYR370  SER372 
 SER373  TYR408  HIS412  ARG415  ASN416  TRP426  GLU670  CYS673  ARG674  GLY675 
 GLY676  TYR703  LEU705  THR706  PRO707 

> <Gold.Protein.RotatedAtoms>
  229.5253   44.1746   38.9183 H   0  0  0  0  0  0  0  0  0  0  0  0  # atno 1281 bound_to 1253
  229.7075   40.4635   37.2677 H   0  0  0  0  0  0  0  0  0  0  0  0  # atno 1337 bound_to 1305
  223.4547   39.9710   39.1856 H   0  0  0  0  0  0  0  0  0  0  0  0  # atno 1567 bound_to 1527
  226.0711   45.3462   37.7424 H   0  0  0  0  0  0  0  0  0  0  0  0  # atno 1577 bound_to 1535
  225.7342   44.7774   36.2225 H   0  0  0  0  0  0  0  0  0  0  0  0  # atno 1578 bound_to 1535
  225.2557   46.3025   36.6611 H   0  0  0  0  0  0  0  0  0  0  0  0  # atno 1579 bound_to 1535
  222.4032   37.7131   37.5965 H   0  0  0  0  0  0  0  0  0  0  0  0  # atno 1631 bound_to 1609
  216.4447   47.7113   32.4843 H   0  0  0  0  0  0  0  0  0  0  0  0  # atno 4077 bound_to 4043
  217.8487   49.7816   30.4409 H   0  0  0  0  0  0  0  0  0  0  0  0  # atno 4155 bound_to 4117
  222.0467   51.4819   33.6383 H   0  0  0  0  0  0  0  0  0  0  0  0  # atno 4299 bound_to 4278
  221.3100   51.6816   31.3782 H   0  0  0  0  0  0  0  0  0  0  0  0  # atno 4339 bound_to 4317
  221.9810   51.6520   26.6325 H   0  0  0  0  0  0  0  0  0  0  0  0  # atno 4343 bound_to 4322
  221.8587   47.0616   27.9287 H   0  0  0  0  0  0  0  0  0  0  0  0  # atno 6681 bound_to 6660
  223.6115   44.1756   21.8122 H   0  0  0  0  0  0  0  0  0  0  0  0  # atno 6906 bound_to 6885
  232.1885   47.3084   33.0392 H   0  0  0  0  0  0  0  0  0  0  0  0  # atno 23749 bound_to 23701
  232.3502   45.3827   34.5519 H   0  0  0  0  0  0  0  0  0  0  0  0  # atno 23797 bound_to 23783
  232.6113   42.2979   34.8517 H   0  0  0  0  0  0  0  0  0  0  0  0  # atno 23825 bound_to 23811
  219.9088   39.1963   30.4254 H   0  0  0  0  0  0  0  0  0  0  0  0  # atno 25737 bound_to 25709
  220.2634   49.9583   31.2059 LP  0  0  0  0  0  0  0  0  0  0  0  0  # atno 27193 bound_to 4046
  219.9735   50.3966   29.5555 LP  0  0  0  0  0  0  0  0  0  0  0  0  # atno 27194 bound_to 4046
  221.2327   50.8532   34.8989 LP  0  0  0  0  0  0  0  0  0  0  0  0  # atno 27195 bound_to 4278
  221.3856   52.4719   34.7473 LP  0  0  0  0  0  0  0  0  0  0  0  0  # atno 27196 bound_to 4278
  220.4781   52.8851   30.4202 LP  0  0  0  0  0  0  0  0  0  0  0  0  # atno 27197 bound_to 4317
  221.2749   52.7130   27.6435 LP  0  0  0  0  0  0  0  0  0  0  0  0  # atno 27198 bound_to 4322
  220.6213   51.2331   27.4212 LP  0  0  0  0  0  0  0  0  0  0  0  0  # atno 27199 bound_to 4322
  220.3418   47.3065   28.4650 LP  0  0  0  0  0  0  0  0  0  0  0  0  # atno 27200 bound_to 6660
  221.4110   48.5406   28.4395 LP  0  0  0  0  0  0  0  0  0  0  0  0  # atno 27201 bound_to 6660
  231.3715   49.5416   32.9750 LP  0  0  0  0  0  0  0  0  0  0  0  0  # atno 27207 bound_to 23650
  230.2100   48.2656   32.8238 LP  0  0  0  0  0  0  0  0  0  0  0  0  # atno 27208 bound_to 23650
  232.4918   46.0754   31.8394 LP  0  0  0  0  0  0  0  0  0  0  0  0  # atno 27209 bound_to 23701
  228.6042   44.6090   33.8230 LP  0  0  0  0  0  0  0  0  0  0  0  0  # atno 27210 bound_to 23704
  229.2826   44.2943   35.3853 LP  0  0  0  0  0  0  0  0  0  0  0  0  # atno 27211 bound_to 23704
  230.9446   44.5597   33.9164 LP  0  0  0  0  0  0  0  0  0  0  0  0  # atno 27212 bound_to 23783
  218.8355   41.9706   29.3326 LP  0  0  0  0  0  0  0  0  0  0  0  0  # atno 27213 bound_to 25712
  220.2334   40.9993   29.6528 LP  0  0  0  0  0  0  0  0  0  0  0  0  # atno 27214 bound_to 25712
  217.3636   48.5647   29.2856 LP  0  0  0  0  0  0  0  0  0  0  0  0  # atno 27215 bound_to 4117
  221.9078   43.8556   21.9887 LP  0  0  0  0  0  0  0  0  0  0  0  0  # atno 27216 bound_to 6885
  223.4544   40.0416   24.4822 LP  0  0  0  0  0  0  0  0  0  0  0  0  # atno 27217 bound_to 6888
  224.3188   41.4636   24.9627 LP  0  0  0  0  0  0  0  0  0  0  0  0  # atno 27218 bound_to 6888
  225.2599   39.3944   35.6364 LP  0  0  0  0  0  0  0  0  0  0  0  0  # atno 27219 bound_to 1308
  225.0234   40.3580   37.0561 LP  0  0  0  0  0  0  0  0  0  0  0  0  # atno 27220 bound_to 1308
  228.8250   41.5216   38.3494 LP  0  0  0  0  0  0  0  0  0  0  0  0  # atno 27221 bound_to 1305
  223.9183   39.0750   37.7587 LP  0  0  0  0  0  0  0  0  0  0  0  0  # atno 27222 bound_to 1527
  219.9979   38.8362   35.4395 LP  0  0  0  0  0  0  0  0  0  0  0  0  # atno 27223 bound_to 1530
  219.7363   40.1395   36.5499 LP  0  0  0  0  0  0  0  0  0  0  0  0  # atno 27224 bound_to 1530
  215.3681   46.9269   32.3182 LP  0  0  0  0  0  0  0  0  0  0  0  0  # atno 27225 bound_to 3782
  216.3414   45.4960   32.3899 LP  0  0  0  0  0  0  0  0  0  0  0  0  # atno 27226 bound_to 3782
  217.5262   51.1469   31.8998 LP  0  0  0  0  0  0  0  0  0  0  0  0  # atno 27227 bound_to 3996
  217.6873   50.8196   33.5930 LP  0  0  0  0  0  0  0  0  0  0  0  0  # atno 27228 bound_to 3996
  216.4474   49.3729   31.9587 LP  0  0  0  0  0  0  0  0  0  0  0  0  # atno 27229 bound_to 4043
  220.4028   37.7598   29.5610 LP  0  0  0  0  0  0  0  0  0  0  0  0  # atno 27230 bound_to 25709
  221.8464   38.8839   36.4237 LP  0  0  0  0  0  0  0  0  0  0  0  0  # atno 27232 bound_to 1609

> <Gold.Score>
     Fitness  S(hb_ext) S(vdw_ext)  S(hb_int)    S(int)      intcor
     35.27       4.13      22.74       0.00      -0.12      -0.76

> <Gold.Goldscore.Fitness>
35.2741

> <Gold.Goldscore.Internal.Vdw>
-0.3654

> <Gold.Goldscore.Internal.Torsion>
-0.5164

> <Gold.Goldscore.External.Vdw>
22.7418

> <Gold.Goldscore.Internal.HBond>
0.0000

> <Gold.Goldscore.External.HBond>
4.1276

> <Gold.Goldscore.Internal.Correction>
-0.7583

> <Gold.Goldscore.Hbonds>
donor molecule, donor type, donor heavy atom, donor atom, acceptor molecule, acceptor atom, score
      P1  H 23708 23757       L1     9  0.64
      L1  H     8    22       P1  6894  0.04

> <Gold.Goldscore.Internal.Vdw.Weighted>
-0.3654

> <Gold.Goldscore.Internal.Torsion.Weighted>
-0.5164

> <Gold.Goldscore.External.Vdw.Weighted>
31.2700

> <Gold.Goldscore.Internal.HBond.Weighted>
0.0000

> <Gold.Goldscore.External.HBond.Weighted>
4.1276

> <Gold.Goldscore.Internal.Correction.Weighted>
-0.7583

> <Gold.Rescore>
     Score     S(PLP)   S(hbond)     S(cho)   S(metal)  DE(clash)   DE(tors)     intcor
     18.97     -17.21       0.95       0.00       0.00       0.00       0.55       ----

> <Gold.PLP.Fitness>
18.9671

> <Gold.PLP.PLP>
-17.2120

> <Gold.PLP.part.hbond>
-3.8628

> <Gold.PLP.part.metal>
0.0000

> <Gold.PLP.part.buried>
5.2786

> <Gold.PLP.part.nonpolar>
-22.2109

> <Gold.PLP.part.repulsive>
2.4377

> <Gold.PLP.ligand.clash>
0.0000

> <Gold.PLP.ligand.torsion>
0.5450

> <Gold.PLP.Chemscore.Hbond>
0.9484

> <Gold.PLP.Chemscore.CHOScore>
0.0000

> <Gold.PLP.Chemscore.Metal>
0.0000

> <Gold.Chemscore.Hbonds>
donor molecule, donor type, donor heavy atom, donor atom, acceptor molecule, acceptor atom, score
      P1  H 23708 23757       L1     9  0.28

> <Gold.PLP.Chemscore.Internal.Correction>
   9.000000E+99

