#       Name:                CT1002167954
#       Creating user name   hitesit
#       Creation time:       Sun Apr 16 20:29:14 2023


#       File generated by GOLD software.
#

@<TRIPOS>MOLECULE
CT1002167954|ligand_prepared|mol2|1|dock5
    29    30     1
SMALL
NO_CHARGES


@<TRIPOS>ATOM
      1 C1         223.5646  46.3754  31.8257 C.3            1 RES1               0.0000
      2 C2         223.0023  44.9705  32.1239 C.ar           1 RES1               0.0000
      3 C3         223.0627  47.2840  32.9440 C.2            1 RES1               0.0000
      4 C4         225.0813  46.2266  31.7784 C.2            1 RES1               0.0000
      5 C5         223.0995  46.9600  30.4716 C.3            1 RES1               0.0000
      6 C6         223.6477  44.1246  33.0209 C.ar           1 RES1               0.0000
      7 C7         221.8397  44.5082  31.5129 C.ar           1 RES1               0.0000
      8 N8         223.9621  47.6759  33.8913 N.am           1 RES1               0.0000
      9 O9         221.8869  47.6195  33.0156 O.2            1 RES1               0.0000
     10 N10        225.8189  46.8588  32.7448 N.am           1 RES1               0.0000
     11 O11        225.6432  45.5539  30.9228 O.2            1 RES1               0.0000
     12 C12        223.8500  48.2154  30.0557 C.3            1 RES1               0.0000
     13 C13        223.1475  42.8635  33.2994 C.ar           1 RES1               0.0000
     14 C14        221.3413  43.2466  31.7926 C.ar           1 RES1               0.0000
     15 C15        225.3262  47.5515  33.8170 C.2            1 RES1               0.0000
     16 C16        221.9939  42.4238  32.6858 C.ar           1 RES1               0.0000
     17 O17        226.0522  48.0460  34.6747 O.2            1 RES1               0.0000
     18 H18        223.2295  46.1970  29.6943 H              1 RES1               0.0000
     19 H19        222.0296  47.1936  30.5367 H              1 RES1               0.0000
     20 H20        224.5581  44.4525  33.5116 H              1 RES1               0.0000
     21 H21        221.3102  45.1379  30.8060 H              1 RES1               0.0000
     22 H22        223.5857  48.1007  34.7328 H              1 RES1               0.0000
     23 H23        226.8289  46.8086  32.6566 H              1 RES1               0.0000
     24 H24        223.4847  48.5841  29.0994 H              1 RES1               0.0000
     25 H25        223.7218  49.0040  30.7942 H              1 RES1               0.0000
     26 H26        224.9145  48.0134  29.9568 H              1 RES1               0.0000
     27 H27        223.6656  42.2192  34.0021 H              1 RES1               0.0000
     28 H28        220.4334  42.9044  31.3069 H              1 RES1               0.0000
     29 H29        221.6020  41.4359  32.9044 H              1 RES1               0.0000
@<TRIPOS>BOND
    1    1    2 1     
    2    1    3 1     
    3    1    4 1     
    4    1    5 1     
    5    2    6 ar    
    6    2    7 ar    
    7    3    8 1     
    8    3    9 2     
    9    4   10 1     
   10    4   11 2     
   11    5   12 1     
   12    5   18 1     
   13    5   19 1     
   14    6   13 ar    
   15    6   20 1     
   16    7   14 ar    
   17    7   21 1     
   18    8   15 1     
   19    8   22 1     
   20   10   15 1     
   21   10   23 1     
   22   12   24 1     
   23   12   25 1     
   24   12   26 1     
   25   13   16 ar    
   26   13   27 1     
   27   14   16 ar    
   28   14   28 1     
   29   15   17 2     
   30   16   29 1     
@<TRIPOS>SUBSTRUCTURE
      1 RES1           1
@<TRIPOS>SET
DONOR_HYDROGENS      STATIC     ATOMS    <user>   **** ""
2 22 23
ATOM$RED        STATIC     ATOMS    COLORGROUP SYSTEM
2 22 23
@<TRIPOS>COMMENT
> <Gold.Version>
2022.3.0

> <Gold.Id.Protein>
unknown|4d1n_clean|pdb

> <Gold.Protein.RotatedTorsions>
[ 1577 1535 1534 1533 ] final  135.43 input   60.00 | X-H torsion
[ 4299 4278 4277 4274 ] final -146.10 input   59.99 | X-H torsion
[ 4339 4317 4318 4319 ] final  -18.05 input  114.03 | X-H torsion
[ 4343 4322 4321 4318 ] final -176.04 input   59.99 | X-H torsion
[ 6681 6660 6659 6657 ] final   42.07 input   60.02 | X-H torsion
[ 23749 23701 23702 23703 ] final  140.81 input   59.44 | X-H torsion
[ 23797 23783 23784 23785 ] final  168.37 input  -92.48 | X-H torsion
[ 4155 4117 4118 4119 ] final   89.75 input  119.10 | X-H torsion
[ 6906 6885 6886 6887 ] final  105.03 input  108.16 | X-H torsion
[ 1337 1305 1306 1307 ] final  116.56 input  118.39 | X-H torsion
[ 1567 1527 1528 1529 ] final  129.31 input   90.05 | X-H torsion
[ 4077 4043 4044 4045 ] final  137.30 input  116.01 | X-H torsion
[ 25737 25709 25710 25711 ] final   64.88 input   60.94 | X-H torsion
[ 1631 1609 1610 1611 ] final   68.54 input  112.52 | X-H torsion
[ 1281 1253 1251 1248 ] final  -76.70 input   60.01 | X-H torsion
[ 23825 23811 23812 23813 ] final  -35.39 input  -23.57 | X-H torsion
[ 27193 4046 4045 4044 ] final  -75.30 input   -0.00 | X-H torsion
[ 27207 23650 23649 23648 ] final   39.03 input    0.00 | X-H torsion
[ 27210 23704 23703 23702 ] final  137.48 input    0.00 | X-H torsion
[ 27213 25712 25711 25710 ] final -134.17 input    0.00 | X-H torsion
[ 27217 6888 6887 6886 ] final  -80.95 input    0.00 | X-H torsion
[ 27219 1308 1307 1306 ] final -164.27 input    0.00 | X-H torsion
[ 27223 1530 1529 1528 ] final   98.12 input   -0.00 | X-H torsion
[ 27225 3782 3781 3780 ] final  172.32 input    0.00 | X-H torsion
[ 27227 3996 3995 3994 ] final  171.74 input   -0.00 | X-H torsion

> <Gold.Protein.ActiveResidues>
 THR320  LEU321  LYS324  SER325  GLU365  PHE366  ASP368  GLN369  TYR370  SER372 
 SER373  TYR408  HIS412  ARG415  ASN416  TRP426  GLU670  CYS673  ARG674  GLY675 
 GLY676  TYR703  LEU705  THR706  PRO707 

> <Gold.Protein.RotatedAtoms>
  231.0175   43.3137   38.3359 H   0  0  0  0  0  0  0  0  0  0  0  0  # atno 1281 bound_to 1253
  229.8194   40.9516   37.1271 H   0  0  0  0  0  0  0  0  0  0  0  0  # atno 1337 bound_to 1305
  224.1900   40.1505   38.1030 H   0  0  0  0  0  0  0  0  0  0  0  0  # atno 1567 bound_to 1527
  225.3632   46.3653   37.0136 H   0  0  0  0  0  0  0  0  0  0  0  0  # atno 1577 bound_to 1535
  226.1473   45.0192   37.5792 H   0  0  0  0  0  0  0  0  0  0  0  0  # atno 1578 bound_to 1535
  225.5505   45.0416   36.0331 H   0  0  0  0  0  0  0  0  0  0  0  0  # atno 1579 bound_to 1535
  222.2365   37.7425   37.6756 H   0  0  0  0  0  0  0  0  0  0  0  0  # atno 1631 bound_to 1609
  216.3724   47.6758   32.2811 H   0  0  0  0  0  0  0  0  0  0  0  0  # atno 4077 bound_to 4043
  216.7308   49.2896   29.8106 H   0  0  0  0  0  0  0  0  0  0  0  0  # atno 4155 bound_to 4117
  221.5644   50.6687   34.3580 H   0  0  0  0  0  0  0  0  0  0  0  0  # atno 4299 bound_to 4278
  220.9056   53.1780   30.9197 H   0  0  0  0  0  0  0  0  0  0  0  0  # atno 4339 bound_to 4317
  221.3301   51.0294   26.8126 H   0  0  0  0  0  0  0  0  0  0  0  0  # atno 4343 bound_to 4322
  221.1005   46.7252   28.0813 H   0  0  0  0  0  0  0  0  0  0  0  0  # atno 6681 bound_to 6660
  221.9820   44.3192   22.1635 H   0  0  0  0  0  0  0  0  0  0  0  0  # atno 6906 bound_to 6885
  232.2304   46.5475   31.5687 H   0  0  0  0  0  0  0  0  0  0  0  0  # atno 23749 bound_to 23701
  231.4428   45.6349   34.7764 H   0  0  0  0  0  0  0  0  0  0  0  0  # atno 23797 bound_to 23783
  232.2372   42.6389   33.5366 H   0  0  0  0  0  0  0  0  0  0  0  0  # atno 23825 bound_to 23811
  219.7188   39.0058   30.5365 H   0  0  0  0  0  0  0  0  0  0  0  0  # atno 25737 bound_to 25709
  219.8303   50.7170   30.9938 LP  0  0  0  0  0  0  0  0  0  0  0  0  # atno 27193 bound_to 4046
  220.4066   49.6379   29.7676 LP  0  0  0  0  0  0  0  0  0  0  0  0  # atno 27194 bound_to 4046
  221.1165   52.0181   35.1490 LP  0  0  0  0  0  0  0  0  0  0  0  0  # atno 27195 bound_to 4278
  221.9878   52.1263   33.7721 LP  0  0  0  0  0  0  0  0  0  0  0  0  # atno 27196 bound_to 4278
  220.8712   51.4304   30.8659 LP  0  0  0  0  0  0  0  0  0  0  0  0  # atno 27197 bound_to 4317
  221.9573   52.5112   27.0515 LP  0  0  0  0  0  0  0  0  0  0  0  0  # atno 27198 bound_to 4322
  220.5948   52.0623   27.8317 LP  0  0  0  0  0  0  0  0  0  0  0  0  # atno 27199 bound_to 4322
  220.4820   48.1284   28.6264 LP  0  0  0  0  0  0  0  0  0  0  0  0  # atno 27200 bound_to 6660
  222.0343   48.0575   28.1244 LP  0  0  0  0  0  0  0  0  0  0  0  0  # atno 27201 bound_to 6660
  231.0340   49.4355   32.2607 LP  0  0  0  0  0  0  0  0  0  0  0  0  # atno 27207 bound_to 23650
  230.5476   48.3717   33.5381 LP  0  0  0  0  0  0  0  0  0  0  0  0  # atno 27208 bound_to 23650
  232.4507   46.8208   33.2800 LP  0  0  0  0  0  0  0  0  0  0  0  0  # atno 27209 bound_to 23701
  229.2848   43.6701   34.7546 LP  0  0  0  0  0  0  0  0  0  0  0  0  # atno 27210 bound_to 23704
  228.6020   45.2332   34.4536 LP  0  0  0  0  0  0  0  0  0  0  0  0  # atno 27211 bound_to 23704
  231.8285   44.3141   33.6977 LP  0  0  0  0  0  0  0  0  0  0  0  0  # atno 27212 bound_to 23783
  218.9206   42.0409   29.2394 LP  0  0  0  0  0  0  0  0  0  0  0  0  # atno 27213 bound_to 25712
  220.1483   40.9291   29.7460 LP  0  0  0  0  0  0  0  0  0  0  0  0  # atno 27214 bound_to 25712
  218.4580   49.0464   29.9027 LP  0  0  0  0  0  0  0  0  0  0  0  0  # atno 27215 bound_to 4117
  223.5291   43.7127   21.6392 LP  0  0  0  0  0  0  0  0  0  0  0  0  # atno 27216 bound_to 6885
  224.5322   40.7918   24.1465 LP  0  0  0  0  0  0  0  0  0  0  0  0  # atno 27217 bound_to 6888
  223.2410   40.7134   25.2984 LP  0  0  0  0  0  0  0  0  0  0  0  0  # atno 27218 bound_to 6888
  224.9961   39.1306   36.7621 LP  0  0  0  0  0  0  0  0  0  0  0  0  # atno 27219 bound_to 1308
  225.2873   40.6218   35.9304 LP  0  0  0  0  0  0  0  0  0  0  0  0  # atno 27220 bound_to 1308
  228.7171   41.0515   38.4848 LP  0  0  0  0  0  0  0  0  0  0  0  0  # atno 27221 bound_to 1305
  223.2000   38.8996   38.8162 LP  0  0  0  0  0  0  0  0  0  0  0  0  # atno 27222 bound_to 1527
  220.2743   39.5897   35.2372 LP  0  0  0  0  0  0  0  0  0  0  0  0  # atno 27223 bound_to 1530
  219.4599   39.3860   36.7522 LP  0  0  0  0  0  0  0  0  0  0  0  0  # atno 27224 bound_to 1530
  215.9951   46.1709   31.5004 LP  0  0  0  0  0  0  0  0  0  0  0  0  # atno 27225 bound_to 3782
  215.7144   46.2519   33.2076 LP  0  0  0  0  0  0  0  0  0  0  0  0  # atno 27226 bound_to 3782
  218.2691   50.4794   32.5068 LP  0  0  0  0  0  0  0  0  0  0  0  0  # atno 27227 bound_to 3996
  216.9444   51.4871   32.9860 LP  0  0  0  0  0  0  0  0  0  0  0  0  # atno 27228 bound_to 3996
  216.5191   49.4082   32.1604 LP  0  0  0  0  0  0  0  0  0  0  0  0  # atno 27229 bound_to 4043
  220.5884   37.9459   29.4525 LP  0  0  0  0  0  0  0  0  0  0  0  0  # atno 27230 bound_to 25709
  222.0088   38.8553   36.3466 LP  0  0  0  0  0  0  0  0  0  0  0  0  # atno 27232 bound_to 1609

> <Gold.Score>
     Fitness  S(hb_ext) S(vdw_ext)  S(hb_int)    S(int)      intcor
     34.72       5.56      21.32       0.00      -0.16      -0.76

> <Gold.Goldscore.Fitness>
34.7177

> <Gold.Goldscore.Internal.Vdw>
-0.3664

> <Gold.Goldscore.Internal.Torsion>
-0.5513

> <Gold.Goldscore.External.Vdw>
21.3193

> <Gold.Goldscore.Internal.HBond>
0.0000

> <Gold.Goldscore.External.HBond>
5.5629

> <Gold.Goldscore.Internal.Correction>
-0.7585

> <Gold.Goldscore.Hbonds>
donor molecule, donor type, donor heavy atom, donor atom, acceptor molecule, acceptor atom, score
      P1  H 23708 23757       L1    11  0.93

> <Gold.Goldscore.Internal.Vdw.Weighted>
-0.3664

> <Gold.Goldscore.Internal.Torsion.Weighted>
-0.5513

> <Gold.Goldscore.External.Vdw.Weighted>
29.3140

> <Gold.Goldscore.Internal.HBond.Weighted>
0.0000

> <Gold.Goldscore.External.HBond.Weighted>
5.5629

> <Gold.Goldscore.Internal.Correction.Weighted>
-0.7585

> <Gold.Rescore>
     Score     S(PLP)   S(hbond)     S(cho)   S(metal)  DE(clash)   DE(tors)     intcor
     38.53     -34.99       1.93       0.00       0.00       0.00       1.12       ----

> <Gold.PLP.Fitness>
38.5306

> <Gold.PLP.PLP>
-34.9863

> <Gold.PLP.part.hbond>
-2.0000

> <Gold.PLP.part.metal>
0.0000

> <Gold.PLP.part.buried>
-5.5651

> <Gold.PLP.part.nonpolar>
-28.6242

> <Gold.PLP.part.repulsive>
0.3212

> <Gold.PLP.ligand.clash>
0.0000

> <Gold.PLP.ligand.torsion>
1.1195

> <Gold.PLP.Chemscore.Hbond>
1.9277

> <Gold.PLP.Chemscore.CHOScore>
0.0000

> <Gold.PLP.Chemscore.Metal>
0.0000

> <Gold.Chemscore.Hbonds>
donor molecule, donor type, donor heavy atom, donor atom, acceptor molecule, acceptor atom, score
      P1  H 23708 23757       L1    11  0.54

> <Gold.PLP.Chemscore.Internal.Correction>
   9.000000E+99

