#       Name:                CT1002167954
#       Creating user name   hitesit
#       Creation time:       Sun Apr 16 20:29:13 2023


#       File generated by GOLD software.
#

@<TRIPOS>MOLECULE
CT1002167954|ligand_prepared|mol2|1|dock2
    29    30     1
SMALL
NO_CHARGES


@<TRIPOS>ATOM
      1 C1         222.9589  45.3440  32.2963 C.3            1 RES1               0.0000
      2 C2         221.8561  44.2665  32.2581 C.ar           1 RES1               0.0000
      3 C3         223.1345  45.8285  30.8601 C.2            1 RES1               0.0000
      4 C4         222.4710  46.4197  33.2604 C.2            1 RES1               0.0000
      5 C5         224.3221  44.8249  32.8098 C.3            1 RES1               0.0000
      6 C6         220.5924  44.5269  32.7797 C.ar           1 RES1               0.0000
      7 C7         222.0861  43.0105  31.7030 C.ar           1 RES1               0.0000
      8 N8         222.6429  47.0608  30.5444 N.am           1 RES1               0.0000
      9 O9         223.6611  45.1237  30.0079 O.2            1 RES1               0.0000
     10 N10        222.1954  47.6616  32.7509 N.am           1 RES1               0.0000
     11 O11        222.3068  46.1984  34.4539 O.2            1 RES1               0.0000
     12 C12        225.3630  45.9174  32.9974 C.3            1 RES1               0.0000
     13 C13        219.5940  43.5676  32.7451 C.ar           1 RES1               0.0000
     14 C14        221.0863  42.0524  31.6696 C.ar           1 RES1               0.0000
     15 C15        222.2299  48.0222  31.4314 C.2            1 RES1               0.0000
     16 C16        219.8401  42.3300  32.1897 C.ar           1 RES1               0.0000
     17 O17        221.9155  49.1440  31.0444 O.2            1 RES1               0.0000
     18 H18        224.1675  44.3160  33.7692 H              1 RES1               0.0000
     19 H19        224.7099  44.0865  32.0972 H              1 RES1               0.0000
     20 H20        220.3810  45.4943  33.2231 H              1 RES1               0.0000
     21 H21        223.0593  42.7695  31.2888 H              1 RES1               0.0000
     22 H22        222.5762  47.2886  29.5575 H              1 RES1               0.0000
     23 H23        221.9412  48.3841  33.4169 H              1 RES1               0.0000
     24 H24        226.3002  45.4993  33.3588 H              1 RES1               0.0000
     25 H25        225.5600  46.4281  32.0571 H              1 RES1               0.0000
     26 H26        225.0208  46.6563  33.7191 H              1 RES1               0.0000
     27 H27        218.6153  43.7906  33.1570 H              1 RES1               0.0000
     28 H28        221.2846  41.0796  31.2320 H              1 RES1               0.0000
     29 H29        219.0577  41.5788  32.1623 H              1 RES1               0.0000
@<TRIPOS>BOND
    1    1    2 1     
    2    1    3 1     
    3    1    4 1     
    4    1    5 1     
    5    2    6 ar    
    6    2    7 ar    
    7    3    8 1     
    8    3    9 2     
    9    4   10 1     
   10    4   11 2     
   11    5   12 1     
   12    5   18 1     
   13    5   19 1     
   14    6   13 ar    
   15    6   20 1     
   16    7   14 ar    
   17    7   21 1     
   18    8   15 1     
   19    8   22 1     
   20   10   15 1     
   21   10   23 1     
   22   12   24 1     
   23   12   25 1     
   24   12   26 1     
   25   13   16 ar    
   26   13   27 1     
   27   14   16 ar    
   28   14   28 1     
   29   15   17 2     
   30   16   29 1     
@<TRIPOS>SUBSTRUCTURE
      1 RES1           1
@<TRIPOS>SET
DONOR_HYDROGENS      STATIC     ATOMS    <user>   **** ""
2 22 23
ATOM$RED        STATIC     ATOMS    COLORGROUP SYSTEM
2 22 23
@<TRIPOS>COMMENT
> <Gold.Version>
2022.3.0

> <Gold.Id.Protein>
unknown|4d1n_clean|pdb

> <Gold.Protein.RotatedTorsions>
[ 1577 1535 1534 1533 ] final  103.13 input   60.00 | X-H torsion
[ 4299 4278 4277 4274 ] final  118.31 input   59.99 | X-H torsion
[ 4339 4317 4318 4319 ] final  148.89 input  114.03 | X-H torsion
[ 4343 4322 4321 4318 ] final   76.25 input   59.99 | X-H torsion
[ 6681 6660 6659 6657 ] final   44.81 input   60.02 | X-H torsion
[ 23749 23701 23702 23703 ] final   98.48 input   59.44 | X-H torsion
[ 23797 23783 23784 23785 ] final   95.49 input  -92.48 | X-H torsion
[ 4155 4117 4118 4119 ] final  -29.90 input  119.10 | X-H torsion
[ 6906 6885 6886 6887 ] final   21.14 input  108.16 | X-H torsion
[ 1337 1305 1306 1307 ] final   27.66 input  118.39 | X-H torsion
[ 1567 1527 1528 1529 ] final   27.72 input   90.05 | X-H torsion
[ 4077 4043 4044 4045 ] final  -52.70 input  116.01 | X-H torsion
[ 25737 25709 25710 25711 ] final   44.66 input   60.94 | X-H torsion
[ 1631 1609 1610 1611 ] final  109.09 input  112.52 | X-H torsion
[ 1281 1253 1251 1248 ] final -147.65 input   60.01 | X-H torsion
[ 23825 23811 23812 23813 ] final   62.32 input  -23.57 | X-H torsion
[ 27193 4046 4045 4044 ] final  -49.25 input   -0.00 | X-H torsion
[ 27207 23650 23649 23648 ] final  -53.30 input    0.00 | X-H torsion
[ 27210 23704 23703 23702 ] final -129.14 input    0.00 | X-H torsion
[ 27213 25712 25711 25710 ] final   59.83 input    0.00 | X-H torsion
[ 27217 6888 6887 6886 ] final -144.76 input    0.00 | X-H torsion
[ 27219 1308 1307 1306 ] final  113.68 input    0.00 | X-H torsion
[ 27223 1530 1529 1528 ] final   -9.87 input   -0.00 | X-H torsion
[ 27225 3782 3781 3780 ] final  -49.48 input    0.00 | X-H torsion
[ 27227 3996 3995 3994 ] final -139.44 input   -0.00 | X-H torsion

> <Gold.Protein.ActiveResidues>
 THR320  LEU321  LYS324  SER325  GLU365  PHE366  ASP368  GLN369  TYR370  SER372 
 SER373  TYR408  HIS412  ARG415  ASN416  TRP426  GLU670  CYS673  ARG674  GLY675 
 GLY676  TYR703  LEU705  THR706  PRO707 

> <Gold.Protein.RotatedAtoms>
  230.7456   44.1992   38.9046 H   0  0  0  0  0  0  0  0  0  0  0  0  # atno 1281 bound_to 1253
  229.2321   40.1109   37.8408 H   0  0  0  0  0  0  0  0  0  0  0  0  # atno 1337 bound_to 1305
  223.7568   38.8733   37.8625 H   0  0  0  0  0  0  0  0  0  0  0  0  # atno 1567 bound_to 1527
  225.2291   46.2347   36.5151 H   0  0  0  0  0  0  0  0  0  0  0  0  # atno 1577 bound_to 1535
  226.0182   45.4980   37.7727 H   0  0  0  0  0  0  0  0  0  0  0  0  # atno 1578 bound_to 1535
  225.8137   44.6934   36.3382 H   0  0  0  0  0  0  0  0  0  0  0  0  # atno 1579 bound_to 1535
  222.7330   37.7473   37.3147 H   0  0  0  0  0  0  0  0  0  0  0  0  # atno 1631 bound_to 1609
  216.5497   49.4087   32.3105 H   0  0  0  0  0  0  0  0  0  0  0  0  # atno 4077 bound_to 4043
  218.0885   49.6764   30.3901 H   0  0  0  0  0  0  0  0  0  0  0  0  # atno 4155 bound_to 4117
  221.0572   51.6312   35.2173 H   0  0  0  0  0  0  0  0  0  0  0  0  # atno 4299 bound_to 4278
  220.7536   51.4361   30.7032 H   0  0  0  0  0  0  0  0  0  0  0  0  # atno 4339 bound_to 4317
  222.0282   52.3640   26.9340 H   0  0  0  0  0  0  0  0  0  0  0  0  # atno 4343 bound_to 4322
  221.1432   46.7243   28.0677 H   0  0  0  0  0  0  0  0  0  0  0  0  # atno 6681 bound_to 6660
  222.2942   43.3191   21.6484 H   0  0  0  0  0  0  0  0  0  0  0  0  # atno 6906 bound_to 6885
  232.5060   46.0456   31.8482 H   0  0  0  0  0  0  0  0  0  0  0  0  # atno 23749 bound_to 23701
  230.7554   45.0047   34.2895 H   0  0  0  0  0  0  0  0  0  0  0  0  # atno 23797 bound_to 23783
  231.0641   42.4016   34.1054 H   0  0  0  0  0  0  0  0  0  0  0  0  # atno 23825 bound_to 23811
  219.9228   39.2064   30.4161 H   0  0  0  0  0  0  0  0  0  0  0  0  # atno 25737 bound_to 25709
  219.9971   50.4305   31.1999 LP  0  0  0  0  0  0  0  0  0  0  0  0  # atno 27193 bound_to 4046
  220.2398   49.9243   29.5614 LP  0  0  0  0  0  0  0  0  0  0  0  0  # atno 27194 bound_to 4046
  221.8420   52.4030   34.0192 LP  0  0  0  0  0  0  0  0  0  0  0  0  # atno 27195 bound_to 4278
  221.7734   50.7716   34.0362 LP  0  0  0  0  0  0  0  0  0  0  0  0  # atno 27196 bound_to 4278
  221.0190   53.1238   31.0765 LP  0  0  0  0  0  0  0  0  0  0  0  0  # atno 27197 bound_to 4317
  220.6881   52.2406   27.8479 LP  0  0  0  0  0  0  0  0  0  0  0  0  # atno 27198 bound_to 4322
  221.1607   50.9880   26.9129 LP  0  0  0  0  0  0  0  0  0  0  0  0  # atno 27199 bound_to 4322
  220.4571   48.0909   28.6248 LP  0  0  0  0  0  0  0  0  0  0  0  0  # atno 27200 bound_to 6660
  222.0163   48.0959   28.1396 LP  0  0  0  0  0  0  0  0  0  0  0  0  # atno 27201 bound_to 6660
  231.3196   49.2872   33.4679 LP  0  0  0  0  0  0  0  0  0  0  0  0  # atno 27207 bound_to 23650
  230.2620   48.5200   32.3309 LP  0  0  0  0  0  0  0  0  0  0  0  0  # atno 27208 bound_to 23650
  232.1807   47.3125   33.0061 LP  0  0  0  0  0  0  0  0  0  0  0  0  # atno 27209 bound_to 23701
  229.1240   44.7405   35.4003 LP  0  0  0  0  0  0  0  0  0  0  0  0  # atno 27210 bound_to 23704
  228.7628   44.1628   33.8079 LP  0  0  0  0  0  0  0  0  0  0  0  0  # atno 27211 bound_to 23704
  232.4981   44.9280   34.1720 LP  0  0  0  0  0  0  0  0  0  0  0  0  # atno 27212 bound_to 23783
  220.2664   41.0366   29.6079 LP  0  0  0  0  0  0  0  0  0  0  0  0  # atno 27213 bound_to 25712
  218.8025   41.9333   29.3775 LP  0  0  0  0  0  0  0  0  0  0  0  0  # atno 27214 bound_to 25712
  217.1288   48.6677   29.3354 LP  0  0  0  0  0  0  0  0  0  0  0  0  # atno 27215 bound_to 4117
  223.2185   44.7078   22.1518 LP  0  0  0  0  0  0  0  0  0  0  0  0  # atno 27216 bound_to 6885
  223.9070   40.1232   24.1279 LP  0  0  0  0  0  0  0  0  0  0  0  0  # atno 27217 bound_to 6888
  223.8661   41.3820   25.3170 LP  0  0  0  0  0  0  0  0  0  0  0  0  # atno 27218 bound_to 6888
  225.2479   39.3413   35.6735 LP  0  0  0  0  0  0  0  0  0  0  0  0  # atno 27219 bound_to 1308
  225.0354   40.4111   37.0190 LP  0  0  0  0  0  0  0  0  0  0  0  0  # atno 27220 bound_to 1308
  229.2829   41.8614   37.7973 LP  0  0  0  0  0  0  0  0  0  0  0  0  # atno 27221 bound_to 1305
  223.6231   40.1473   39.0511 LP  0  0  0  0  0  0  0  0  0  0  0  0  # atno 27222 bound_to 1527
  219.8438   40.2573   36.3914 LP  0  0  0  0  0  0  0  0  0  0  0  0  # atno 27223 bound_to 1530
  219.8905   38.7184   35.5980 LP  0  0  0  0  0  0  0  0  0  0  0  0  # atno 27224 bound_to 1530
  215.4328   46.7180   32.9156 LP  0  0  0  0  0  0  0  0  0  0  0  0  # atno 27225 bound_to 3782
  216.2767   45.7049   31.7924 LP  0  0  0  0  0  0  0  0  0  0  0  0  # atno 27226 bound_to 3782
  217.9373   50.8093   31.9651 LP  0  0  0  0  0  0  0  0  0  0  0  0  # atno 27227 bound_to 3996
  217.2763   51.1572   33.5278 LP  0  0  0  0  0  0  0  0  0  0  0  0  # atno 27228 bound_to 3996
  216.3431   47.6875   32.1312 LP  0  0  0  0  0  0  0  0  0  0  0  0  # atno 27229 bound_to 4043
  220.3892   37.7499   29.5701 LP  0  0  0  0  0  0  0  0  0  0  0  0  # atno 27230 bound_to 25709
  221.5252   38.8506   36.6982 LP  0  0  0  0  0  0  0  0  0  0  0  0  # atno 27232 bound_to 1609

> <Gold.Score>
     Fitness  S(hb_ext) S(vdw_ext)  S(hb_int)    S(int)      intcor
     39.54       6.10      25.80       0.00      -2.03      -0.76

> <Gold.Goldscore.Fitness>
39.5387

> <Gold.Goldscore.Internal.Vdw>
-2.3590

> <Gold.Goldscore.Internal.Torsion>
-0.4345

> <Gold.Goldscore.External.Vdw>
25.8009

> <Gold.Goldscore.Internal.HBond>
0.0000

> <Gold.Goldscore.External.HBond>
6.0974

> <Gold.Goldscore.Internal.Correction>
-0.7585

> <Gold.Goldscore.Hbonds>
donor molecule, donor type, donor heavy atom, donor atom, acceptor molecule, acceptor atom, score
      P1  H 23711 23761       L1     9  1.00
      L1  H     8    22       P1  6660  0.05

> <Gold.Goldscore.Internal.Vdw.Weighted>
-2.3590

> <Gold.Goldscore.Internal.Torsion.Weighted>
-0.4345

> <Gold.Goldscore.External.Vdw.Weighted>
35.4762

> <Gold.Goldscore.Internal.HBond.Weighted>
0.0000

> <Gold.Goldscore.External.HBond.Weighted>
6.0974

> <Gold.Goldscore.Internal.Correction.Weighted>
-0.7585

> <Gold.Rescore>
     Score     S(PLP)   S(hbond)     S(cho)   S(metal)  DE(clash)   DE(tors)     intcor
     35.03     -32.30       1.66       0.00       0.00       2.04       0.10       ----

> <Gold.PLP.Fitness>
35.0290

> <Gold.PLP.PLP>
-32.3001

> <Gold.PLP.part.hbond>
-3.0000

> <Gold.PLP.part.metal>
0.0000

> <Gold.PLP.part.buried>
-4.1575

> <Gold.PLP.part.nonpolar>
-27.8637

> <Gold.PLP.part.repulsive>
2.5069

> <Gold.PLP.ligand.clash>
2.0375

> <Gold.PLP.ligand.torsion>
0.1033

> <Gold.PLP.Chemscore.Hbond>
1.6577

> <Gold.PLP.Chemscore.CHOScore>
0.0000

> <Gold.PLP.Chemscore.Metal>
0.0000

> <Gold.Chemscore.Hbonds>
donor molecule, donor type, donor heavy atom, donor atom, acceptor molecule, acceptor atom, score
      P1  H 23711 23761       L1     9  1.00

> <Gold.PLP.Chemscore.Internal.Correction>
   9.000000E+99

