#       Name:                CT1002167954
#       Creating user name   hitesit
#       Creation time:       Sun Apr 16 20:29:16 2023


#       File generated by GOLD software.
#

@<TRIPOS>MOLECULE
CT1002167954|ligand_prepared|mol2|1|dock7
    29    30     1
SMALL
NO_CHARGES


@<TRIPOS>ATOM
      1 C1         224.2389  46.6224  31.6634 C.3            1 RES1               0.0000
      2 C2         223.5478  45.2662  31.9121 C.ar           1 RES1               0.0000
      3 C3         224.9795  46.4888  30.3360 C.2            1 RES1               0.0000
      4 C4         223.1315  47.6704  31.6553 C.2            1 RES1               0.0000
      5 C5         225.2590  47.0138  32.7578 C.3            1 RES1               0.0000
      6 C6         224.0075  44.4085  32.9070 C.ar           1 RES1               0.0000
      7 C7         222.4498  44.8609  31.1579 C.ar           1 RES1               0.0000
      8 N8         224.4540  47.1284  29.2522 N.am           1 RES1               0.0000
      9 O9         225.9874  45.8005  30.2331 O.2            1 RES1               0.0000
     10 N10        222.8812  48.3309  30.4810 N.am           1 RES1               0.0000
     11 O11        222.4624  47.9183  32.6508 O.2            1 RES1               0.0000
     12 C12        225.8347  48.4109  32.5880 C.3            1 RES1               0.0000
     13 C13        223.3901  43.1911  33.1415 C.ar           1 RES1               0.0000
     14 C14        221.8341  43.6429  31.3939 C.ar           1 RES1               0.0000
     15 C15        223.4716  48.0856  29.2713 C.2            1 RES1               0.0000
     16 C16        222.3029  42.8076  32.3855 C.ar           1 RES1               0.0000
     17 O17        223.1544  48.6842  28.2475 O.2            1 RES1               0.0000
     18 H18        224.7682  46.9507  33.7368 H              1 RES1               0.0000
     19 H19        226.0825  46.2891  32.7483 H              1 RES1               0.0000
     20 H20        224.8633  44.6922  33.5104 H              1 RES1               0.0000
     21 H21        222.0645  45.5013  30.3718 H              1 RES1               0.0000
     22 H22        224.8258  46.8711  28.3434 H              1 RES1               0.0000
     23 H23        222.1909  49.0745  30.5116 H              1 RES1               0.0000
     24 H24        226.5444  48.6348  33.3817 H              1 RES1               0.0000
     25 H25        226.3522  48.5017  31.6352 H              1 RES1               0.0000
     26 H26        225.0456  49.1594  32.6178 H              1 RES1               0.0000
     27 H27        223.7638  42.5368  33.9222 H              1 RES1               0.0000
     28 H28        220.9791  43.3449  30.7961 H              1 RES1               0.0000
     29 H29        221.8192  41.8540  32.5697 H              1 RES1               0.0000
@<TRIPOS>BOND
    1    1    2 1     
    2    1    3 1     
    3    1    4 1     
    4    1    5 1     
    5    2    6 ar    
    6    2    7 ar    
    7    3    8 1     
    8    3    9 2     
    9    4   10 1     
   10    4   11 2     
   11    5   12 1     
   12    5   18 1     
   13    5   19 1     
   14    6   13 ar    
   15    6   20 1     
   16    7   14 ar    
   17    7   21 1     
   18    8   15 1     
   19    8   22 1     
   20   10   15 1     
   21   10   23 1     
   22   12   24 1     
   23   12   25 1     
   24   12   26 1     
   25   13   16 ar    
   26   13   27 1     
   27   14   16 ar    
   28   14   28 1     
   29   15   17 2     
   30   16   29 1     
@<TRIPOS>SUBSTRUCTURE
      1 RES1           1
@<TRIPOS>SET
DONOR_HYDROGENS      STATIC     ATOMS    <user>   **** ""
2 22 23
ATOM$RED        STATIC     ATOMS    COLORGROUP SYSTEM
2 22 23
@<TRIPOS>COMMENT
> <Gold.Version>
2022.3.0

> <Gold.Id.Protein>
unknown|4d1n_clean|pdb

> <Gold.Protein.RotatedTorsions>
[ 1577 1535 1534 1533 ] final  174.58 input   60.00 | X-H torsion
[ 4299 4278 4277 4274 ] final  158.42 input   59.99 | X-H torsion
[ 4339 4317 4318 4319 ] final  142.61 input  114.03 | X-H torsion
[ 4343 4322 4321 4318 ] final -145.28 input   59.99 | X-H torsion
[ 6681 6660 6659 6657 ] final   63.63 input   60.02 | X-H torsion
[ 23749 23701 23702 23703 ] final   75.55 input   59.44 | X-H torsion
[ 23797 23783 23784 23785 ] final  135.49 input  -92.48 | X-H torsion
[ 4155 4117 4118 4119 ] final   37.31 input  119.10 | X-H torsion
[ 6906 6885 6886 6887 ] final -160.37 input  108.16 | X-H torsion
[ 1337 1305 1306 1307 ] final  146.50 input  118.39 | X-H torsion
[ 1567 1527 1528 1529 ] final  126.75 input   90.05 | X-H torsion
[ 4077 4043 4044 4045 ] final   79.02 input  116.01 | X-H torsion
[ 25737 25709 25710 25711 ] final -158.99 input   60.94 | X-H torsion
[ 1631 1609 1610 1611 ] final  -47.23 input  112.52 | X-H torsion
[ 1281 1253 1251 1248 ] final  -75.98 input   60.01 | X-H torsion
[ 23825 23811 23812 23813 ] final  120.17 input  -23.57 | X-H torsion
[ 27193 4046 4045 4044 ] final  -37.88 input   -0.00 | X-H torsion
[ 27207 23650 23649 23648 ] final -176.44 input    0.00 | X-H torsion
[ 27210 23704 23703 23702 ] final  -97.73 input    0.00 | X-H torsion
[ 27213 25712 25711 25710 ] final   76.05 input    0.00 | X-H torsion
[ 27217 6888 6887 6886 ] final  131.37 input    0.00 | X-H torsion
[ 27219 1308 1307 1306 ] final  120.01 input    0.00 | X-H torsion
[ 27223 1530 1529 1528 ] final -173.89 input   -0.00 | X-H torsion
[ 27225 3782 3781 3780 ] final   28.63 input    0.00 | X-H torsion
[ 27227 3996 3995 3994 ] final  -26.10 input   -0.00 | X-H torsion

> <Gold.Protein.ActiveResidues>
 THR320  LEU321  LYS324  SER325  GLU365  PHE366  ASP368  GLN369  TYR370  SER372 
 SER373  TYR408  HIS412  ARG415  ASN416  TRP426  GLU670  CYS673  ARG674  GLY675 
 GLY676  TYR703  LEU705  THR706  PRO707 

> <Gold.Protein.RotatedAtoms>
  231.0132   43.3043   38.3300 H   0  0  0  0  0  0  0  0  0  0  0  0  # atno 1281 bound_to 1253
  229.7563   41.4029   37.1962 H   0  0  0  0  0  0  0  0  0  0  0  0  # atno 1337 bound_to 1305
  224.1973   40.1263   38.0727 H   0  0  0  0  0  0  0  0  0  0  0  0  # atno 1567 bound_to 1527
  225.6535   46.1572   37.5462 H   0  0  0  0  0  0  0  0  0  0  0  0  # atno 1577 bound_to 1535
  226.1122   44.6393   37.0640 H   0  0  0  0  0  0  0  0  0  0  0  0  # atno 1578 bound_to 1535
  225.2952   45.6296   36.0158 H   0  0  0  0  0  0  0  0  0  0  0  0  # atno 1579 bound_to 1535
  221.3410   38.7251   36.9803 H   0  0  0  0  0  0  0  0  0  0  0  0  # atno 1631 bound_to 1609
  216.1621   48.0599   31.5507 H   0  0  0  0  0  0  0  0  0  0  0  0  # atno 4077 bound_to 4043
  217.1198   49.7611   30.2950 H   0  0  0  0  0  0  0  0  0  0  0  0  # atno 4155 bound_to 4117
  221.1489   51.0220   35.0373 H   0  0  0  0  0  0  0  0  0  0  0  0  # atno 4299 bound_to 4278
  220.6944   51.4666   30.6325 H   0  0  0  0  0  0  0  0  0  0  0  0  # atno 4339 bound_to 4317
  220.9259   51.0154   27.1003 H   0  0  0  0  0  0  0  0  0  0  0  0  # atno 4343 bound_to 4322
  221.4349   46.7740   27.9891 H   0  0  0  0  0  0  0  0  0  0  0  0  # atno 6681 bound_to 6660
  223.1978   44.7305   22.1402 H   0  0  0  0  0  0  0  0  0  0  0  0  # atno 6906 bound_to 6885
  232.6277   45.9022   32.1444 H   0  0  0  0  0  0  0  0  0  0  0  0  # atno 23749 bound_to 23701
  231.0053   45.4386   34.6303 H   0  0  0  0  0  0  0  0  0  0  0  0  # atno 23797 bound_to 23783
  231.2877   42.1953   34.9003 H   0  0  0  0  0  0  0  0  0  0  0  0  # atno 23825 bound_to 23811
  220.1181   37.6155   29.7630 H   0  0  0  0  0  0  0  0  0  0  0  0  # atno 25737 bound_to 25709
  220.0799   50.2855   31.2391 LP  0  0  0  0  0  0  0  0  0  0  0  0  # atno 27193 bound_to 4046
  220.1570   50.0694   29.5223 LP  0  0  0  0  0  0  0  0  0  0  0  0  # atno 27194 bound_to 4046
  221.5078   52.5345   34.5570 LP  0  0  0  0  0  0  0  0  0  0  0  0  # atno 27195 bound_to 4278
  222.0151   51.2540   33.6797 LP  0  0  0  0  0  0  0  0  0  0  0  0  # atno 27196 bound_to 4278
  221.0765   53.0942   31.1452 LP  0  0  0  0  0  0  0  0  0  0  0  0  # atno 27197 bound_to 4317
  222.0807   52.1137   26.7742 LP  0  0  0  0  0  0  0  0  0  0  0  0  # atno 27198 bound_to 4322
  220.8787   52.4739   27.8192 LP  0  0  0  0  0  0  0  0  0  0  0  0  # atno 27199 bound_to 4322
  220.3345   47.8098   28.5929 LP  0  0  0  0  0  0  0  0  0  0  0  0  # atno 27200 bound_to 6660
  221.8451   48.3270   28.2507 LP  0  0  0  0  0  0  0  0  0  0  0  0  # atno 27201 bound_to 6660
  230.2799   48.2351   33.1046 LP  0  0  0  0  0  0  0  0  0  0  0  0  # atno 27207 bound_to 23650
  231.3016   49.5721   32.6943 LP  0  0  0  0  0  0  0  0  0  0  0  0  # atno 27208 bound_to 23650
  232.0616   47.4529   32.7160 LP  0  0  0  0  0  0  0  0  0  0  0  0  # atno 27209 bound_to 23701
  228.9138   45.0973   35.1806 LP  0  0  0  0  0  0  0  0  0  0  0  0  # atno 27210 bound_to 23704
  228.9730   43.8060   34.0277 LP  0  0  0  0  0  0  0  0  0  0  0  0  # atno 27211 bound_to 23704
  232.2547   44.5053   33.8399 LP  0  0  0  0  0  0  0  0  0  0  0  0  # atno 27212 bound_to 23783
  220.3484   41.1940   29.4399 LP  0  0  0  0  0  0  0  0  0  0  0  0  # atno 27213 bound_to 25712
  218.7205   41.7759   29.5455 LP  0  0  0  0  0  0  0  0  0  0  0  0  # atno 27214 bound_to 25712
  218.0771   48.5848   29.4285 LP  0  0  0  0  0  0  0  0  0  0  0  0  # atno 27215 bound_to 4117
  222.3194   43.3035   21.6625 LP  0  0  0  0  0  0  0  0  0  0  0  0  # atno 27216 bound_to 6885
  223.1835   40.3342   25.0064 LP  0  0  0  0  0  0  0  0  0  0  0  0  # atno 27217 bound_to 6888
  224.5897   41.1710   24.4386 LP  0  0  0  0  0  0  0  0  0  0  0  0  # atno 27218 bound_to 6888
  225.2294   39.2697   35.7343 LP  0  0  0  0  0  0  0  0  0  0  0  0  # atno 27219 bound_to 1308
  225.0539   40.4827   36.9582 LP  0  0  0  0  0  0  0  0  0  0  0  0  # atno 27220 bound_to 1308
  228.7780   40.6167   38.4183 LP  0  0  0  0  0  0  0  0  0  0  0  0  # atno 27221 bound_to 1305
  223.1929   38.9233   38.8458 LP  0  0  0  0  0  0  0  0  0  0  0  0  # atno 27222 bound_to 1527
  219.7738   38.6499   35.7971 LP  0  0  0  0  0  0  0  0  0  0  0  0  # atno 27223 bound_to 1530
  219.9605   40.3258   36.1923 LP  0  0  0  0  0  0  0  0  0  0  0  0  # atno 27224 bound_to 1530
  216.0236   45.8208   33.1083 LP  0  0  0  0  0  0  0  0  0  0  0  0  # atno 27225 bound_to 3782
  215.6859   46.6020   31.5997 LP  0  0  0  0  0  0  0  0  0  0  0  0  # atno 27226 bound_to 3782
  216.9332   51.5271   32.7207 LP  0  0  0  0  0  0  0  0  0  0  0  0  # atno 27227 bound_to 3996
  218.2803   50.4395   32.7721 LP  0  0  0  0  0  0  0  0  0  0  0  0  # atno 27228 bound_to 3996
  216.7279   49.0268   32.8857 LP  0  0  0  0  0  0  0  0  0  0  0  0  # atno 27229 bound_to 4043
  220.1984   39.3038   30.2080 LP  0  0  0  0  0  0  0  0  0  0  0  0  # atno 27230 bound_to 25709
  222.8808   37.8984   37.0238 LP  0  0  0  0  0  0  0  0  0  0  0  0  # atno 27232 bound_to 1609

> <Gold.Score>
     Fitness  S(hb_ext) S(vdw_ext)  S(hb_int)    S(int)      intcor
     33.82       2.87      23.01       0.00      -0.69      -0.76

> <Gold.Goldscore.Fitness>
33.8209

> <Gold.Goldscore.Internal.Vdw>
-1.0243

> <Gold.Goldscore.Internal.Torsion>
-0.4197

> <Gold.Goldscore.External.Vdw>
23.0051

> <Gold.Goldscore.Internal.HBond>
0.0000

> <Gold.Goldscore.External.HBond>
2.8745

> <Gold.Goldscore.Internal.Correction>
-0.7583

> <Gold.Goldscore.Hbonds>
donor molecule, donor type, donor heavy atom, donor atom, acceptor molecule, acceptor atom, score
      P1  H 23708 23757       L1     9  0.44
      L1  H     8    22       P1  6894  0.03
      L1  H    10    23       P1  4046  0.01

> <Gold.Goldscore.Internal.Vdw.Weighted>
-1.0243

> <Gold.Goldscore.Internal.Torsion.Weighted>
-0.4197

> <Gold.Goldscore.External.Vdw.Weighted>
31.6320

> <Gold.Goldscore.Internal.HBond.Weighted>
0.0000

> <Gold.Goldscore.External.HBond.Weighted>
2.8745

> <Gold.Goldscore.Internal.Correction.Weighted>
-0.7583

> <Gold.Rescore>
     Score     S(PLP)   S(hbond)     S(cho)   S(metal)  DE(clash)   DE(tors)     intcor
     27.20     -25.19       0.86       0.00       0.00       0.00       0.29       ----

> <Gold.PLP.Fitness>
27.1963

> <Gold.PLP.PLP>
-25.1853

> <Gold.PLP.part.hbond>
-2.3564

> <Gold.PLP.part.metal>
0.0000

> <Gold.PLP.part.buried>
-0.2825

> <Gold.PLP.part.nonpolar>
-24.3355

> <Gold.PLP.part.repulsive>
0.4315

> <Gold.PLP.ligand.clash>
0.0000

> <Gold.PLP.ligand.torsion>
0.2905

> <Gold.PLP.Chemscore.Hbond>
0.8640

> <Gold.PLP.Chemscore.CHOScore>
0.0000

> <Gold.PLP.Chemscore.Metal>
0.0000

> <Gold.Chemscore.Hbonds>
donor molecule, donor type, donor heavy atom, donor atom, acceptor molecule, acceptor atom, score
      L1  H     8    22       P1  6894  0.25
      P1  H 23708 23757       L1     9  0.39

> <Gold.PLP.Chemscore.Internal.Correction>
   9.000000E+99

