#       Name:                CT1002167954
#       Creating user name   hitesit
#       Creation time:       Sun Apr 16 20:29:17 2023


#       File generated by GOLD software.
#

@<TRIPOS>MOLECULE
CT1002167954|ligand_prepared|mol2|1|dock9
    29    30     1
SMALL
NO_CHARGES


@<TRIPOS>ATOM
      1 C1         222.6059  46.2140  32.8208 C.3            1 RES1               0.0000
      2 C2         221.2780  45.7684  33.4665 C.ar           1 RES1               0.0000
      3 C3         222.3241  46.3765  31.3300 C.2            1 RES1               0.0000
      4 C4         223.0088  47.5063  33.5223 C.2            1 RES1               0.0000
      5 C5         223.7576  45.1967  32.9950 C.3            1 RES1               0.0000
      6 C6         220.9559  44.4182  33.5650 C.ar           1 RES1               0.0000
      7 C7         220.3678  46.6943  33.9696 C.ar           1 RES1               0.0000
      8 N8         222.2415  47.6455  30.8373 N.am           1 RES1               0.0000
      9 O9         222.1380  45.4067  30.6054 O.2            1 RES1               0.0000
     10 N10        223.0265  48.6598  32.7828 N.am           1 RES1               0.0000
     11 O11        223.2952  47.5390  34.7128 O.2            1 RES1               0.0000
     12 C12        225.1201  45.7382  32.5919 C.3            1 RES1               0.0000
     13 C13        219.7684  44.0080  34.1480 C.ar           1 RES1               0.0000
     14 C14        219.1807  46.2820  34.5520 C.ar           1 RES1               0.0000
     15 C15        222.6314  48.7932  31.4796 C.2            1 RES1               0.0000
     16 C16        218.8803  44.9395  34.6422 C.ar           1 RES1               0.0000
     17 O17        222.6240  49.8746  30.8985 O.2            1 RES1               0.0000
     18 H18        223.7981  44.8858  34.0462 H              1 RES1               0.0000
     19 H19        223.5380  44.3079  32.3907 H              1 RES1               0.0000
     20 H20        221.6413  43.6708  33.1794 H              1 RES1               0.0000
     21 H21        220.5827  47.7557  33.9085 H              1 RES1               0.0000
     22 H22        221.8538  47.7509  29.9052 H              1 RES1               0.0000
     23 H23        223.3656  49.4965  33.2467 H              1 RES1               0.0000
     24 H24        225.8919  44.9846  32.7336 H              1 RES1               0.0000
     25 H25        225.1233  46.0337  31.5448 H              1 RES1               0.0000
     26 H26        225.3819  46.6082  33.1905 H              1 RES1               0.0000
     27 H27        219.5360  42.9503  34.2153 H              1 RES1               0.0000
     28 H28        218.4844  47.0186  34.9391 H              1 RES1               0.0000
     29 H29        217.9502  44.6179  35.0992 H              1 RES1               0.0000
@<TRIPOS>BOND
    1    1    2 1     
    2    1    3 1     
    3    1    4 1     
    4    1    5 1     
    5    2    6 ar    
    6    2    7 ar    
    7    3    8 1     
    8    3    9 2     
    9    4   10 1     
   10    4   11 2     
   11    5   12 1     
   12    5   18 1     
   13    5   19 1     
   14    6   13 ar    
   15    6   20 1     
   16    7   14 ar    
   17    7   21 1     
   18    8   15 1     
   19    8   22 1     
   20   10   15 1     
   21   10   23 1     
   22   12   24 1     
   23   12   25 1     
   24   12   26 1     
   25   13   16 ar    
   26   13   27 1     
   27   14   16 ar    
   28   14   28 1     
   29   15   17 2     
   30   16   29 1     
@<TRIPOS>SUBSTRUCTURE
      1 RES1           1
@<TRIPOS>SET
DONOR_HYDROGENS      STATIC     ATOMS    <user>   **** ""
2 22 23
ATOM$RED        STATIC     ATOMS    COLORGROUP SYSTEM
2 22 23
@<TRIPOS>COMMENT
> <Gold.Version>
2022.3.0

> <Gold.Id.Protein>
unknown|4d1n_clean|pdb

> <Gold.Protein.RotatedTorsions>
[ 1577 1535 1534 1533 ] final   -1.12 input   60.00 | X-H torsion
[ 4299 4278 4277 4274 ] final   -1.87 input   59.99 | X-H torsion
[ 4339 4317 4318 4319 ] final  158.09 input  114.03 | X-H torsion
[ 4343 4322 4321 4318 ] final  -87.41 input   59.99 | X-H torsion
[ 6681 6660 6659 6657 ] final   71.04 input   60.02 | X-H torsion
[ 23749 23701 23702 23703 ] final   90.34 input   59.44 | X-H torsion
[ 23797 23783 23784 23785 ] final -145.98 input  -92.48 | X-H torsion
[ 4155 4117 4118 4119 ] final -110.15 input  119.10 | X-H torsion
[ 6906 6885 6886 6887 ] final   -4.31 input  108.16 | X-H torsion
[ 1337 1305 1306 1307 ] final   35.20 input  118.39 | X-H torsion
[ 1567 1527 1528 1529 ] final  -30.53 input   90.05 | X-H torsion
[ 4077 4043 4044 4045 ] final   -8.07 input  116.01 | X-H torsion
[ 25737 25709 25710 25711 ] final -108.30 input   60.94 | X-H torsion
[ 1631 1609 1610 1611 ] final  -20.37 input  112.52 | X-H torsion
[ 1281 1253 1251 1248 ] final  140.86 input   60.01 | X-H torsion
[ 23825 23811 23812 23813 ] final  179.63 input  -23.57 | X-H torsion
[ 27193 4046 4045 4044 ] final   44.09 input   -0.00 | X-H torsion
[ 27207 23650 23649 23648 ] final   66.84 input    0.00 | X-H torsion
[ 27210 23704 23703 23702 ] final   25.99 input    0.00 | X-H torsion
[ 27213 25712 25711 25710 ] final  -37.29 input    0.00 | X-H torsion
[ 27217 6888 6887 6886 ] final  -74.42 input    0.00 | X-H torsion
[ 27219 1308 1307 1306 ] final   35.91 input    0.00 | X-H torsion
[ 27223 1530 1529 1528 ] final  -55.42 input   -0.00 | X-H torsion
[ 27225 3782 3781 3780 ] final -115.71 input    0.00 | X-H torsion
[ 27227 3996 3995 3994 ] final -110.74 input   -0.00 | X-H torsion

> <Gold.Protein.ActiveResidues>
 THR320  LEU321  LYS324  SER325  GLU365  PHE366  ASP368  GLN369  TYR370  SER372 
 SER373  TYR408  HIS412  ARG415  ASN416  TRP426  GLU670  CYS673  ARG674  GLY675 
 GLY676  TYR703  LEU705  THR706  PRO707 

> <Gold.Protein.RotatedAtoms>
  229.6548   44.2566   38.9673 H   0  0  0  0  0  0  0  0  0  0  0  0  # atno 1281 bound_to 1253
  229.3073   40.1142   37.7509 H   0  0  0  0  0  0  0  0  0  0  0  0  # atno 1337 bound_to 1305
  223.2747   38.7434   38.5632 H   0  0  0  0  0  0  0  0  0  0  0  0  # atno 1567 bound_to 1527
  225.6852   44.8384   36.1610 H   0  0  0  0  0  0  0  0  0  0  0  0  # atno 1577 bound_to 1535
  225.2784   46.3319   36.7534 H   0  0  0  0  0  0  0  0  0  0  0  0  # atno 1578 bound_to 1535
  226.0974   45.2558   37.7116 H   0  0  0  0  0  0  0  0  0  0  0  0  # atno 1579 bound_to 1535
  221.3142   38.4909   37.3174 H   0  0  0  0  0  0  0  0  0  0  0  0  # atno 1631 bound_to 1609
  216.3292   49.2429   31.7066 H   0  0  0  0  0  0  0  0  0  0  0  0  # atno 4077 bound_to 4043
  218.4039   48.8300   29.6985 H   0  0  0  0  0  0  0  0  0  0  0  0  # atno 4155 bound_to 4117
  221.8393   52.3956   34.0189 H   0  0  0  0  0  0  0  0  0  0  0  0  # atno 4299 bound_to 4278
  220.8431   51.4101   30.8106 H   0  0  0  0  0  0  0  0  0  0  0  0  # atno 4339 bound_to 4317
  220.5156   51.5878   27.6691 H   0  0  0  0  0  0  0  0  0  0  0  0  # atno 4343 bound_to 4322
  221.5447   46.8194   27.9662 H   0  0  0  0  0  0  0  0  0  0  0  0  # atno 6681 bound_to 6660
  222.6521   43.2255   21.5427 H   0  0  0  0  0  0  0  0  0  0  0  0  # atno 6906 bound_to 6885
  232.5533   45.9816   31.9449 H   0  0  0  0  0  0  0  0  0  0  0  0  # atno 23749 bound_to 23701
  232.1193   45.5493   34.6909 H   0  0  0  0  0  0  0  0  0  0  0  0  # atno 23797 bound_to 23783
  232.1245   42.1827   35.1477 H   0  0  0  0  0  0  0  0  0  0  0  0  # atno 23825 bound_to 23811
  220.6530   38.0185   29.4102 H   0  0  0  0  0  0  0  0  0  0  0  0  # atno 25737 bound_to 25709
  220.5327   49.4531   30.6124 LP  0  0  0  0  0  0  0  0  0  0  0  0  # atno 27193 bound_to 4046
  219.7042   50.9018   30.1489 LP  0  0  0  0  0  0  0  0  0  0  0  0  # atno 27194 bound_to 4046
  221.7719   50.7701   34.0384 LP  0  0  0  0  0  0  0  0  0  0  0  0  # atno 27195 bound_to 4278
  221.0554   51.6344   35.2243 LP  0  0  0  0  0  0  0  0  0  0  0  0  # atno 27196 bound_to 4278
  220.9319   53.1491   30.9721 LP  0  0  0  0  0  0  0  0  0  0  0  0  # atno 27197 bound_to 4317
  221.7332   51.2818   26.6347 LP  0  0  0  0  0  0  0  0  0  0  0  0  # atno 27198 bound_to 4322
  221.6397   52.7289   27.3855 LP  0  0  0  0  0  0  0  0  0  0  0  0  # atno 27199 bound_to 4322
  220.3114   47.6922   28.5708 LP  0  0  0  0  0  0  0  0  0  0  0  0  # atno 27200 bound_to 6660
  221.7577   48.3988   28.2959 LP  0  0  0  0  0  0  0  0  0  0  0  0  # atno 27201 bound_to 6660
  230.7544   49.1849   32.0811 LP  0  0  0  0  0  0  0  0  0  0  0  0  # atno 27207 bound_to 23650
  230.8272   48.6223   33.7177 LP  0  0  0  0  0  0  0  0  0  0  0  0  # atno 27208 bound_to 23650
  232.1344   47.3752   32.9114 LP  0  0  0  0  0  0  0  0  0  0  0  0  # atno 27209 bound_to 23701
  228.6312   44.5117   33.7986 LP  0  0  0  0  0  0  0  0  0  0  0  0  # atno 27210 bound_to 23704
  229.2556   44.3916   35.4097 LP  0  0  0  0  0  0  0  0  0  0  0  0  # atno 27211 bound_to 23704
  231.1695   44.3975   33.7809 LP  0  0  0  0  0  0  0  0  0  0  0  0  # atno 27212 bound_to 23783
  219.0488   41.0449   30.0588 LP  0  0  0  0  0  0  0  0  0  0  0  0  # atno 27213 bound_to 25712
  220.0201   41.9250   28.9266 LP  0  0  0  0  0  0  0  0  0  0  0  0  # atno 27214 bound_to 25712
  216.8200   49.4963   30.0125 LP  0  0  0  0  0  0  0  0  0  0  0  0  # atno 27215 bound_to 4117
  222.8624   44.8009   22.2570 LP  0  0  0  0  0  0  0  0  0  0  0  0  # atno 27216 bound_to 6885
  224.5615   40.8735   24.1934 LP  0  0  0  0  0  0  0  0  0  0  0  0  # atno 27217 bound_to 6888
  223.2117   40.6317   25.2515 LP  0  0  0  0  0  0  0  0  0  0  0  0  # atno 27218 bound_to 6888
  225.3223   40.4256   35.7017 LP  0  0  0  0  0  0  0  0  0  0  0  0  # atno 27219 bound_to 1308
  224.9610   39.3267   36.9908 LP  0  0  0  0  0  0  0  0  0  0  0  0  # atno 27220 bound_to 1308
  229.2105   41.8582   37.8839 LP  0  0  0  0  0  0  0  0  0  0  0  0  # atno 27221 bound_to 1305
  224.0941   40.2742   38.3666 LP  0  0  0  0  0  0  0  0  0  0  0  0  # atno 27222 bound_to 1527
  219.5505   39.7718   36.7491 LP  0  0  0  0  0  0  0  0  0  0  0  0  # atno 27223 bound_to 1530
  220.1837   39.2039   35.2403 LP  0  0  0  0  0  0  0  0  0  0  0  0  # atno 27224 bound_to 1530
  215.4455   46.8785   31.9831 LP  0  0  0  0  0  0  0  0  0  0  0  0  # atno 27225 bound_to 3782
  216.2640   45.5444   32.7249 LP  0  0  0  0  0  0  0  0  0  0  0  0  # atno 27226 bound_to 3782
  217.6129   51.0790   31.8857 LP  0  0  0  0  0  0  0  0  0  0  0  0  # atno 27227 bound_to 3996
  217.6006   50.8876   33.6071 LP  0  0  0  0  0  0  0  0  0  0  0  0  # atno 27228 bound_to 3996
  216.5621   47.8522   32.7308 LP  0  0  0  0  0  0  0  0  0  0  0  0  # atno 27229 bound_to 4043
  219.6760   38.9101   30.5526 LP  0  0  0  0  0  0  0  0  0  0  0  0  # atno 27230 bound_to 25709
  222.9069   38.1264   36.6955 LP  0  0  0  0  0  0  0  0  0  0  0  0  # atno 27232 bound_to 1609

> <Gold.Score>
     Fitness  S(hb_ext) S(vdw_ext)  S(hb_int)    S(int)      intcor
     29.42       0.89      21.24       0.00      -0.68      -0.76

> <Gold.Goldscore.Fitness>
29.4204

> <Gold.Goldscore.Internal.Vdw>
-0.8975

> <Gold.Goldscore.Internal.Torsion>
-0.5429

> <Gold.Goldscore.External.Vdw>
21.2421

> <Gold.Goldscore.Internal.HBond>
0.0000

> <Gold.Goldscore.External.HBond>
0.8946

> <Gold.Goldscore.Internal.Correction>
-0.7583

> <Gold.Goldscore.Hbonds>
donor molecule, donor type, donor heavy atom, donor atom, acceptor molecule, acceptor atom, score
      P1  H 23711 23761       L1     9  0.05
      L1  H     8    22       P1  6660  0.29

> <Gold.Goldscore.Internal.Vdw.Weighted>
-0.8975

> <Gold.Goldscore.Internal.Torsion.Weighted>
-0.5429

> <Gold.Goldscore.External.Vdw.Weighted>
29.2079

> <Gold.Goldscore.Internal.HBond.Weighted>
0.0000

> <Gold.Goldscore.External.HBond.Weighted>
0.8946

> <Gold.Goldscore.Internal.Correction.Weighted>
-0.7583

> <Gold.Rescore>
     Score     S(PLP)   S(hbond)     S(cho)   S(metal)  DE(clash)   DE(tors)     intcor
     29.83     -30.26       0.44       0.00       0.00       0.00       0.87       ----

> <Gold.PLP.Fitness>
29.8311

> <Gold.PLP.PLP>
-30.2596

> <Gold.PLP.part.hbond>
-3.8177

> <Gold.PLP.part.metal>
0.0000

> <Gold.PLP.part.buried>
-2.8236

> <Gold.PLP.part.nonpolar>
-24.4075

> <Gold.PLP.part.repulsive>
0.2264

> <Gold.PLP.ligand.clash>
0.0000

> <Gold.PLP.ligand.torsion>
0.8694

> <Gold.PLP.Chemscore.Hbond>
0.4368

> <Gold.PLP.Chemscore.CHOScore>
0.0000

> <Gold.PLP.Chemscore.Metal>
0.0000

> <Gold.Chemscore.Hbonds>
donor molecule, donor type, donor heavy atom, donor atom, acceptor molecule, acceptor atom, score
      L1  H     8    22       P1  6660  0.10
      P1  H  4317  4339       L1    17  0.04

> <Gold.PLP.Chemscore.Internal.Correction>
   9.000000E+99

