#       Name:                CT1002167954
#       Creating user name   hitesit
#       Creation time:       Sun Apr 16 20:29:14 2023


#       File generated by GOLD software.
#

@<TRIPOS>MOLECULE
CT1002167954|ligand_prepared|mol2|1|dock4
    29    30     1
SMALL
NO_CHARGES


@<TRIPOS>ATOM
      1 C1         222.9041  46.6171  32.0796 C.3            1 RES1               0.0000
      2 C2         222.2511  45.2898  32.5163 C.ar           1 RES1               0.0000
      3 C3         224.3401  46.5777  32.5939 C.2            1 RES1               0.0000
      4 C4         222.7887  46.6696  30.5602 C.2            1 RES1               0.0000
      5 C5         222.2105  47.8737  32.6551 C.3            1 RES1               0.0000
      6 C6         222.4715  44.1205  31.7945 C.ar           1 RES1               0.0000
      7 C7         221.4296  45.2186  33.6381 C.ar           1 RES1               0.0000
      8 N8         225.3327  46.3721  31.6815 N.am           1 RES1               0.0000
      9 O9         224.5946  46.6858  33.7871 O.2            1 RES1               0.0000
     10 N10        223.9452  46.6239  29.8264 N.am           1 RES1               0.0000
     11 O11        221.7059  46.7335  29.9912 O.2            1 RES1               0.0000
     12 C12        222.6709  49.1748  32.0168 C.3            1 RES1               0.0000
     13 C13        221.8940  42.9227  32.1819 C.ar           1 RES1               0.0000
     14 C14        220.8528  44.0197  34.0237 C.ar           1 RES1               0.0000
     15 C15        225.2100  46.4466  30.3173 C.2            1 RES1               0.0000
     16 C16        221.0847  42.8714  33.2969 C.ar           1 RES1               0.0000
     17 O17        226.1953  46.3608  29.5899 O.2            1 RES1               0.0000
     18 H18        221.1271  47.7751  32.5137 H              1 RES1               0.0000
     19 H19        222.4048  47.9216  33.7337 H              1 RES1               0.0000
     20 H20        223.1035  44.1420  30.9130 H              1 RES1               0.0000
     21 H21        221.2322  46.1096  34.2245 H              1 RES1               0.0000
     22 H22        226.2510  46.1417  32.0474 H              1 RES1               0.0000
     23 H23        223.8547  46.7322  28.8212 H              1 RES1               0.0000
     24 H24        222.1534  50.0246  32.4568 H              1 RES1               0.0000
     25 H25        223.7399  49.3177  32.1602 H              1 RES1               0.0000
     26 H26        222.4698  49.1721  30.9475 H              1 RES1               0.0000
     27 H27        222.0785  42.0221  31.6057 H              1 RES1               0.0000
     28 H28        220.2160  43.9841  34.9015 H              1 RES1               0.0000
     29 H29        220.6327  41.9329  33.6003 H              1 RES1               0.0000
@<TRIPOS>BOND
    1    1    2 1     
    2    1    3 1     
    3    1    4 1     
    4    1    5 1     
    5    2    6 ar    
    6    2    7 ar    
    7    3    8 1     
    8    3    9 2     
    9    4   10 1     
   10    4   11 2     
   11    5   12 1     
   12    5   18 1     
   13    5   19 1     
   14    6   13 ar    
   15    6   20 1     
   16    7   14 ar    
   17    7   21 1     
   18    8   15 1     
   19    8   22 1     
   20   10   15 1     
   21   10   23 1     
   22   12   24 1     
   23   12   25 1     
   24   12   26 1     
   25   13   16 ar    
   26   13   27 1     
   27   14   16 ar    
   28   14   28 1     
   29   15   17 2     
   30   16   29 1     
@<TRIPOS>SUBSTRUCTURE
      1 RES1           1
@<TRIPOS>SET
DONOR_HYDROGENS      STATIC     ATOMS    <user>   **** ""
2 22 23
ATOM$RED        STATIC     ATOMS    COLORGROUP SYSTEM
2 22 23
@<TRIPOS>COMMENT
> <Gold.Version>
2022.3.0

> <Gold.Id.Protein>
unknown|4d1n_clean|pdb

> <Gold.Protein.RotatedTorsions>
[ 1577 1535 1534 1533 ] final   58.97 input   60.00 | X-H torsion
[ 4299 4278 4277 4274 ] final   28.23 input   59.99 | X-H torsion
[ 4339 4317 4318 4319 ] final  157.62 input  114.03 | X-H torsion
[ 4343 4322 4321 4318 ] final -108.02 input   59.99 | X-H torsion
[ 6681 6660 6659 6657 ] final -136.43 input   60.02 | X-H torsion
[ 23749 23701 23702 23703 ] final   40.48 input   59.44 | X-H torsion
[ 23797 23783 23784 23785 ] final  134.54 input  -92.48 | X-H torsion
[ 4155 4117 4118 4119 ] final   97.84 input  119.10 | X-H torsion
[ 6906 6885 6886 6887 ] final  -23.85 input  108.16 | X-H torsion
[ 1337 1305 1306 1307 ] final   15.71 input  118.39 | X-H torsion
[ 1567 1527 1528 1529 ] final -165.89 input   90.05 | X-H torsion
[ 4077 4043 4044 4045 ] final -158.45 input  116.01 | X-H torsion
[ 25737 25709 25710 25711 ] final   41.36 input   60.94 | X-H torsion
[ 1631 1609 1610 1611 ] final   73.18 input  112.52 | X-H torsion
[ 1281 1253 1251 1248 ] final   88.50 input   60.01 | X-H torsion
[ 23825 23811 23812 23813 ] final  125.79 input  -23.57 | X-H torsion
[ 27193 4046 4045 4044 ] final -130.66 input   -0.00 | X-H torsion
[ 27207 23650 23649 23648 ] final   50.70 input    0.00 | X-H torsion
[ 27210 23704 23703 23702 ] final -152.91 input    0.00 | X-H torsion
[ 27213 25712 25711 25710 ] final  -89.78 input    0.00 | X-H torsion
[ 27217 6888 6887 6886 ] final  -53.63 input    0.00 | X-H torsion
[ 27219 1308 1307 1306 ] final -132.47 input    0.00 | X-H torsion
[ 27223 1530 1529 1528 ] final -116.60 input   -0.00 | X-H torsion
[ 27225 3782 3781 3780 ] final -104.09 input    0.00 | X-H torsion
[ 27227 3996 3995 3994 ] final   57.91 input   -0.00 | X-H torsion

> <Gold.Protein.ActiveResidues>
 THR320  LEU321  LYS324  SER325  GLU365  PHE366  ASP368  GLN369  TYR370  SER372 
 SER373  TYR408  HIS412  ARG415  ASN416  TRP426  GLU670  CYS673  ARG674  GLY675 
 GLY676  TYR703  LEU705  THR706  PRO707 

> <Gold.Protein.RotatedAtoms>
  229.2125   43.6625   38.6007 H   0  0  0  0  0  0  0  0  0  0  0  0  # atno 1281 bound_to 1253
  229.1139   40.1372   37.9816 H   0  0  0  0  0  0  0  0  0  0  0  0  # atno 1337 bound_to 1305
  223.7430   40.2668   38.9300 H   0  0  0  0  0  0  0  0  0  0  0  0  # atno 1567 bound_to 1527
  225.2761   45.6966   36.0397 H   0  0  0  0  0  0  0  0  0  0  0  0  # atno 1577 bound_to 1535
  225.6895   46.1113   37.5902 H   0  0  0  0  0  0  0  0  0  0  0  0  # atno 1578 bound_to 1535
  226.0953   44.6182   36.9961 H   0  0  0  0  0  0  0  0  0  0  0  0  # atno 1579 bound_to 1535
  222.3014   37.7282   37.6487 H   0  0  0  0  0  0  0  0  0  0  0  0  # atno 1631 bound_to 1609
  216.6640   48.1981   32.9931 H   0  0  0  0  0  0  0  0  0  0  0  0  # atno 4077 bound_to 4043
  216.7309   49.1963   29.7283 H   0  0  0  0  0  0  0  0  0  0  0  0  # atno 4155 bound_to 4117
  221.5950   52.5369   34.4146 H   0  0  0  0  0  0  0  0  0  0  0  0  # atno 4299 bound_to 4278
  220.8385   51.4109   30.8050 H   0  0  0  0  0  0  0  0  0  0  0  0  # atno 4339 bound_to 4317
  220.5843   51.3137   27.4897 H   0  0  0  0  0  0  0  0  0  0  0  0  # atno 4343 bound_to 4322
  221.2861   48.5459   28.4778 H   0  0  0  0  0  0  0  0  0  0  0  0  # atno 6681 bound_to 6660
  222.9445   43.2585   21.5067 H   0  0  0  0  0  0  0  0  0  0  0  0  # atno 6906 bound_to 6885
  232.7218   45.9243   32.6673 H   0  0  0  0  0  0  0  0  0  0  0  0  # atno 23749 bound_to 23701
  230.9951   45.4302   34.6239 H   0  0  0  0  0  0  0  0  0  0  0  0  # atno 23797 bound_to 23783
  231.3506   42.1835   34.9580 H   0  0  0  0  0  0  0  0  0  0  0  0  # atno 23825 bound_to 23811
  219.9596   39.2311   30.3909 H   0  0  0  0  0  0  0  0  0  0  0  0  # atno 25737 bound_to 25709
  219.6970   50.9181   30.2263 LP  0  0  0  0  0  0  0  0  0  0  0  0  # atno 27193 bound_to 4046
  220.5399   49.4368   30.5351 LP  0  0  0  0  0  0  0  0  0  0  0  0  # atno 27194 bound_to 4046
  221.9710   51.1044   33.7412 LP  0  0  0  0  0  0  0  0  0  0  0  0  # atno 27195 bound_to 4278
  221.1023   51.1576   35.1229 LP  0  0  0  0  0  0  0  0  0  0  0  0  # atno 27196 bound_to 4278
  220.9364   53.1484   30.9774 LP  0  0  0  0  0  0  0  0  0  0  0  0  # atno 27197 bound_to 4317
  221.9351   51.5514   26.6149 LP  0  0  0  0  0  0  0  0  0  0  0  0  # atno 27198 bound_to 4322
  221.3686   52.7356   27.5860 LP  0  0  0  0  0  0  0  0  0  0  0  0  # atno 27199 bound_to 4322
  221.9430   47.1616   27.9293 LP  0  0  0  0  0  0  0  0  0  0  0  0  # atno 27200 bound_to 6660
  220.3865   47.1908   28.4222 LP  0  0  0  0  0  0  0  0  0  0  0  0  # atno 27201 bound_to 6660
  230.9199   49.3425   32.1641 LP  0  0  0  0  0  0  0  0  0  0  0  0  # atno 27207 bound_to 23650
  230.6616   48.4647   33.6347 LP  0  0  0  0  0  0  0  0  0  0  0  0  # atno 27208 bound_to 23650
  231.9694   47.4313   32.2037 LP  0  0  0  0  0  0  0  0  0  0  0  0  # atno 27209 bound_to 23701
  229.2508   44.4074   35.4125 LP  0  0  0  0  0  0  0  0  0  0  0  0  # atno 27210 bound_to 23704
  228.6360   44.4959   33.7957 LP  0  0  0  0  0  0  0  0  0  0  0  0  # atno 27211 bound_to 23704
  232.2647   44.5135   33.8462 LP  0  0  0  0  0  0  0  0  0  0  0  0  # atno 27212 bound_to 23783
  218.7018   41.6191   29.6892 LP  0  0  0  0  0  0  0  0  0  0  0  0  # atno 27213 bound_to 25712
  220.3672   41.3508   29.2962 LP  0  0  0  0  0  0  0  0  0  0  0  0  # atno 27214 bound_to 25712
  218.4579   49.1378   29.9833 LP  0  0  0  0  0  0  0  0  0  0  0  0  # atno 27215 bound_to 4117
  222.5714   44.7681   22.2928 LP  0  0  0  0  0  0  0  0  0  0  0  0  # atno 27216 bound_to 6885
  224.5954   41.1182   24.3849 LP  0  0  0  0  0  0  0  0  0  0  0  0  # atno 27217 bound_to 6888
  223.1778   40.3870   25.0600 LP  0  0  0  0  0  0  0  0  0  0  0  0  # atno 27218 bound_to 6888
  224.9507   39.4723   37.0881 LP  0  0  0  0  0  0  0  0  0  0  0  0  # atno 27219 bound_to 1308
  225.3326   40.2801   35.6044 LP  0  0  0  0  0  0  0  0  0  0  0  0  # atno 27220 bound_to 1308
  229.3968   41.8360   37.6616 LP  0  0  0  0  0  0  0  0  0  0  0  0  # atno 27221 bound_to 1305
  223.6366   38.7860   38.0083 LP  0  0  0  0  0  0  0  0  0  0  0  0  # atno 27222 bound_to 1527
  219.4711   38.9245   36.5198 LP  0  0  0  0  0  0  0  0  0  0  0  0  # atno 27223 bound_to 1530
  220.2632   40.0512   35.4696 LP  0  0  0  0  0  0  0  0  0  0  0  0  # atno 27224 bound_to 1530
  215.3973   46.9171   32.1472 LP  0  0  0  0  0  0  0  0  0  0  0  0  # atno 27225 bound_to 3782
  216.3122   45.5057   32.5608 LP  0  0  0  0  0  0  0  0  0  0  0  0  # atno 27226 bound_to 3782
  217.4675   50.9951   33.6011 LP  0  0  0  0  0  0  0  0  0  0  0  0  # atno 27227 bound_to 3996
  217.7460   50.9714   31.8917 LP  0  0  0  0  0  0  0  0  0  0  0  0  # atno 27228 bound_to 3996
  216.2296   48.8895   31.4535 LP  0  0  0  0  0  0  0  0  0  0  0  0  # atno 27229 bound_to 4043
  220.3532   37.7258   29.5947 LP  0  0  0  0  0  0  0  0  0  0  0  0  # atno 27230 bound_to 25709
  221.9456   38.8692   36.3729 LP  0  0  0  0  0  0  0  0  0  0  0  0  # atno 27232 bound_to 1609

> <Gold.Score>
     Fitness  S(hb_ext) S(vdw_ext)  S(hb_int)    S(int)      intcor
     32.61       1.80      22.50       0.00      -0.13      -0.76

> <Gold.Goldscore.Fitness>
32.6083

> <Gold.Goldscore.Internal.Vdw>
-0.3213

> <Gold.Goldscore.Internal.Torsion>
-0.5686

> <Gold.Goldscore.External.Vdw>
22.5019

> <Gold.Goldscore.Internal.HBond>
0.0000

> <Gold.Goldscore.External.HBond>
1.7996

> <Gold.Goldscore.Internal.Correction>
-0.7585

> <Gold.Goldscore.Hbonds>
donor molecule, donor type, donor heavy atom, donor atom, acceptor molecule, acceptor atom, score
      P1  H 23708 23757       L1    17  0.02
      L1  H    10    23       P1  6894  0.28

> <Gold.Goldscore.Internal.Vdw.Weighted>
-0.3213

> <Gold.Goldscore.Internal.Torsion.Weighted>
-0.5686

> <Gold.Goldscore.External.Vdw.Weighted>
30.9401

> <Gold.Goldscore.Internal.HBond.Weighted>
0.0000

> <Gold.Goldscore.External.HBond.Weighted>
1.7996

> <Gold.Goldscore.Internal.Correction.Weighted>
-0.7585

> <Gold.Rescore>
     Score     S(PLP)   S(hbond)     S(cho)   S(metal)  DE(clash)   DE(tors)     intcor
     37.20     -34.63       1.00       0.00       0.00       0.00       0.21       ----

> <Gold.PLP.Fitness>
37.2047

> <Gold.PLP.PLP>
-34.6295

> <Gold.PLP.part.hbond>
-4.5523

> <Gold.PLP.part.metal>
0.0000

> <Gold.PLP.part.buried>
-5.7748

> <Gold.PLP.part.nonpolar>
-25.6972

> <Gold.PLP.part.repulsive>
0.3812

> <Gold.PLP.ligand.clash>
0.0000

> <Gold.PLP.ligand.torsion>
0.2124

> <Gold.PLP.Chemscore.Hbond>
1.0000

> <Gold.PLP.Chemscore.CHOScore>
0.0000

> <Gold.PLP.Chemscore.Metal>
0.0000

> <Gold.Chemscore.Hbonds>
donor molecule, donor type, donor heavy atom, donor atom, acceptor molecule, acceptor atom, score
      P1  H 23708 23757       L1    17  0.17

> <Gold.PLP.Chemscore.Internal.Correction>
   9.000000E+99

