#       Name:                CT1002167954
#       Creating user name   hitesit
#       Creation time:       Sun Apr 16 20:29:12 2023


#       File generated by GOLD software.
#

@<TRIPOS>MOLECULE
CT1002167954|ligand_prepared|mol2|1|dock1
    29    30     1
SMALL
NO_CHARGES


@<TRIPOS>ATOM
      1 C1         222.6774  45.0701  32.3198 C.3            1 RES1               0.0000
      2 C2         221.5590  44.0088  32.3595 C.ar           1 RES1               0.0000
      3 C3         222.7154  45.5991  30.8891 C.2            1 RES1               0.0000
      4 C4         222.3066  46.1198  33.3616 C.2            1 RES1               0.0000
      5 C5         224.0768  44.5168  32.6762 C.3            1 RES1               0.0000
      6 C6         221.7714  42.7358  31.8388 C.ar           1 RES1               0.0000
      7 C7         220.3129  44.2865  32.9151 C.ar           1 RES1               0.0000
      8 N8         222.2146  46.8474  30.6636 N.am           1 RES1               0.0000
      9 O9         223.1420  44.9160  29.9663 O.2            1 RES1               0.0000
     10 N10        222.0013  47.3811  32.9218 N.am           1 RES1               0.0000
     11 O11        222.2598  45.8615  34.5581 O.2            1 RES1               0.0000
     12 C12        225.1230  45.5963  32.9048 C.3            1 RES1               0.0000
     13 C13        220.7751  41.7743  31.8747 C.ar           1 RES1               0.0000
     14 C14        219.3179  43.3236  32.9498 C.ar           1 RES1               0.0000
     15 C15        221.9087  47.7845  31.6176 C.2            1 RES1               0.0000
     16 C16        219.5480  42.0673  32.4306 C.ar           1 RES1               0.0000
     17 O17        221.5751  48.9224  31.2997 O.2            1 RES1               0.0000
     18 H18        223.9946  43.9068  33.5843 H              1 RES1               0.0000
     19 H19        224.4158  43.8633  31.8629 H              1 RES1               0.0000
     20 H20        222.7298  42.4876  31.3951 H              1 RES1               0.0000
     21 H21        220.1091  45.2684  33.3286 H              1 RES1               0.0000
     22 H22        222.0525  47.1083  29.6961 H              1 RES1               0.0000
     23 H23        221.8272  48.0847  33.6324 H              1 RES1               0.0000
     24 H24        226.0860  45.1541  33.1516 H              1 RES1               0.0000
     25 H25        225.2489  46.2065  32.0129 H              1 RES1               0.0000
     26 H26        224.8302  46.2498  33.7240 H              1 RES1               0.0000
     27 H27        220.9608  40.7876  31.4635 H              1 RES1               0.0000
     28 H28        218.3534  43.5588  33.3877 H              1 RES1               0.0000
     29 H29        218.7678  41.3138  32.4590 H              1 RES1               0.0000
@<TRIPOS>BOND
    1    1    2 1     
    2    1    3 1     
    3    1    4 1     
    4    1    5 1     
    5    2    6 ar    
    6    2    7 ar    
    7    3    8 1     
    8    3    9 2     
    9    4   10 1     
   10    4   11 2     
   11    5   12 1     
   12    5   18 1     
   13    5   19 1     
   14    6   13 ar    
   15    6   20 1     
   16    7   14 ar    
   17    7   21 1     
   18    8   15 1     
   19    8   22 1     
   20   10   15 1     
   21   10   23 1     
   22   12   24 1     
   23   12   25 1     
   24   12   26 1     
   25   13   16 ar    
   26   13   27 1     
   27   14   16 ar    
   28   14   28 1     
   29   15   17 2     
   30   16   29 1     
@<TRIPOS>SUBSTRUCTURE
      1 RES1           1
@<TRIPOS>SET
DONOR_HYDROGENS      STATIC     ATOMS    <user>   **** ""
2 22 23
ATOM$RED        STATIC     ATOMS    COLORGROUP SYSTEM
2 22 23
@<TRIPOS>COMMENT
> <Gold.Version>
2022.3.0

> <Gold.Id.Protein>
unknown|4d1n_clean|pdb

> <Gold.Protein.RotatedTorsions>
[ 1577 1535 1534 1533 ] final    2.21 input   60.00 | X-H torsion
[ 4299 4278 4277 4274 ] final -117.39 input   59.99 | X-H torsion
[ 4339 4317 4318 4319 ] final  140.01 input  114.03 | X-H torsion
[ 4343 4322 4321 4318 ] final -137.41 input   59.99 | X-H torsion
[ 6681 6660 6659 6657 ] final -121.02 input   60.02 | X-H torsion
[ 23749 23701 23702 23703 ] final  111.02 input   59.44 | X-H torsion
[ 23797 23783 23784 23785 ] final  -55.37 input  -92.48 | X-H torsion
[ 4155 4117 4118 4119 ] final   83.82 input  119.10 | X-H torsion
[ 6906 6885 6886 6887 ] final   61.85 input  108.16 | X-H torsion
[ 1337 1305 1306 1307 ] final   -0.74 input  118.39 | X-H torsion
[ 1567 1527 1528 1529 ] final -148.94 input   90.05 | X-H torsion
[ 4077 4043 4044 4045 ] final   -7.51 input  116.01 | X-H torsion
[ 25737 25709 25710 25711 ] final  106.31 input   60.94 | X-H torsion
[ 1631 1609 1610 1611 ] final -166.77 input  112.52 | X-H torsion
[ 1281 1253 1251 1248 ] final   43.78 input   60.01 | X-H torsion
[ 23825 23811 23812 23813 ] final  -84.42 input  -23.57 | X-H torsion
[ 27193 4046 4045 4044 ] final  103.48 input   -0.00 | X-H torsion
[ 27207 23650 23649 23648 ] final  161.85 input    0.00 | X-H torsion
[ 27210 23704 23703 23702 ] final  -15.06 input    0.00 | X-H torsion
[ 27213 25712 25711 25710 ] final   13.90 input    0.00 | X-H torsion
[ 27217 6888 6887 6886 ] final  -68.90 input    0.00 | X-H torsion
[ 27219 1308 1307 1306 ] final  171.96 input    0.00 | X-H torsion
[ 27223 1530 1529 1528 ] final  -52.78 input   -0.00 | X-H torsion
[ 27225 3782 3781 3780 ] final   34.53 input    0.00 | X-H torsion
[ 27227 3996 3995 3994 ] final   80.88 input   -0.00 | X-H torsion

> <Gold.Protein.ActiveResidues>
 THR320  LEU321  LYS324  SER325  GLU365  PHE366  ASP368  GLN369  TYR370  SER372 
 SER373  TYR408  HIS412  ARG415  ASN416  TRP426  GLU670  CYS673  ARG674  GLY675 
 GLY676  TYR703  LEU705  THR706  PRO707 

> <Gold.Protein.RotatedAtoms>
  229.4108   43.0870   38.2305 H   0  0  0  0  0  0  0  0  0  0  0  0  # atno 1281 bound_to 1253
  228.9617   40.2341   38.1621 H   0  0  0  0  0  0  0  0  0  0  0  0  # atno 1337 bound_to 1305
  223.5862   40.1334   39.0897 H   0  0  0  0  0  0  0  0  0  0  0  0  # atno 1567 bound_to 1527
  225.6578   44.8755   36.1301 H   0  0  0  0  0  0  0  0  0  0  0  0  # atno 1577 bound_to 1535
  225.2929   46.3444   36.8055 H   0  0  0  0  0  0  0  0  0  0  0  0  # atno 1578 bound_to 1535
  226.1104   45.2061   37.6904 H   0  0  0  0  0  0  0  0  0  0  0  0  # atno 1579 bound_to 1535
  222.7158   38.4567   36.3635 H   0  0  0  0  0  0  0  0  0  0  0  0  # atno 1631 bound_to 1609
  216.3265   49.2377   31.7003 H   0  0  0  0  0  0  0  0  0  0  0  0  # atno 4077 bound_to 4043
  216.7417   49.3566   29.8716 H   0  0  0  0  0  0  0  0  0  0  0  0  # atno 4155 bound_to 4117
  221.8031   50.8133   33.9872 H   0  0  0  0  0  0  0  0  0  0  0  0  # atno 4299 bound_to 4278
  220.6705   51.4821   30.6040 H   0  0  0  0  0  0  0  0  0  0  0  0  # atno 4339 bound_to 4317
  220.8351   51.0516   27.1835 H   0  0  0  0  0  0  0  0  0  0  0  0  # atno 4343 bound_to 4322
  221.0461   48.5176   28.5456 H   0  0  0  0  0  0  0  0  0  0  0  0  # atno 6681 bound_to 6660
  221.9306   43.7340   21.9030 H   0  0  0  0  0  0  0  0  0  0  0  0  # atno 6906 bound_to 6885
  232.4271   46.1688   31.7229 H   0  0  0  0  0  0  0  0  0  0  0  0  # atno 23749 bound_to 23701
  232.3766   44.5900   33.9171 H   0  0  0  0  0  0  0  0  0  0  0  0  # atno 23797 bound_to 23783
  232.7445   42.5300   34.0504 H   0  0  0  0  0  0  0  0  0  0  0  0  # atno 23825 bound_to 23811
  219.4896   38.4244   30.5644 H   0  0  0  0  0  0  0  0  0  0  0  0  # atno 25737 bound_to 25709
  220.4132   49.6268   29.7807 LP  0  0  0  0  0  0  0  0  0  0  0  0  # atno 27193 bound_to 4046
  219.8237   50.7280   30.9807 LP  0  0  0  0  0  0  0  0  0  0  0  0  # atno 27194 bound_to 4046
  221.0537   51.5607   35.2229 LP  0  0  0  0  0  0  0  0  0  0  0  0  # atno 27195 bound_to 4278
  221.8100   52.4381   34.0718 LP  0  0  0  0  0  0  0  0  0  0  0  0  # atno 27196 bound_to 4278
  221.0998   53.0791   31.1729 LP  0  0  0  0  0  0  0  0  0  0  0  0  # atno 27197 bound_to 4317
  222.0767   51.9957   26.7214 LP  0  0  0  0  0  0  0  0  0  0  0  0  # atno 27198 bound_to 4322
  220.9742   52.5554   27.7881 LP  0  0  0  0  0  0  0  0  0  0  0  0  # atno 27199 bound_to 4322
  222.0547   47.3873   27.9508 LP  0  0  0  0  0  0  0  0  0  0  0  0  # atno 27200 bound_to 6660
  220.5165   46.9935   28.3324 LP  0  0  0  0  0  0  0  0  0  0  0  0  # atno 27201 bound_to 6660
  230.2059   48.2745   32.7893 LP  0  0  0  0  0  0  0  0  0  0  0  0  # atno 27207 bound_to 23650
  231.3756   49.5327   33.0095 LP  0  0  0  0  0  0  0  0  0  0  0  0  # atno 27208 bound_to 23650
  232.2580   47.1918   33.1289 LP  0  0  0  0  0  0  0  0  0  0  0  0  # atno 27209 bound_to 23701
  228.5477   45.0330   34.0986 LP  0  0  0  0  0  0  0  0  0  0  0  0  # atno 27210 bound_to 23704
  229.3391   43.8703   35.1096 LP  0  0  0  0  0  0  0  0  0  0  0  0  # atno 27211 bound_to 23704
  230.9189   45.3319   34.5347 LP  0  0  0  0  0  0  0  0  0  0  0  0  # atno 27212 bound_to 23783
  219.7576   40.8143   29.9931 LP  0  0  0  0  0  0  0  0  0  0  0  0  # atno 27213 bound_to 25712
  219.3114   42.1557   28.9923 LP  0  0  0  0  0  0  0  0  0  0  0  0  # atno 27214 bound_to 25712
  218.4473   48.9808   29.8430 LP  0  0  0  0  0  0  0  0  0  0  0  0  # atno 27215 bound_to 4117
  223.5802   44.2950   21.8984 LP  0  0  0  0  0  0  0  0  0  0  0  0  # atno 27216 bound_to 6885
  224.5794   40.9413   24.2384 LP  0  0  0  0  0  0  0  0  0  0  0  0  # atno 27217 bound_to 6888
  223.1937   40.5639   25.2065 LP  0  0  0  0  0  0  0  0  0  0  0  0  # atno 27218 bound_to 6888
  225.0598   39.0181   36.4296 LP  0  0  0  0  0  0  0  0  0  0  0  0  # atno 27219 bound_to 1308
  225.2235   40.7343   36.2629 LP  0  0  0  0  0  0  0  0  0  0  0  0  # atno 27220 bound_to 1308
  229.5434   41.7426   37.4877 LP  0  0  0  0  0  0  0  0  0  0  0  0  # atno 27221 bound_to 1305
  223.7898   38.9163   37.8524 LP  0  0  0  0  0  0  0  0  0  0  0  0  # atno 27222 bound_to 1527
  219.5637   39.8083   36.7398 LP  0  0  0  0  0  0  0  0  0  0  0  0  # atno 27223 bound_to 1530
  220.1706   39.1674   35.2496 LP  0  0  0  0  0  0  0  0  0  0  0  0  # atno 27224 bound_to 1530
  216.0706   45.7613   33.0617 LP  0  0  0  0  0  0  0  0  0  0  0  0  # atno 27225 bound_to 3782
  215.6389   46.6616   31.6464 LP  0  0  0  0  0  0  0  0  0  0  0  0  # atno 27226 bound_to 3782
  217.7371   50.7813   33.5784 LP  0  0  0  0  0  0  0  0  0  0  0  0  # atno 27227 bound_to 3996
  217.4765   51.1852   31.9144 LP  0  0  0  0  0  0  0  0  0  0  0  0  # atno 27228 bound_to 3996
  216.5647   47.8573   32.7371 LP  0  0  0  0  0  0  0  0  0  0  0  0  # atno 27229 bound_to 4043
  220.8122   38.5137   29.4253 LP  0  0  0  0  0  0  0  0  0  0  0  0  # atno 27230 bound_to 25709
  221.5419   38.1597   37.6245 LP  0  0  0  0  0  0  0  0  0  0  0  0  # atno 27232 bound_to 1609

> <Gold.Score>
     Fitness  S(hb_ext) S(vdw_ext)  S(hb_int)    S(int)      intcor
     41.91       6.41      26.63       0.00      -1.13      -0.76

> <Gold.Goldscore.Fitness>
41.9103

> <Gold.Goldscore.Internal.Vdw>
-1.3200

> <Gold.Goldscore.Internal.Torsion>
-0.5643

> <Gold.Goldscore.External.Vdw>
26.6349

> <Gold.Goldscore.Internal.HBond>
0.0000

> <Gold.Goldscore.External.HBond>
6.4131

> <Gold.Goldscore.Internal.Correction>
-0.7585

> <Gold.Goldscore.Hbonds>
donor molecule, donor type, donor heavy atom, donor atom, acceptor molecule, acceptor atom, score
      P1  H 23711 23761       L1     9  1.00
      L1  H     8    22       P1  6660  0.21

> <Gold.Goldscore.Internal.Vdw.Weighted>
-1.3200

> <Gold.Goldscore.Internal.Torsion.Weighted>
-0.5643

> <Gold.Goldscore.External.Vdw.Weighted>
36.6230

> <Gold.Goldscore.Internal.HBond.Weighted>
0.0000

> <Gold.Goldscore.External.HBond.Weighted>
6.4131

> <Gold.Goldscore.Internal.Correction.Weighted>
-0.7585

> <Gold.Rescore>
     Score     S(PLP)   S(hbond)     S(cho)   S(metal)  DE(clash)   DE(tors)     intcor
     36.01     -32.45       1.78       0.00       0.00       1.34       0.22       ----

> <Gold.PLP.Fitness>
36.0083

> <Gold.PLP.PLP>
-32.4519

> <Gold.PLP.part.hbond>
-3.4646

> <Gold.PLP.part.metal>
0.0000

> <Gold.PLP.part.buried>
-6.0477

> <Gold.PLP.part.nonpolar>
-28.0692

> <Gold.PLP.part.repulsive>
4.1581

> <Gold.PLP.ligand.clash>
1.3375

> <Gold.PLP.ligand.torsion>
0.2167

> <Gold.PLP.Chemscore.Hbond>
1.7758

> <Gold.PLP.Chemscore.CHOScore>
0.0000

> <Gold.PLP.Chemscore.Metal>
0.0000

> <Gold.Chemscore.Hbonds>
donor molecule, donor type, donor heavy atom, donor atom, acceptor molecule, acceptor atom, score
      P1  H 23711 23761       L1     9  1.00

> <Gold.PLP.Chemscore.Internal.Correction>
   9.000000E+99

