@<TRIPOS>MOLECULE
F:ID
    27    28     1     0     1
SMALL
NO_CHARGES
****
Generated from the CSD

@<TRIPOS>ATOM
     1 CAA    -43.8770 -41.3250   1.9190   C.ar      1 7L9201   0.0000
     2 CAB    -42.7920 -40.9000   1.1440   C.ar      1 7L9201   0.0000
     3 CAC    -41.4850 -40.8920   1.6540   C.ar      1 7L9201   0.0000
     4 CAD    -41.2800 -41.2540   2.9800   C.ar      1 7L9201   0.0000
     5 CAE    -42.3420 -41.7020   3.7570   C.ar      1 7L9201   0.0000
     6 CAF    -43.6210 -41.6540   3.2430   C.ar      1 7L9201   0.0000
     7 CAG    -42.1050 -42.1120   5.1000   C.ar      1 7L9201   0.0000
     8 CAJ    -40.4050 -40.3920   0.8070   C.ar      1 7L9201   0.0000
     9 CAK    -39.4570 -39.4980   1.3770   C.ar      1 7L9201   0.0000
    10 CAL    -38.4710 -38.8890   0.6430   C.ar      1 7L9201   0.0000
    11 CAN    -39.2870 -39.9360  -1.3120   C.ar      1 7L9201   0.0000
    12 CAO    -40.2850 -40.6430  -0.5560   C.ar      1 7L9201   0.0000
    13 CAP    -41.0260 -41.5900  -1.2860   C.ar      1 7L9201   0.0000
    14 CAS    -37.4830 -38.0350   1.2740   C.ar      1 7L9201   0.0000
    15 NAM    -38.4060 -39.0770  -0.7050   N.ar      1 7L9201   0.0000
    16 OAH    -40.8750 -42.3480   5.4910   O.co2     1 7L9201   0.0000
    17 OAI    -43.0290 -42.4350   5.9110   O.co2     1 7L9201   0.0000
    18 OAQ    -41.5000 -41.4220  -2.3900   O.co2     1 7L9201   0.0000
    19 OAR    -41.1210 -42.7270  -0.7720   O.co2     1 7L9201   0.0000
    20 OAT    -36.6720 -37.4010   0.5760   O.co2     1 7L9201   0.0000
    21 OAU    -37.2370 -38.0660   2.5030   O.co2     1 7L9201   0.0000
    22 H1     -44.8801 -41.3947   1.5009   H         1 7L9201   0.0000
    23 H2     -42.9662 -40.5679   0.1216   H         1 7L9201   0.0000
    24 H3     -40.2828 -41.1864   3.4123   H         1 7L9201   0.0000
    25 H4     -39.2292 -40.0855  -2.3891   H         1 7L9201   0.0000
    26 H5     -44.4597 -41.8823   3.8991   H         1 7L9201   0.0000
    27 H6     -39.5165 -39.2875   2.4438   H         1 7L9201   0.0000
@<TRIPOS>BOND
     1     1     2   ar
     2     2     3   ar
     3     3     4   ar
     4     4     5   ar
     5     1     6   ar
     6     5     6   ar
     7     5     7    1
     8     3     8    1
     9     8     9   ar
    10     9    10   ar
    11     8    12   ar
    12    11    12   ar
    13    12    13    1
    14    10    14    1
    15    10    15   ar
    16    11    15   ar
    17     7    16   ar
    18     7    17   ar
    19    13    18   ar
    20    13    19   ar
    21    14    20   ar
    22    14    21   ar
    23     1    22    1
    24     2    23    1
    25     4    24    1
    26    11    25    1
    27     6    26    1
    28     9    27    1
@<TRIPOS>SUBSTRUCTURE
     1 7L9201      1 GROUP             0 F     7L9     0  
@<TRIPOS>SET
CCDC_LIGAND STATIC ATOMS
27 1 2 3 4 5 6 7 8 9 \
10 11 12 13 14 15 16 17 18 19 \
20 21 22 23 24 25 26 27 
