#       Name:                F:ID
#       Creating user name   hitesit
#       Creation time:       Thu Mar  2 16:48:40 2023


#       File generated by GOLD software.
#

@<TRIPOS>MOLECULE
F:ID|prep_cristal|mol2|1|dock1
    40    41     1
SMALL
NO_CHARGES


@<TRIPOS>ATOM
      1 CAA        -44.5553 -41.0009   1.2950 C.ar           1 7L9201             0.0000
      2 CAB        -43.3373 -40.6948   0.7113 C.ar           1 7L9201             0.0000
      3 CAC        -42.1483 -40.8688   1.4145 C.ar           1 7L9201             0.0000
      4 CAD        -42.2159 -41.3528   2.7198 C.ar           1 7L9201             0.0000
      5 CAE        -43.4332 -41.6655   3.3215 C.ar           1 7L9201             0.0000
      6 CAF        -44.6036 -41.4839   2.5919 C.ar           1 7L9201             0.0000
      7 CAG        -43.4811 -42.1916   4.7391 C.2            1 7L9201             0.0000
      8 CAJ        -40.8250 -40.5390   0.8098 C.ar           1 7L9201             0.0000
      9 CAK        -39.8068 -40.1730   1.6893 C.ar           1 7L9201             0.0000
     10 CAL        -38.5649 -39.7836   1.2036 C.ar           1 7L9201             0.0000
     11 CAN        -39.2603 -40.1245  -0.9520 C.ar           1 7L9201             0.0000
     12 CAO        -40.5265 -40.5628  -0.5700 C.ar           1 7L9201             0.0000
     13 CAP        -41.4972 -41.0399  -1.6310 C.2            1 7L9201             0.0000
     14 CAS        -37.4491 -39.3915   2.1471 C.2            1 7L9201             0.0000
     15 NAM        -38.2976 -39.7343  -0.1114 N.ar           1 7L9201             0.0000
     16 OAH        -42.3348 -42.3650   5.4348 O.co2          1 7L9201             0.0000
     17 OAI        -44.6701 -42.4883   5.3102 O.co2          1 7L9201             0.0000
     18 OAQ        -42.5708 -40.2786  -1.9401 O.co2          1 7L9201             0.0000
     19 OAR        -41.3014 -42.2086  -2.2824 O.co2          1 7L9201             0.0000
     20 OAT        -37.3082 -40.0308   3.3301 O.co2          1 7L9201             0.0000
     21 OAU        -36.5930 -38.4018   1.8072 O.co2          1 7L9201             0.0000
     22 H1         -45.4740 -40.8620   0.7348 H              1 7L9201             0.0000
     23 H2         -43.3094 -40.3154  -0.3049 H              1 7L9201             0.0000
     24 H3         -41.2976 -41.4896   3.2813 H              1 7L9201             0.0000
     25 H4         -39.0374 -40.1020  -2.0136 H              1 7L9201             0.0000
     26 H5         -45.5615 -41.7222   3.0424 H              1 7L9201             0.0000
     27 H6         -39.9867 -40.1886   2.7591 H              1 7L9201             0.0000
     28 ****       -37.4113 -39.4173  -0.4490 LP             1 7L9201             0.0000
     29 ****       -42.3664 -42.7127   6.3719 LP             1 7L9201             0.0000
     30 ****       -41.4554 -42.1455   5.0124 LP             1 7L9201             0.0000
     31 ****       -44.7017 -42.8361   6.2473 LP             1 7L9201             0.0000
     32 ****       -45.5179 -42.3601   4.7956 LP             1 7L9201             0.0000
     33 ****       -43.2121 -40.5814  -2.6452 LP             1 7L9201             0.0000
     34 ****       -42.7237 -39.4128  -1.4636 LP             1 7L9201             0.0000
     35 ****       -41.9480 -42.5032  -2.9860 LP             1 7L9201             0.0000
     36 ****       -40.5101 -42.7783  -2.0604 LP             1 7L9201             0.0000
     37 ****       -36.5707 -39.7716   3.9538 LP             1 7L9201             0.0000
     38 ****       -37.9415 -40.7628   3.5814 LP             1 7L9201             0.0000
     39 ****       -35.8555 -38.1426   2.4309 LP             1 7L9201             0.0000
     40 ****       -36.6973 -37.9290   0.9323 LP             1 7L9201             0.0000
@<TRIPOS>BOND
    1    1    2 ar    
    2    2    3 ar    
    3    3    4 ar    
    4    4    5 ar    
    5    1    6 ar    
    6    5    6 ar    
    7    5    7 1     
    8    3    8 1     
    9    8    9 ar    
   10    9   10 ar    
   11    8   12 ar    
   12   11   12 ar    
   13   12   13 1     
   14   10   14 1     
   15   10   15 ar    
   16   11   15 ar    
   17    7   16 ar    
   18    7   17 ar    
   19   13   18 ar    
   20   13   19 ar    
   21   14   20 ar    
   22   14   21 ar    
   23    1   22 1     
   24    2   23 1     
   25    4   24 1     
   26   11   25 1     
   27    6   26 1     
   28    9   27 1     
   29   15   28 1     
   30   16   29 1     
   31   16   30 1     
   32   17   31 1     
   33   17   32 1     
   34   18   33 1     
   35   18   34 1     
   36   19   35 1     
   37   19   36 1     
   38   20   37 1     
   39   20   38 1     
   40   21   39 1     
   41   21   40 1     
@<TRIPOS>SUBSTRUCTURE
      1 7L9201         1
@<TRIPOS>SET
LONE_PAIRS      STATIC     ATOMS    <user>   **** ""
13 28 29 30 31 32 33 34 35 36 37 38 39 40
ATOM$BLUE        STATIC     ATOMS    COLORGROUP SYSTEM
13 28 29 30 31 32 33 34 35 36 37 38 39 40
@<TRIPOS>COMMENT
> <Gold.Version>
2022.3.0

> <Gold.Id.Protein>
unknown|6c5f_clean|pdb

> <Gold.Protein.ActiveResidues>
 LEU49   SER50   GLN58   ILE95   LEU96   ILE97   ARG98   PRO1    PHE2    LEU3   
 LEU30   LYS32   PRO33   ASP35   ARG36   VAL37   ASN38   ILE61   SER62   SER63  
 ILE64   GLY65   VAL66   VAL67   PHE100  LEU102  GLU103  SER104  TRP105  GLN106 
 ILE107  GLY108  LYS109  ILE110  THR112  VAL113  PRO1    GLN58   PHE2    LEU96  
 LEU30   LYS32   PRO33   PHE2    PRO1    PRO101  LEU102  GLU103  VAL37   ASN38  
 LEU49   SER50   ILE61   SER62   SER63   ILE64   ILE64   GLY65   VAL66   VAL67  
 PRO33   ARG36   VAL37   PRO1    SER104  TRP105  GLN106  ILE107  GLY108  LYS109 
 ILE110  PRO1    PHE2    LEU3    ILE110  VAL113  LEU96   ILE97   ARG98   PHE2   
 PRO1   

> <Gold.Score>
     Score     S(PLP)   S(hbond)     S(cho)   S(metal)  DE(clash)   DE(tors)     intcor
     37.51     -37.05       0.00       1.00       0.00       0.05       2.17       1.85

> <Gold.PLP.Fitness>
37.5125

> <Gold.PLP.PLP>
-37.0481

> <Gold.PLP.part.hbond>
0.0000

> <Gold.PLP.part.metal>
0.0000

> <Gold.PLP.part.buried>
-7.9873

> <Gold.PLP.part.nonpolar>
-31.5096

> <Gold.PLP.part.repulsive>
2.2930

> <Gold.PLP.ligand.clash>
0.0460

> <Gold.PLP.ligand.torsion>
2.1711

> <Gold.PLP.Chemscore.Hbond>
0.0000

> <Gold.PLP.Chemscore.CHOScore>
1.0000

> <Gold.PLP.Chemscore.Metal>
0.0000

> <Gold.Chemscore.Hbonds>
donor molecule, donor type, donor heavy atom, donor atom, acceptor molecule, acceptor atom, score
      L1  C    11    25       P1  1923  1.00

> <Gold.PLP.Chemscore.Internal.Correction>
1.8526

> <Gold.PLP.Reference.RMSD>
1.2257

> <Gold.Rescore>
     Score         DG    S(hbond)    S(metal)    S(lipo)     H(rot)  DE(clash)    DE(int)     intcor
     14.44     -18.86       0.00        0.00     114.34       0.00       0.16       4.25       ----

> <Gold.Chemscore.Fitness>
14.4448

> <Gold.Chemscore.DG>
-18.8583

> <Gold.Chemscore.ZeroCoef>
-5.4800

> <Gold.Chemscore.Hbond>
0.0000

> <Gold.Chemscore.Metal>
0.0000

> <Gold.Chemscore.Lipo>
114.3444

> <Gold.Chemscore.Internal_Hbond>
0.0000

> <Gold.Chemscore.DEClash>
0.1611

> <Gold.Chemscore.DEInternal>
4.2524

> <Gold.Chemscore.Rot>
0.0000

> <Gold.Chemscore.Internal.Correction>
   9.000000E+99

> <Gold.Chemscore.Reference.RMSD>
0.0000

> <Gold.Chemscore.Hbond.Weighted>
-0.0000

> <Gold.Chemscore.Metal.Weighted>
-0.0000

> <Gold.Chemscore.Lipo.Weighted>
-13.3783

> <Gold.Chemscore.Internal_Hbond.Weighted>
0.0000

> <Gold.Chemscore.DEClash.Weighted>
0.1611

> <Gold.Chemscore.DEInternal.Weighted>
4.2524

> <Gold.Chemscore.Rot.Weighted>
0.0000

> <Gold.Chemscore.Internal.Correction.Weighted>
   9.000000E+99

> <Gold.Reference.RMSD>
1.2257

