#       Name:                F:ID
#       Creating user name   hitesit
#       Creation time:       Mon Feb 27 15:35:08 2023


#       File generated by GOLD software.
#

@<TRIPOS>MOLECULE
F:ID
    40    41     1
SMALL
NO_CHARGES


@<TRIPOS>ATOM
      1 CAA         -2.9929  -0.6524   0.4824 C.ar           1 7L9201             0.0000
      2 CAB         -1.9656  -0.2010  -0.3294 C.ar           1 7L9201             0.0000
      3 CAC         -0.6502  -0.1923   0.1271 C.ar           1 7L9201             0.0000
      4 CAD         -0.3955  -0.6436   1.4210 C.ar           1 7L9201             0.0000
      5 CAE         -1.4179  -1.1009   2.2502 C.ar           1 7L9201             0.0000
      6 CAF         -2.7213  -1.1002   1.7642 C.ar           1 7L9201             0.0000
      7 CAG         -1.1165  -1.5879   3.6504 C.2            1 7L9201             0.0000
      8 CAJ          0.4720   0.2960  -0.7258 C.ar           1 7L9201             0.0000
      9 CAK          1.3972   1.1453  -0.1201 C.ar           1 7L9201             0.0000
     10 CAL          2.4326   1.7000  -0.8616 C.ar           1 7L9201             0.0000
     11 CAN          1.7182   0.6082  -2.7441 C.ar           1 7L9201             0.0000
     12 CAO          0.6666  -0.0266  -2.0866 C.ar           1 7L9201             0.0000
     13 CAP         -0.1933  -1.0159  -2.8463 C.2            1 7L9201             0.0000
     14 CAS          3.4476   2.6169  -0.2151 C.2            1 7L9201             0.0000
     15 NAM          2.5806   1.4547  -2.1735 N.ar           1 7L9201             0.0000
     16 OAH          0.1555  -1.5825   4.1089 O.co2          1 7L9201             0.0000
     17 OAI         -2.1190  -2.0286   4.4434 O.co2          1 7L9201             0.0000
     18 OAQ         -0.3848  -0.8477  -4.1741 O.co2          1 7L9201             0.0000
     19 OAR         -0.7630  -2.0709  -2.2212 O.co2          1 7L9201             0.0000
     20 OAT          4.4472   3.1474  -0.9548 O.co2          1 7L9201             0.0000
     21 OAU          3.3549   2.9058   1.1025 O.co2          1 7L9201             0.0000
     22 H1          -3.5312  -1.4530   2.3942 H              1 7L9201             0.0000
     23 H2          -4.0130  -0.6550   0.1130 H              1 7L9201             0.0000
     24 H3          -2.1881   0.1495  -1.3318 H              1 7L9201             0.0000
     25 H4           0.6241  -0.6389   1.7918 H              1 7L9201             0.0000
     26 H5           1.3054   1.3776   0.9358 H              1 7L9201             0.0000
     27 H6           1.8494   0.3959  -3.8000 H              1 7L9201             0.0000
     28 ****         3.3088   1.8891  -2.7036 LP             1 7L9201             0.0000
     29 ****         0.3548  -1.9044   5.0344 LP             1 7L9201             0.0000
     30 ****         0.8970  -1.2566   3.5224 LP             1 7L9201             0.0000
     31 ****        -1.9197  -2.3505   5.3689 LP             1 7L9201             0.0000
     32 ****        -3.0597  -2.0326   4.1043 LP             1 7L9201             0.0000
     33 ****        -0.9437  -1.5005  -4.6853 LP             1 7L9201             0.0000
     34 ****         0.0326  -0.0704  -4.6450 LP             1 7L9201             0.0000
     35 ****        -1.3203  -2.7186  -2.7407 LP             1 7L9201             0.0000
     36 ****        -0.6269  -2.2035  -1.2394 LP             1 7L9201             0.0000
     37 ****         5.1181   3.7535  -0.5275 LP             1 7L9201             0.0000
     38 ****         4.5158   2.9337  -1.9293 LP             1 7L9201             0.0000
     39 ****         4.0258   3.5119   1.5299 LP             1 7L9201             0.0000
     40 ****         2.6156   2.5134   1.6496 LP             1 7L9201             0.0000
@<TRIPOS>BOND
    1    1    2 ar    
    2    2    3 ar    
    3    3    4 ar    
    4    4    5 ar    
    5    1    6 ar    
    6    5    6 ar    
    7    5    7 1     
    8    3    8 1     
    9    8    9 ar    
   10    9   10 ar    
   11    8   12 ar    
   12   11   12 ar    
   13   12   13 1     
   14   10   14 1     
   15   10   15 ar    
   16   11   15 ar    
   17    7   16 ar    
   18    7   17 ar    
   19   13   18 ar    
   20   13   19 ar    
   21   14   20 ar    
   22   14   21 ar    
   23    6   22 1     
   24    1   23 1     
   25    2   24 1     
   26    4   25 1     
   27    9   26 1     
   28   11   27 1     
   29   15   28 1     
   30   16   29 1     
   31   16   30 1     
   32   17   31 1     
   33   17   32 1     
   34   18   33 1     
   35   18   34 1     
   36   19   35 1     
   37   19   36 1     
   38   20   37 1     
   39   20   38 1     
   40   21   39 1     
   41   21   40 1     
@<TRIPOS>SUBSTRUCTURE
      1 7L9201         1
@<TRIPOS>SET
LONE_PAIRS      STATIC     ATOMS    <user>   **** ""
13 28 29 30 31 32 33 34 35 36 37 38 39 40
ATOM$BLUE        STATIC     ATOMS    COLORGROUP SYSTEM
13 28 29 30 31 32 33 34 35 36 37 38 39 40
