#       Name:                F:ID
#       Creating user name   hitesit
#       Creation time:       Mon Feb 27 15:35:22 2023


#       File generated by GOLD software.
#

@<TRIPOS>MOLECULE
F:ID|prep_cristal|mol2|1|dock7
    40    41     1
SMALL
NO_CHARGES


@<TRIPOS>ATOM
      1 CAA        -39.4152 -39.3039  -1.1652 C.ar           1 7L9201             0.0000
      2 CAB        -40.1566 -39.5202  -0.0156 C.ar           1 7L9201             0.0000
      3 CAC        -41.1435 -40.5019   0.0197 C.ar           1 7L9201             0.0000
      4 CAD        -41.3689 -41.2557  -1.1308 C.ar           1 7L9201             0.0000
      5 CAE        -40.6316 -41.0504  -2.2954 C.ar           1 7L9201             0.0000
      6 CAF        -39.6504 -40.0643  -2.2983 C.ar           1 7L9201             0.0000
      7 CAG        -40.8931 -41.8827  -3.5313 C.2            1 7L9201             0.0000
      8 CAJ        -41.9599 -40.7485   1.2436 C.ar           1 7L9201             0.0000
      9 CAK        -43.3449 -40.6749   1.0996 C.ar           1 7L9201             0.0000
     10 CAL        -44.1750 -40.8227   2.2034 C.ar           1 7L9201             0.0000
     11 CAN        -42.3638 -41.1418   3.5687 C.ar           1 7L9201             0.0000
     12 CAO        -41.4458 -41.0426   2.5253 C.ar           1 7L9201             0.0000
     13 CAP        -39.9735 -41.2577   2.8104 C.2            1 7L9201             0.0000
     14 CAS        -45.6795 -40.7526   2.0599 C.2            1 7L9201             0.0000
     15 NAM        -43.6891 -41.0301   3.4379 N.ar           1 7L9201             0.0000
     16 OAH        -40.1734 -41.6680  -4.6556 O.co2          1 7L9201             0.0000
     17 OAI        -41.8464 -42.8412  -3.5116 O.co2          1 7L9201             0.0000
     18 OAQ        -39.5751 -41.5416   4.0709 O.co2          1 7L9201             0.0000
     19 OAR        -39.0523 -41.1822   1.8235 O.co2          1 7L9201             0.0000
     20 OAT        -46.4694 -40.8843   3.1491 O.co2          1 7L9201             0.0000
     21 OAU        -46.2340 -40.5582   0.8422 O.co2          1 7L9201             0.0000
     22 H1         -39.0652 -39.8895  -3.1951 H              1 7L9201             0.0000
     23 H2         -38.6483 -38.5366  -1.1780 H              1 7L9201             0.0000
     24 H3         -39.9664 -38.9185   0.8669 H              1 7L9201             0.0000
     25 H4         -42.1374 -42.0215  -1.1194 H              1 7L9201             0.0000
     26 H5         -43.7765 -40.4970   0.1201 H              1 7L9201             0.0000
     27 H6         -41.9728 -41.3278   4.5635 H              1 7L9201             0.0000
     28 ****       -44.2961 -41.0984   4.2297 LP             1 7L9201             0.0000
     29 ****       -40.3463 -42.2181  -5.4726 LP             1 7L9201             0.0000
     30 ****       -39.4683 -40.9590  -4.6702 LP             1 7L9201             0.0000
     31 ****       -42.0192 -43.3913  -4.3287 LP             1 7L9201             0.0000
     32 ****       -42.3787 -43.0000  -2.6801 LP             1 7L9201             0.0000
     33 ****       -38.6063 -41.6936   4.2668 LP             1 7L9201             0.0000
     34 ****       -40.2492 -41.5995   4.8072 LP             1 7L9201             0.0000
     35 ****       -38.0857 -41.3357   2.0290 LP             1 7L9201             0.0000
     36 ****       -39.3376 -40.9728   0.8882 LP             1 7L9201             0.0000
     37 ****       -47.4638 -40.8380   3.0542 LP             1 7L9201             0.0000
     38 ****       -46.0593 -41.0281   4.0498 LP             1 7L9201             0.0000
     39 ****       -47.2284 -40.5119   0.7472 LP             1 7L9201             0.0000
     40 ****       -45.6497 -40.4608   0.0365 LP             1 7L9201             0.0000
@<TRIPOS>BOND
    1    1    2 ar    
    2    2    3 ar    
    3    3    4 ar    
    4    4    5 ar    
    5    1    6 ar    
    6    5    6 ar    
    7    5    7 1     
    8    3    8 1     
    9    8    9 ar    
   10    9   10 ar    
   11    8   12 ar    
   12   11   12 ar    
   13   12   13 1     
   14   10   14 1     
   15   10   15 ar    
   16   11   15 ar    
   17    7   16 ar    
   18    7   17 ar    
   19   13   18 ar    
   20   13   19 ar    
   21   14   20 ar    
   22   14   21 ar    
   23    6   22 1     
   24    1   23 1     
   25    2   24 1     
   26    4   25 1     
   27    9   26 1     
   28   11   27 1     
   29   15   28 1     
   30   16   29 1     
   31   16   30 1     
   32   17   31 1     
   33   17   32 1     
   34   18   33 1     
   35   18   34 1     
   36   19   35 1     
   37   19   36 1     
   38   20   37 1     
   39   20   38 1     
   40   21   39 1     
   41   21   40 1     
@<TRIPOS>SUBSTRUCTURE
      1 7L9201         1
@<TRIPOS>SET
LONE_PAIRS      STATIC     ATOMS    <user>   **** ""
13 28 29 30 31 32 33 34 35 36 37 38 39 40
ATOM$BLUE        STATIC     ATOMS    COLORGROUP SYSTEM
13 28 29 30 31 32 33 34 35 36 37 38 39 40
@<TRIPOS>COMMENT
> <Gold.Version>
2022.3.0

> <Gold.Id.Protein>
unknown|6c5f_clean|pdb

> <Gold.Protein.ActiveResidues>
 LEU49   SER50   GLN58   ILE95   LEU96   ILE97   ARG98   PRO1    PHE2    LEU3   
 LEU30   LYS32   PRO33   ASP35   ARG36   VAL37   ASN38   ILE61   SER62   SER63  
 ILE64   GLY65   VAL66   VAL67   PHE100  LEU102  GLU103  SER104  TRP105  GLN106 
 ILE107  GLY108  LYS109  ILE110  THR112  VAL113  PHE2    ILE61   SER62   SER63  
 ILE64   PHE2    PRO1    PHE2    PRO1    PHE2    LEU3    LEU96   ILE97   ARG98  
 PHE2    ARG36   VAL37   ASN38   PRO1    PRO1    VAL113  PHE2    LEU30   LYS32  
 PRO33   GLN106  ILE107  GLY108  LYS109  ILE110  ILE64   GLY65   VAL66   VAL67  
 GLN58   PRO1    PRO101  LEU102  GLU103  SER104  TRP105  PHE2    LEU49   SER50  
 PHE2   

> <Gold.Score>
     Fitness  S(hb_ext) S(vdw_ext)  S(hb_int)    S(int)      intcor
     41.59       0.00      30.58       0.00      -0.45       0.06

> <Gold.Goldscore.Fitness>
41.5912

> <Gold.Goldscore.Internal.Vdw>
1.2362

> <Gold.Goldscore.Internal.Torsion>
-1.6241

> <Gold.Goldscore.External.Vdw>
30.5765

> <Gold.Goldscore.Internal.HBond>
0.0000

> <Gold.Goldscore.External.HBond>
0.0000

> <Gold.Goldscore.Internal.Correction>
0.0635

> <Gold.Goldscore.Reference.RMSD>
6.5990

> <Gold.Goldscore.Internal.Vdw.Weighted>
1.2362

> <Gold.Goldscore.Internal.Torsion.Weighted>
-1.6241

> <Gold.Goldscore.External.Vdw.Weighted>
42.0427

> <Gold.Goldscore.Internal.HBond.Weighted>
0.0000

> <Gold.Goldscore.External.HBond.Weighted>
0.0000

> <Gold.Goldscore.Internal.Correction.Weighted>
0.0635

> <Gold.Rescore>
     Score         DG    S(hbond)    S(metal)    S(lipo)     H(rot)  DE(clash)    DE(int)     intcor
     14.75     -20.46       0.00        0.00     128.03       0.00       1.85       3.85       ----

> <Gold.Chemscore.Fitness>
14.7506

> <Gold.Chemscore.DG>
-20.4594

> <Gold.Chemscore.ZeroCoef>
-5.4800

> <Gold.Chemscore.Hbond>
0.0000

> <Gold.Chemscore.Metal>
0.0000

> <Gold.Chemscore.Lipo>
128.0288

> <Gold.Chemscore.Internal_Hbond>
0.0000

> <Gold.Chemscore.DEClash>
1.8544

> <Gold.Chemscore.DEInternal>
3.8544

> <Gold.Chemscore.Rot>
0.0000

> <Gold.Chemscore.Internal.Correction>
   9.000000E+99

> <Gold.Chemscore.Reference.RMSD>
0.0000

> <Gold.Chemscore.Hbond.Weighted>
-0.0000

> <Gold.Chemscore.Metal.Weighted>
-0.0000

> <Gold.Chemscore.Lipo.Weighted>
-14.9794

> <Gold.Chemscore.Internal_Hbond.Weighted>
0.0000

> <Gold.Chemscore.DEClash.Weighted>
1.8544

> <Gold.Chemscore.DEInternal.Weighted>
3.8544

> <Gold.Chemscore.Rot.Weighted>
0.0000

> <Gold.Chemscore.Internal.Correction.Weighted>
   9.000000E+99

> <Gold.Reference.RMSD>
6.5990

