#       Name:                F:ID
#       Creating user name   hitesit
#       Creation time:       Thu Mar  2 16:48:43 2023


#       File generated by GOLD software.
#

@<TRIPOS>MOLECULE
F:ID|prep_cristal|mol2|1|dock5
    40    41     1
SMALL
NO_CHARGES


@<TRIPOS>ATOM
      1 CAA        -42.2387 -40.6946   0.1918 C.ar           1 7L9201             0.0000
      2 CAB        -41.0328 -40.6981   0.8729 C.ar           1 7L9201             0.0000
      3 CAC        -39.8427 -40.9857   0.2100 C.ar           1 7L9201             0.0000
      4 CAD        -39.8969 -41.2744  -1.1525 C.ar           1 7L9201             0.0000
      5 CAE        -41.1019 -41.2749  -1.8524 C.ar           1 7L9201             0.0000
      6 CAF        -42.2736 -40.9805  -1.1626 C.ar           1 7L9201             0.0000
      7 CAG        -41.1353 -41.5893  -3.3318 C.2            1 7L9201             0.0000
      8 CAJ        -38.5328 -41.0031   0.9236 C.ar           1 7L9201             0.0000
      9 CAK        -37.9828 -42.2552   1.1956 C.ar           1 7L9201             0.0000
     10 CAL        -36.8007 -42.3617   1.9173 C.ar           1 7L9201             0.0000
     11 CAN        -36.6570 -40.0821   2.0886 C.ar           1 7L9201             0.0000
     12 CAO        -37.8153 -39.8627   1.3460 C.ar           1 7L9201             0.0000
     13 CAP        -38.2348 -38.4418   1.0293 C.2            1 7L9201             0.0000
     14 CAS        -36.1891 -43.7136   2.2127 C.2            1 7L9201             0.0000
     15 NAM        -36.1515 -41.2832   2.3849 N.ar           1 7L9201             0.0000
     16 OAH        -40.0841 -41.2615  -4.1164 O.co2          1 7L9201             0.0000
     17 OAI        -42.2162 -42.1981  -3.8693 O.co2          1 7L9201             0.0000
     18 OAQ        -39.4343 -38.2170   0.4473 O.co2          1 7L9201             0.0000
     19 OAR        -37.4350 -37.3937   1.3295 O.co2          1 7L9201             0.0000
     20 OAT        -35.1307 -43.8087   3.0486 O.co2          1 7L9201             0.0000
     21 OAU        -36.7010 -44.8266   1.6406 O.co2          1 7L9201             0.0000
     22 H1         -43.1582 -40.4671   0.7206 H              1 7L9201             0.0000
     23 H2         -41.0154 -40.4744   1.9345 H              1 7L9201             0.0000
     24 H3         -38.9779 -41.5043  -1.6814 H              1 7L9201             0.0000
     25 H4         -36.1220 -39.2106   2.4509 H              1 7L9201             0.0000
     26 H5         -43.2219 -40.9752  -1.6899 H              1 7L9201             0.0000
     27 H6         -38.4831 -43.1518   0.8449 H              1 7L9201             0.0000
     28 ****       -35.3210 -41.3753   2.9342 LP             1 7L9201             0.0000
     29 ****       -40.1061 -41.4693  -5.0943 LP             1 7L9201             0.0000
     30 ****       -39.2846 -40.8112  -3.7188 LP             1 7L9201             0.0000
     31 ****       -42.2383 -42.4059  -4.8473 LP             1 7L9201             0.0000
     32 ****       -42.9937 -42.4405  -3.2890 LP             1 7L9201             0.0000
     33 ****       -39.7233 -37.2818   0.2425 LP             1 7L9201             0.0000
     34 ****       -40.0325 -38.9859   0.2217 LP             1 7L9201             0.0000
     35 ****       -37.7323 -36.4620   1.1210 LP             1 7L9201             0.0000
     36 ****       -36.5461 -37.5503   1.7600 LP             1 7L9201             0.0000
     37 ****       -34.7264 -44.7023   3.2437 LP             1 7L9201             0.0000
     38 ****       -34.7521 -42.9855   3.4716 LP             1 7L9201             0.0000
     39 ****       -36.2967 -45.7202   1.8358 LP             1 7L9201             0.0000
     40 ****       -37.4838 -44.7562   1.0224 LP             1 7L9201             0.0000
@<TRIPOS>BOND
    1    1    2 ar    
    2    2    3 ar    
    3    3    4 ar    
    4    4    5 ar    
    5    1    6 ar    
    6    5    6 ar    
    7    5    7 1     
    8    3    8 1     
    9    8    9 ar    
   10    9   10 ar    
   11    8   12 ar    
   12   11   12 ar    
   13   12   13 1     
   14   10   14 1     
   15   10   15 ar    
   16   11   15 ar    
   17    7   16 ar    
   18    7   17 ar    
   19   13   18 ar    
   20   13   19 ar    
   21   14   20 ar    
   22   14   21 ar    
   23    1   22 1     
   24    2   23 1     
   25    4   24 1     
   26   11   25 1     
   27    6   26 1     
   28    9   27 1     
   29   15   28 1     
   30   16   29 1     
   31   16   30 1     
   32   17   31 1     
   33   17   32 1     
   34   18   33 1     
   35   18   34 1     
   36   19   35 1     
   37   19   36 1     
   38   20   37 1     
   39   20   38 1     
   40   21   39 1     
   41   21   40 1     
@<TRIPOS>SUBSTRUCTURE
      1 7L9201         1
@<TRIPOS>SET
LONE_PAIRS      STATIC     ATOMS    <user>   **** ""
13 28 29 30 31 32 33 34 35 36 37 38 39 40
ATOM$BLUE        STATIC     ATOMS    COLORGROUP SYSTEM
13 28 29 30 31 32 33 34 35 36 37 38 39 40
@<TRIPOS>COMMENT
> <Gold.Version>
2022.3.0

> <Gold.Id.Protein>
unknown|6c5f_clean|pdb

> <Gold.Protein.ActiveResidues>
 LEU49   SER50   GLN58   ILE95   LEU96   ILE97   ARG98   PRO1    PHE2    LEU3   
 LEU30   LYS32   PRO33   ASP35   ARG36   VAL37   ASN38   ILE61   SER62   SER63  
 ILE64   GLY65   VAL66   VAL67   PHE100  LEU102  GLU103  SER104  TRP105  GLN106 
 ILE107  GLY108  LYS109  ILE110  THR112  VAL113  PRO1    GLN58   PHE2    LEU96  
 LEU30   LYS32   PRO33   PHE2    PRO1    PRO101  LEU102  GLU103  VAL37   ASN38  
 LEU49   SER50   ILE61   SER62   SER63   ILE64   ILE64   GLY65   VAL66   VAL67  
 PRO33   ARG36   VAL37   PRO1    SER104  TRP105  GLN106  ILE107  GLY108  LYS109 
 ILE110  PRO1    PHE2    LEU3    ILE110  VAL113  LEU96   ILE97   ARG98   PHE2   
 PRO1   

> <Gold.Score>
     Score     S(PLP)   S(hbond)     S(cho)   S(metal)  DE(clash)   DE(tors)     intcor
     38.14     -40.00       0.00       0.00       0.00       0.00       1.86       1.85

> <Gold.PLP.Fitness>
38.1362

> <Gold.PLP.PLP>
-39.9976

> <Gold.PLP.part.hbond>
0.0000

> <Gold.PLP.part.metal>
0.0000

> <Gold.PLP.part.buried>
-5.0680

> <Gold.PLP.part.nonpolar>
-36.4253

> <Gold.PLP.part.repulsive>
1.9945

> <Gold.PLP.ligand.clash>
0.0000

> <Gold.PLP.ligand.torsion>
1.8570

> <Gold.PLP.Chemscore.Hbond>
0.0000

> <Gold.PLP.Chemscore.CHOScore>
0.0000

> <Gold.PLP.Chemscore.Metal>
0.0000

> <Gold.PLP.Chemscore.Internal.Correction>
1.8526

> <Gold.PLP.Reference.RMSD>
5.5592

> <Gold.Rescore>
     Score         DG    S(hbond)    S(metal)    S(lipo)     H(rot)  DE(clash)    DE(int)     intcor
     15.78     -20.64       0.00        0.00     129.54       0.00       1.72       3.14       ----

> <Gold.Chemscore.Fitness>
15.7825

> <Gold.Chemscore.DG>
-20.6359

> <Gold.Chemscore.ZeroCoef>
-5.4800

> <Gold.Chemscore.Hbond>
0.0000

> <Gold.Chemscore.Metal>
0.0000

> <Gold.Chemscore.Lipo>
129.5374

> <Gold.Chemscore.Internal_Hbond>
0.0000

> <Gold.Chemscore.DEClash>
1.7159

> <Gold.Chemscore.DEInternal>
3.1375

> <Gold.Chemscore.Rot>
0.0000

> <Gold.Chemscore.Internal.Correction>
   9.000000E+99

> <Gold.Chemscore.Reference.RMSD>
0.0000

> <Gold.Chemscore.Hbond.Weighted>
-0.0000

> <Gold.Chemscore.Metal.Weighted>
-0.0000

> <Gold.Chemscore.Lipo.Weighted>
-15.1559

> <Gold.Chemscore.Internal_Hbond.Weighted>
0.0000

> <Gold.Chemscore.DEClash.Weighted>
1.7159

> <Gold.Chemscore.DEInternal.Weighted>
3.1375

> <Gold.Chemscore.Rot.Weighted>
0.0000

> <Gold.Chemscore.Internal.Correction.Weighted>
   9.000000E+99

> <Gold.Reference.RMSD>
5.5592

