#       Name:                F:ID
#       Creating user name   hitesit
#       Creation time:       Mon Feb 27 15:35:28 2023


#       File generated by GOLD software.
#

@<TRIPOS>MOLECULE
F:ID|prep_cristal|mol2|1|dock10
    40    41     1
SMALL
NO_CHARGES


@<TRIPOS>ATOM
      1 CAA        -39.4188 -39.1898  -1.2237 C.ar           1 7L9201             0.0000
      2 CAB        -40.1713 -39.3985  -0.0799 C.ar           1 7L9201             0.0000
      3 CAC        -41.1041 -40.4305  -0.0211 C.ar           1 7L9201             0.0000
      4 CAD        -41.2644 -41.2428  -1.1423 C.ar           1 7L9201             0.0000
      5 CAE        -40.5151 -41.0459  -2.3007 C.ar           1 7L9201             0.0000
      6 CAF        -39.5888 -40.0085  -2.3274 C.ar           1 7L9201             0.0000
      7 CAG        -40.7053 -41.9420  -3.5046 C.2            1 7L9201             0.0000
      8 CAJ        -41.9315 -40.6704   1.1968 C.ar           1 7L9201             0.0000
      9 CAK        -43.3139 -40.7082   1.0191 C.ar           1 7L9201             0.0000
     10 CAL        -44.1591 -40.8572   2.1113 C.ar           1 7L9201             0.0000
     11 CAN        -42.3651 -40.9657   3.5311 C.ar           1 7L9201             0.0000
     12 CAO        -41.4303 -40.8553   2.5038 C.ar           1 7L9201             0.0000
     13 CAP        -39.9540 -40.9443   2.8323 C.2            1 7L9201             0.0000
     14 CAS        -45.6605 -40.9073   1.9316 C.2            1 7L9201             0.0000
     15 NAM        -43.6911 -40.9604   3.3657 N.ar           1 7L9201             0.0000
     16 OAH        -41.4838 -43.0436  -3.4112 O.co2          1 7L9201             0.0000
     17 OAI        -40.0969 -41.6415  -4.6740 O.co2          1 7L9201             0.0000
     18 OAQ        -39.5703 -41.2146   4.1002 O.co2          1 7L9201             0.0000
     19 OAR        -39.0137 -40.7695   1.8764 O.co2          1 7L9201             0.0000
     20 OAT        -46.2021 -40.7075   0.7091 O.co2          1 7L9201             0.0000
     21 OAU        -46.4606 -41.1522   2.9937 O.co2          1 7L9201             0.0000
     22 H1         -38.9952 -39.8393  -3.2198 H              1 7L9201             0.0000
     23 H2         -38.6944 -38.3828  -1.2549 H              1 7L9201             0.0000
     24 H3         -40.0323 -38.7511   0.7796 H              1 7L9201             0.0000
     25 H4         -41.9904 -42.0484  -1.1126 H              1 7L9201             0.0000
     26 H5         -43.7322 -40.6164   0.0221 H              1 7L9201             0.0000
     27 H6         -41.9871 -41.0678   4.5430 H              1 7L9201             0.0000
     28 ****       -44.3116 -41.0307   4.1468 LP             1 7L9201             0.0000
     29 ****       -41.6095 -43.6360  -4.2070 LP             1 7L9201             0.0000
     30 ****       -41.9338 -43.2660  -2.5463 LP             1 7L9201             0.0000
     31 ****       -40.2227 -42.2339  -5.4698 LP             1 7L9201             0.0000
     32 ****       -39.5212 -40.8268  -4.7432 LP             1 7L9201             0.0000
     33 ****       -38.5982 -41.2838   4.3244 LP             1 7L9201             0.0000
     34 ****       -40.2585 -41.3454   4.8138 LP             1 7L9201             0.0000
     35 ****       -38.0440 -40.8405   2.1101 LP             1 7L9201             0.0000
     36 ****       -39.2880 -40.5692   0.9359 LP             1 7L9201             0.0000
     37 ****       -47.1945 -40.7407   0.5904 LP             1 7L9201             0.0000
     38 ****       -45.6104 -40.5264  -0.0764 LP             1 7L9201             0.0000
     39 ****       -47.4529 -41.1854   2.8751 LP             1 7L9201             0.0000
     40 ****       -46.0599 -41.3000   3.8980 LP             1 7L9201             0.0000
@<TRIPOS>BOND
    1    1    2 ar    
    2    2    3 ar    
    3    3    4 ar    
    4    4    5 ar    
    5    1    6 ar    
    6    5    6 ar    
    7    5    7 1     
    8    3    8 1     
    9    8    9 ar    
   10    9   10 ar    
   11    8   12 ar    
   12   11   12 ar    
   13   12   13 1     
   14   10   14 1     
   15   10   15 ar    
   16   11   15 ar    
   17    7   16 ar    
   18    7   17 ar    
   19   13   18 ar    
   20   13   19 ar    
   21   14   20 ar    
   22   14   21 ar    
   23    6   22 1     
   24    1   23 1     
   25    2   24 1     
   26    4   25 1     
   27    9   26 1     
   28   11   27 1     
   29   15   28 1     
   30   16   29 1     
   31   16   30 1     
   32   17   31 1     
   33   17   32 1     
   34   18   33 1     
   35   18   34 1     
   36   19   35 1     
   37   19   36 1     
   38   20   37 1     
   39   20   38 1     
   40   21   39 1     
   41   21   40 1     
@<TRIPOS>SUBSTRUCTURE
      1 7L9201         1
@<TRIPOS>SET
LONE_PAIRS      STATIC     ATOMS    <user>   **** ""
13 28 29 30 31 32 33 34 35 36 37 38 39 40
ATOM$BLUE        STATIC     ATOMS    COLORGROUP SYSTEM
13 28 29 30 31 32 33 34 35 36 37 38 39 40
@<TRIPOS>COMMENT
> <Gold.Version>
2022.3.0

> <Gold.Id.Protein>
unknown|6c5f_clean|pdb

> <Gold.Protein.ActiveResidues>
 LEU49   SER50   GLN58   ILE95   LEU96   ILE97   ARG98   PRO1    PHE2    LEU3   
 LEU30   LYS32   PRO33   ASP35   ARG36   VAL37   ASN38   ILE61   SER62   SER63  
 ILE64   GLY65   VAL66   VAL67   PHE100  LEU102  GLU103  SER104  TRP105  GLN106 
 ILE107  GLY108  LYS109  ILE110  THR112  VAL113  PHE2    ILE61   SER62   SER63  
 ILE64   PHE2    PRO1    PHE2    PRO1    PHE2    LEU3    LEU96   ILE97   ARG98  
 PHE2    ARG36   VAL37   ASN38   PRO1    PRO1    VAL113  PHE2    LEU30   LYS32  
 PRO33   GLN106  ILE107  GLY108  LYS109  ILE110  ILE64   GLY65   VAL66   VAL67  
 GLN58   PRO1    PRO101  LEU102  GLU103  SER104  TRP105  PHE2    LEU49   SER50  
 PHE2   

> <Gold.Score>
     Fitness  S(hb_ext) S(vdw_ext)  S(hb_int)    S(int)      intcor
     41.53       0.00      30.90       0.00      -0.96       0.06

> <Gold.Goldscore.Fitness>
41.5271

> <Gold.Goldscore.Internal.Vdw>
0.8882

> <Gold.Goldscore.Internal.Torsion>
-1.7801

> <Gold.Goldscore.External.Vdw>
30.8964

> <Gold.Goldscore.Internal.HBond>
0.0000

> <Gold.Goldscore.External.HBond>
0.0000

> <Gold.Goldscore.Internal.Correction>
0.0635

> <Gold.Goldscore.Reference.RMSD>
6.6190

> <Gold.Goldscore.Internal.Vdw.Weighted>
0.8882

> <Gold.Goldscore.Internal.Torsion.Weighted>
-1.7801

> <Gold.Goldscore.External.Vdw.Weighted>
42.4825

> <Gold.Goldscore.Internal.HBond.Weighted>
0.0000

> <Gold.Goldscore.External.HBond.Weighted>
0.0000

> <Gold.Goldscore.Internal.Correction.Weighted>
0.0635

> <Gold.Rescore>
     Score         DG    S(hbond)    S(metal)    S(lipo)     H(rot)  DE(clash)    DE(int)     intcor
     15.41     -19.86       0.00        0.00     122.90       0.00       0.50       3.95       ----

> <Gold.Chemscore.Fitness>
15.4111

> <Gold.Chemscore.DG>
-19.8589

> <Gold.Chemscore.ZeroCoef>
-5.4800

> <Gold.Chemscore.Hbond>
0.0000

> <Gold.Chemscore.Metal>
0.0000

> <Gold.Chemscore.Lipo>
122.8968

> <Gold.Chemscore.Internal_Hbond>
0.0000

> <Gold.Chemscore.DEClash>
0.5013

> <Gold.Chemscore.DEInternal>
3.9465

> <Gold.Chemscore.Rot>
0.0000

> <Gold.Chemscore.Internal.Correction>
   9.000000E+99

> <Gold.Chemscore.Reference.RMSD>
0.0000

> <Gold.Chemscore.Hbond.Weighted>
-0.0000

> <Gold.Chemscore.Metal.Weighted>
-0.0000

> <Gold.Chemscore.Lipo.Weighted>
-14.3789

> <Gold.Chemscore.Internal_Hbond.Weighted>
0.0000

> <Gold.Chemscore.DEClash.Weighted>
0.5013

> <Gold.Chemscore.DEInternal.Weighted>
3.9465

> <Gold.Chemscore.Rot.Weighted>
0.0000

> <Gold.Chemscore.Internal.Correction.Weighted>
   9.000000E+99

> <Gold.Reference.RMSD>
6.6190

