#       Name:                plp ligand
#       Creating user name   hitesit
#       Creation time:       Thu Mar  2 16:48:39 2023


#       File generated by GOLD software.
#

@<TRIPOS>MOLECULE
plp ligand
    40    41     1
SMALL
NO_CHARGES


@<TRIPOS>ATOM
      1 CAA         -3.0041  -0.5742   0.4970 NONPOLAR       1 7L9201             0.0000
      2 CAB         -1.9712  -0.1352  -0.3144 NONPOLAR       1 7L9201             0.0000
      3 CAC         -0.6520  -0.1772   0.1288 NONPOLAR       1 7L9201             0.0000
      4 CAD         -0.3990  -0.6664   1.4092 NONPOLAR       1 7L9201             0.0000
      5 CAE         -1.4269  -1.1119   2.2379 NONPOLAR       1 7L9201             0.0000
      6 CAF         -2.7342  -1.0602   1.7652 NONPOLAR       1 7L9201             0.0000
      7 CAG         -1.1273  -1.6408   3.6232 NONPOLAR       1 7L9201             0.0000
      8 CAJ          0.4765   0.2970  -0.7239 NONPOLAR       1 7L9201             0.0000
      9 CAK          1.3956   1.1587  -0.1265 NONPOLAR       1 7L9201             0.0000
     10 CAL          2.4363   1.7011  -0.8697 NONPOLAR       1 7L9201             0.0000
     11 CAN          1.7386   0.5737  -2.7375 NONPOLAR       1 7L9201             0.0000
     12 CAO          0.6825  -0.0504  -2.0769 NONPOLAR       1 7L9201             0.0000
     13 CAP         -0.1699  -1.0549  -2.8251 NONPOLAR       1 7L9201             0.0000
     14 CAS          3.4448   2.6312  -0.2320 NONPOLAR       1 7L9201             0.0000
     15 NAM          2.5952   1.4318  -2.1756 ACCEPTOR       1 7L9201             0.0000
     16 OAH          0.1485  -1.6848   4.0687 ACCEPTOR       1 7L9201             0.0000
     17 OAI         -2.1353  -2.0695   4.4158 ACCEPTOR       1 7L9201             0.0000
     18 OAQ         -0.6236  -2.1529  -2.1798 ACCEPTOR       1 7L9201             0.0000
     19 OAR         -0.4944  -0.8659  -4.1241 ACCEPTOR       1 7L9201             0.0000
     20 OAT          4.4491   3.1503  -0.9736 ACCEPTOR       1 7L9201             0.0000
     21 OAU          3.3418   2.9432   1.0795 ACCEPTOR       1 7L9201             0.0000
     22 H1          -4.0273  -0.5373   0.1381                1 7L9201             0.0000
     23 H2          -2.1924   0.2455  -1.3061                1 7L9201             0.0000
     24 H3           0.6238  -0.7013   1.7695                1 7L9201             0.0000
     25 H4           1.8787   0.3422  -3.7882                1 7L9201             0.0000
     26 H5          -3.5485  -1.4031   2.3951                1 7L9201             0.0000
     27 H6           1.2950   1.4103   0.9241                1 7L9201             0.0000
     28 ****         3.3271   1.8575  -2.7077                1 7L9201             0.0000
     29 ****         0.3466  -2.0344   4.9845                1 7L9201             0.0000
     30 ****         0.8940  -1.3677   3.4825                1 7L9201             0.0000
     31 ****        -1.9372  -2.4191   5.3316                1 7L9201             0.0000
     32 ****        -3.0789  -2.0369   4.0863                1 7L9201             0.0000
     33 ****        -1.1941  -2.8169  -2.6631                1 7L9201             0.0000
     34 ****        -0.3887  -2.3010  -1.2191                1 7L9201             0.0000
     35 ****        -1.0654  -1.5353  -4.5993                1 7L9201             0.0000
     36 ****        -0.1634  -0.0567  -4.6095                1 7L9201             0.0000
     37 ****         5.1157   3.7651  -0.5520                1 7L9201             0.0000
     38 ****         4.5252   2.9195  -1.9436                1 7L9201             0.0000
     39 ****         4.0084   3.5580   1.5011                1 7L9201             0.0000
     40 ****         2.5990   2.5593   1.6280                1 7L9201             0.0000
@<TRIPOS>BOND
    1    1    2 ar    
    2    2    3 ar    
    3    3    4 ar    
    4    4    5 ar    
    5    1    6 ar    
    6    5    6 ar    
    7    5    7 1     
    8    3    8 1     
    9    8    9 ar    
   10    9   10 ar    
   11    8   12 ar    
   12   11   12 ar    
   13   12   13 1     
   14   10   14 1     
   15   10   15 ar    
   16   11   15 ar    
   17    7   16 ar    
   18    7   17 ar    
   19   13   18 ar    
   20   13   19 ar    
   21   14   20 ar    
   22   14   21 ar    
   23    1   22 1     
   24    2   23 1     
   25    4   24 1     
   26   11   25 1     
   27    6   26 1     
   28    9   27 1     
   29   15   28 1     
   30   16   29 1     
   31   16   30 1     
   32   17   31 1     
   33   17   32 1     
   34   18   33 1     
   35   18   34 1     
   36   19   35 1     
   37   19   36 1     
   38   20   37 1     
   39   20   38 1     
   40   21   39 1     
   41   21   40 1     
@<TRIPOS>SUBSTRUCTURE
      1 7L9201         1
@<TRIPOS>SET
LONE_PAIRS      STATIC     ATOMS    <user>   **** ""
13 28 29 30 31 32 33 34 35 36 37 38 39 40
DONOR_HYDROGENS      STATIC     ATOMS    <user>   **** ""
0
ATOM$BLUE        STATIC     ATOMS    COLORGROUP SYSTEM
13 28 29 30 31 32 33 34 35 36 37 38 39 40
ATOM$RED        STATIC     ATOMS    COLORGROUP SYSTEM
0
