#       Name:                F:ID
#       Creating user name   hitesit
#       Creation time:       Thu Mar  2 16:48:43 2023


#       File generated by GOLD software.
#

@<TRIPOS>MOLECULE
F:ID|prep_cristal|mol2|1|dock5
    40    41     1
SMALL
NO_CHARGES


@<TRIPOS>ATOM
      1 CAA        -42.2387 -40.6946   0.1918 C.ar           1 7L9201             0.0000
      2 CAB        -41.0328 -40.6981   0.8729 C.ar           1 7L9201             0.0000
      3 CAC        -39.8427 -40.9857   0.2100 C.ar           1 7L9201             0.0000
      4 CAD        -39.8969 -41.2744  -1.1525 C.ar           1 7L9201             0.0000
      5 CAE        -41.1019 -41.2749  -1.8524 C.ar           1 7L9201             0.0000
      6 CAF        -42.2736 -40.9805  -1.1626 C.ar           1 7L9201             0.0000
      7 CAG        -41.1353 -41.5893  -3.3318 C.2            1 7L9201             0.0000
      8 CAJ        -38.5328 -41.0031   0.9236 C.ar           1 7L9201             0.0000
      9 CAK        -37.9828 -42.2552   1.1956 C.ar           1 7L9201             0.0000
     10 CAL        -36.8007 -42.3617   1.9173 C.ar           1 7L9201             0.0000
     11 CAN        -36.6570 -40.0821   2.0886 C.ar           1 7L9201             0.0000
     12 CAO        -37.8153 -39.8627   1.3460 C.ar           1 7L9201             0.0000
     13 CAP        -38.2348 -38.4418   1.0293 C.2            1 7L9201             0.0000
     14 CAS        -36.1891 -43.7136   2.2127 C.2            1 7L9201             0.0000
     15 NAM        -36.1515 -41.2832   2.3849 N.ar           1 7L9201             0.0000
     16 OAH        -40.0841 -41.2615  -4.1164 O.co2          1 7L9201             0.0000
     17 OAI        -42.2162 -42.1981  -3.8693 O.co2          1 7L9201             0.0000
     18 OAQ        -39.4343 -38.2170   0.4473 O.co2          1 7L9201             0.0000
     19 OAR        -37.4350 -37.3937   1.3295 O.co2          1 7L9201             0.0000
     20 OAT        -35.1307 -43.8087   3.0486 O.co2          1 7L9201             0.0000
     21 OAU        -36.7010 -44.8266   1.6406 O.co2          1 7L9201             0.0000
     22 H1         -43.1582 -40.4671   0.7206 H              1 7L9201             0.0000
     23 H2         -41.0154 -40.4744   1.9345 H              1 7L9201             0.0000
     24 H3         -38.9779 -41.5043  -1.6814 H              1 7L9201             0.0000
     25 H4         -36.1220 -39.2106   2.4509 H              1 7L9201             0.0000
     26 H5         -43.2219 -40.9752  -1.6899 H              1 7L9201             0.0000
     27 H6         -38.4831 -43.1518   0.8449 H              1 7L9201             0.0000
     28 ****       -35.3210 -41.3753   2.9342 LP             1 7L9201             0.0000
     29 ****       -40.1061 -41.4693  -5.0943 LP             1 7L9201             0.0000
     30 ****       -39.2846 -40.8112  -3.7188 LP             1 7L9201             0.0000
     31 ****       -42.2383 -42.4059  -4.8473 LP             1 7L9201             0.0000
     32 ****       -42.9937 -42.4405  -3.2890 LP             1 7L9201             0.0000
     33 ****       -39.7233 -37.2818   0.2425 LP             1 7L9201             0.0000
     34 ****       -40.0325 -38.9859   0.2217 LP             1 7L9201             0.0000
     35 ****       -37.7323 -36.4620   1.1210 LP             1 7L9201             0.0000
     36 ****       -36.5461 -37.5503   1.7600 LP             1 7L9201             0.0000
     37 ****       -34.7264 -44.7023   3.2437 LP             1 7L9201             0.0000
     38 ****       -34.7521 -42.9855   3.4716 LP             1 7L9201             0.0000
     39 ****       -36.2967 -45.7202   1.8358 LP             1 7L9201             0.0000
     40 ****       -37.4838 -44.7562   1.0224 LP             1 7L9201             0.0000
@<TRIPOS>BOND
    1    1    2 ar    
    2    2    3 ar    
    3    3    4 ar    
    4    4    5 ar    
    5    1    6 ar    
    6    5    6 ar    
    7    5    7 1     
    8    3    8 1     
    9    8    9 ar    
   10    9   10 ar    
   11    8   12 ar    
   12   11   12 ar    
   13   12   13 1     
   14   10   14 1     
   15   10   15 ar    
   16   11   15 ar    
   17    7   16 ar    
   18    7   17 ar    
   19   13   18 ar    
   20   13   19 ar    
   21   14   20 ar    
   22   14   21 ar    
   23    1   22 1     
   24    2   23 1     
   25    4   24 1     
   26   11   25 1     
   27    6   26 1     
   28    9   27 1     
   29   15   28 1     
   30   16   29 1     
   31   16   30 1     
   32   17   31 1     
   33   17   32 1     
   34   18   33 1     
   35   18   34 1     
   36   19   35 1     
   37   19   36 1     
   38   20   37 1     
   39   20   38 1     
   40   21   39 1     
   41   21   40 1     
@<TRIPOS>SUBSTRUCTURE
      1 7L9201         1
@<TRIPOS>SET
LONE_PAIRS      STATIC     ATOMS    <user>   **** ""
13 28 29 30 31 32 33 34 35 36 37 38 39 40
ATOM$BLUE        STATIC     ATOMS    COLORGROUP SYSTEM
13 28 29 30 31 32 33 34 35 36 37 38 39 40
@<TRIPOS>COMMENT
> <Gold.Version>
2022.3.0

> <Gold.Id.Protein>
unknown|6c5f_clean|pdb

> <Gold.Protein.ActiveResidues>
 LEU49   SER50   GLN58   ILE95   LEU96   ILE97   ARG98   PRO1    PHE2    LEU3   
 LEU30   LYS32   PRO33   ASP35   ARG36   VAL37   ASN38   ILE61   SER62   SER63  
 ILE64   GLY65   VAL66   VAL67   PHE100  LEU102  GLU103  SER104  TRP105  GLN106 
 ILE107  GLY108  LYS109  ILE110  THR112  VAL113  PRO1    GLN58   PHE2    LEU96  
 LEU30   LYS32   PRO33   PHE2    PRO1    PRO101  LEU102  GLU103  VAL37   ASN38  
 LEU49   SER50   ILE61   SER62   SER63   ILE64   ILE64   GLY65   VAL66   VAL67  
 PRO33   ARG36   VAL37   PRO1    SER104  TRP105  GLN106  ILE107  GLY108  LYS109 
 ILE110  PRO1    PHE2    LEU3    ILE110  VAL113  LEU96   ILE97   ARG98   PHE2   
 PRO1   

> <Gold.Score>
     Score     S(PLP)   S(hbond)     S(cho)   S(metal)  DE(clash)   DE(tors)     intcor
     38.14     -40.00       0.00       0.00       0.00       0.00       1.86       1.85

> <Gold.PLP.Fitness>
38.1362

> <Gold.PLP.PLP>
-39.9976

> <Gold.PLP.part.hbond>
0.0000

> <Gold.PLP.part.metal>
0.0000

> <Gold.PLP.part.buried>
-5.0680

> <Gold.PLP.part.nonpolar>
-36.4253

> <Gold.PLP.part.repulsive>
1.9945

> <Gold.PLP.ligand.clash>
0.0000

> <Gold.PLP.ligand.torsion>
1.8570

> <Gold.PLP.Chemscore.Hbond>
0.0000

> <Gold.PLP.Chemscore.CHOScore>
0.0000

> <Gold.PLP.Chemscore.Metal>
0.0000

> <Gold.PLP.Chemscore.Internal.Correction>
1.8526

> <Gold.PLP.Reference.RMSD>
5.5592

> <Gold.Rescore>
     Score         DG    S(hbond)    S(metal)    S(lipo)     H(rot)  DE(clash)    DE(int)     intcor
     15.78     -20.64       0.00        0.00     129.54       0.00       1.72       3.14       ----

> <Gold.Chemscore.Fitness>
15.7825

> <Gold.Chemscore.DG>
-20.6359

> <Gold.Chemscore.ZeroCoef>
-5.4800

> <Gold.Chemscore.Hbond>
0.0000

> <Gold.Chemscore.Metal>
0.0000

> <Gold.Chemscore.Lipo>
129.5374

> <Gold.Chemscore.Internal_Hbond>
0.0000

> <Gold.Chemscore.DEClash>
1.7159

> <Gold.Chemscore.DEInternal>
3.1375

> <Gold.Chemscore.Rot>
0.0000

> <Gold.Chemscore.Internal.Correction>
   9.000000E+99

> <Gold.Chemscore.Reference.RMSD>
0.0000

> <Gold.Chemscore.Hbond.Weighted>
-0.0000

> <Gold.Chemscore.Metal.Weighted>
-0.0000

> <Gold.Chemscore.Lipo.Weighted>
-15.1559

> <Gold.Chemscore.Internal_Hbond.Weighted>
0.0000

> <Gold.Chemscore.DEClash.Weighted>
1.7159

> <Gold.Chemscore.DEInternal.Weighted>
3.1375

> <Gold.Chemscore.Rot.Weighted>
0.0000

> <Gold.Chemscore.Internal.Correction.Weighted>
   9.000000E+99

> <Gold.Reference.RMSD>
5.5592

#       Name:                F:ID
#       Creating user name   hitesit
#       Creation time:       Thu Mar  2 16:48:41 2023


#       File generated by GOLD software.
#

@<TRIPOS>MOLECULE
F:ID|prep_cristal|mol2|1|dock3
    40    41     1
SMALL
NO_CHARGES


@<TRIPOS>ATOM
      1 CAA        -44.5382 -41.0630   1.3161 C.ar           1 7L9201             0.0000
      2 CAB        -43.3307 -40.7459   0.7167 C.ar           1 7L9201             0.0000
      3 CAC        -42.1376 -40.8389   1.4284 C.ar           1 7L9201             0.0000
      4 CAD        -42.1905 -41.2533   2.7581 C.ar           1 7L9201             0.0000
      5 CAE        -43.3972 -41.5759   3.3759 C.ar           1 7L9201             0.0000
      6 CAF        -44.5719 -41.4761   2.6373 C.ar           1 7L9201             0.0000
      7 CAG        -43.4292 -42.0255   4.8200 C.2            1 7L9201             0.0000
      8 CAJ        -40.8257 -40.4955   0.8068 C.ar           1 7L9201             0.0000
      9 CAK        -39.8239 -40.0432   1.6646 C.ar           1 7L9201             0.0000
     10 CAL        -38.5958 -39.6366   1.1584 C.ar           1 7L9201             0.0000
     11 CAN        -39.2726 -40.1244  -0.9748 C.ar           1 7L9201             0.0000
     12 CAO        -40.5229 -40.5865  -0.5693 C.ar           1 7L9201             0.0000
     13 CAP        -41.4726 -41.1583  -1.6021 C.2            1 7L9201             0.0000
     14 CAS        -37.4977 -39.1511   2.0788 C.2            1 7L9201             0.0000
     15 NAM        -38.3270 -39.6521  -0.1571 N.ar           1 7L9201             0.0000
     16 OAH        -42.2784 -42.1246   5.5227 O.co2          1 7L9201             0.0000
     17 OAI        -44.6085 -42.3282   5.4078 O.co2          1 7L9201             0.0000
     18 OAQ        -41.1957 -42.3536  -2.1699 O.co2          1 7L9201             0.0000
     19 OAR        -42.5984 -40.4988  -1.9570 O.co2          1 7L9201             0.0000
     20 OAT        -36.5444 -38.3140   1.6110 O.co2          1 7L9201             0.0000
     21 OAU        -37.4694 -39.5543   3.3690 O.co2          1 7L9201             0.0000
     22 H1         -45.4601 -40.9876   0.7491 H              1 7L9201             0.0000
     23 H2         -43.3142 -40.4216  -0.3186 H              1 7L9201             0.0000
     24 H3         -41.2692 -41.3265   3.3263 H              1 7L9201             0.0000
     25 H4         -39.0478 -40.1539  -2.0358 H              1 7L9201             0.0000
     26 H5         -45.5216 -41.7235   3.1002 H              1 7L9201             0.0000
     27 H6         -40.0059 -40.0047   2.7335 H              1 7L9201             0.0000
     28 ****       -37.4520 -39.3225  -0.5116 LP             1 7L9201             0.0000
     29 ****       -42.2995 -42.4218   6.4773 LP             1 7L9201             0.0000
     30 ****       -41.4062 -41.9007   5.0879 LP             1 7L9201             0.0000
     31 ****       -44.6297 -42.6254   6.3624 LP             1 7L9201             0.0000
     32 ****       -45.4597 -42.2549   4.8880 LP             1 7L9201             0.0000
     33 ****       -41.8212 -42.7428  -2.8461 LP             1 7L9201             0.0000
     34 ****       -40.3654 -42.8485  -1.9136 LP             1 7L9201             0.0000
     35 ****       -43.2181 -40.8958  -2.6341 LP             1 7L9201             0.0000
     36 ****       -42.8114 -39.6141  -1.5423 LP             1 7L9201             0.0000
     37 ****       -35.8185 -37.9931   2.2193 LP             1 7L9201             0.0000
     38 ****       -36.5654 -38.0158   0.6567 LP             1 7L9201             0.0000
     39 ****       -36.7435 -39.2334   3.9773 LP             1 7L9201             0.0000
     40 ****       -38.1745 -40.1734   3.7149 LP             1 7L9201             0.0000
@<TRIPOS>BOND
    1    1    2 ar    
    2    2    3 ar    
    3    3    4 ar    
    4    4    5 ar    
    5    1    6 ar    
    6    5    6 ar    
    7    5    7 1     
    8    3    8 1     
    9    8    9 ar    
   10    9   10 ar    
   11    8   12 ar    
   12   11   12 ar    
   13   12   13 1     
   14   10   14 1     
   15   10   15 ar    
   16   11   15 ar    
   17    7   16 ar    
   18    7   17 ar    
   19   13   18 ar    
   20   13   19 ar    
   21   14   20 ar    
   22   14   21 ar    
   23    1   22 1     
   24    2   23 1     
   25    4   24 1     
   26   11   25 1     
   27    6   26 1     
   28    9   27 1     
   29   15   28 1     
   30   16   29 1     
   31   16   30 1     
   32   17   31 1     
   33   17   32 1     
   34   18   33 1     
   35   18   34 1     
   36   19   35 1     
   37   19   36 1     
   38   20   37 1     
   39   20   38 1     
   40   21   39 1     
   41   21   40 1     
@<TRIPOS>SUBSTRUCTURE
      1 7L9201         1
@<TRIPOS>SET
LONE_PAIRS      STATIC     ATOMS    <user>   **** ""
13 28 29 30 31 32 33 34 35 36 37 38 39 40
ATOM$BLUE        STATIC     ATOMS    COLORGROUP SYSTEM
13 28 29 30 31 32 33 34 35 36 37 38 39 40
@<TRIPOS>COMMENT
> <Gold.Version>
2022.3.0

> <Gold.Id.Protein>
unknown|6c5f_clean|pdb

> <Gold.Protein.ActiveResidues>
 LEU49   SER50   GLN58   ILE95   LEU96   ILE97   ARG98   PRO1    PHE2    LEU3   
 LEU30   LYS32   PRO33   ASP35   ARG36   VAL37   ASN38   ILE61   SER62   SER63  
 ILE64   GLY65   VAL66   VAL67   PHE100  LEU102  GLU103  SER104  TRP105  GLN106 
 ILE107  GLY108  LYS109  ILE110  THR112  VAL113  PRO1    GLN58   PHE2    LEU96  
 LEU30   LYS32   PRO33   PHE2    PRO1    PRO101  LEU102  GLU103  VAL37   ASN38  
 LEU49   SER50   ILE61   SER62   SER63   ILE64   ILE64   GLY65   VAL66   VAL67  
 PRO33   ARG36   VAL37   PRO1    SER104  TRP105  GLN106  ILE107  GLY108  LYS109 
 ILE110  PRO1    PHE2    LEU3    ILE110  VAL113  LEU96   ILE97   ARG98   PHE2   
 PRO1   

> <Gold.Score>
     Score     S(PLP)   S(hbond)     S(cho)   S(metal)  DE(clash)   DE(tors)     intcor
     38.10     -37.07       0.00       1.00       0.00       0.00       1.91       1.85

> <Gold.PLP.Fitness>
38.0960

> <Gold.PLP.PLP>
-37.0690

> <Gold.PLP.part.hbond>
0.0000

> <Gold.PLP.part.metal>
0.0000

> <Gold.PLP.part.buried>
-7.7768

> <Gold.PLP.part.nonpolar>
-31.7728

> <Gold.PLP.part.repulsive>
2.3325

> <Gold.PLP.ligand.clash>
0.0025

> <Gold.PLP.ligand.torsion>
1.9115

> <Gold.PLP.Chemscore.Hbond>
0.0000

> <Gold.PLP.Chemscore.CHOScore>
1.0000

> <Gold.PLP.Chemscore.Metal>
0.0000

> <Gold.Chemscore.Hbonds>
donor molecule, donor type, donor heavy atom, donor atom, acceptor molecule, acceptor atom, score
      L1  C    11    25       P1  1923  1.00

> <Gold.PLP.Chemscore.Internal.Correction>
1.8526

> <Gold.PLP.Reference.RMSD>
1.1732

> <Gold.Rescore>
     Score         DG    S(hbond)    S(metal)    S(lipo)     H(rot)  DE(clash)    DE(int)     intcor
     14.79     -19.21       0.00        0.00     117.36       0.00       0.22       4.20       ----

> <Gold.Chemscore.Fitness>
14.7949

> <Gold.Chemscore.DG>
-19.2107

> <Gold.Chemscore.ZeroCoef>
-5.4800

> <Gold.Chemscore.Hbond>
0.0000

> <Gold.Chemscore.Metal>
0.0000

> <Gold.Chemscore.Lipo>
117.3566

> <Gold.Chemscore.Internal_Hbond>
0.0000

> <Gold.Chemscore.DEClash>
0.2189

> <Gold.Chemscore.DEInternal>
4.1969

> <Gold.Chemscore.Rot>
0.0000

> <Gold.Chemscore.Internal.Correction>
   9.000000E+99

> <Gold.Chemscore.Reference.RMSD>
0.0000

> <Gold.Chemscore.Hbond.Weighted>
-0.0000

> <Gold.Chemscore.Metal.Weighted>
-0.0000

> <Gold.Chemscore.Lipo.Weighted>
-13.7307

> <Gold.Chemscore.Internal_Hbond.Weighted>
0.0000

> <Gold.Chemscore.DEClash.Weighted>
0.2189

> <Gold.Chemscore.DEInternal.Weighted>
4.1969

> <Gold.Chemscore.Rot.Weighted>
0.0000

> <Gold.Chemscore.Internal.Correction.Weighted>
   9.000000E+99

> <Gold.Reference.RMSD>
1.1732

#       Name:                F:ID
#       Creating user name   hitesit
#       Creation time:       Thu Mar  2 16:48:40 2023


#       File generated by GOLD software.
#

@<TRIPOS>MOLECULE
F:ID|prep_cristal|mol2|1|dock1
    40    41     1
SMALL
NO_CHARGES


@<TRIPOS>ATOM
      1 CAA        -44.5553 -41.0009   1.2950 C.ar           1 7L9201             0.0000
      2 CAB        -43.3373 -40.6948   0.7113 C.ar           1 7L9201             0.0000
      3 CAC        -42.1483 -40.8688   1.4145 C.ar           1 7L9201             0.0000
      4 CAD        -42.2159 -41.3528   2.7198 C.ar           1 7L9201             0.0000
      5 CAE        -43.4332 -41.6655   3.3215 C.ar           1 7L9201             0.0000
      6 CAF        -44.6036 -41.4839   2.5919 C.ar           1 7L9201             0.0000
      7 CAG        -43.4811 -42.1916   4.7391 C.2            1 7L9201             0.0000
      8 CAJ        -40.8250 -40.5390   0.8098 C.ar           1 7L9201             0.0000
      9 CAK        -39.8068 -40.1730   1.6893 C.ar           1 7L9201             0.0000
     10 CAL        -38.5649 -39.7836   1.2036 C.ar           1 7L9201             0.0000
     11 CAN        -39.2603 -40.1245  -0.9520 C.ar           1 7L9201             0.0000
     12 CAO        -40.5265 -40.5628  -0.5700 C.ar           1 7L9201             0.0000
     13 CAP        -41.4972 -41.0399  -1.6310 C.2            1 7L9201             0.0000
     14 CAS        -37.4491 -39.3915   2.1471 C.2            1 7L9201             0.0000
     15 NAM        -38.2976 -39.7343  -0.1114 N.ar           1 7L9201             0.0000
     16 OAH        -42.3348 -42.3650   5.4348 O.co2          1 7L9201             0.0000
     17 OAI        -44.6701 -42.4883   5.3102 O.co2          1 7L9201             0.0000
     18 OAQ        -42.5708 -40.2786  -1.9401 O.co2          1 7L9201             0.0000
     19 OAR        -41.3014 -42.2086  -2.2824 O.co2          1 7L9201             0.0000
     20 OAT        -37.3082 -40.0308   3.3301 O.co2          1 7L9201             0.0000
     21 OAU        -36.5930 -38.4018   1.8072 O.co2          1 7L9201             0.0000
     22 H1         -45.4740 -40.8620   0.7348 H              1 7L9201             0.0000
     23 H2         -43.3094 -40.3154  -0.3049 H              1 7L9201             0.0000
     24 H3         -41.2976 -41.4896   3.2813 H              1 7L9201             0.0000
     25 H4         -39.0374 -40.1020  -2.0136 H              1 7L9201             0.0000
     26 H5         -45.5615 -41.7222   3.0424 H              1 7L9201             0.0000
     27 H6         -39.9867 -40.1886   2.7591 H              1 7L9201             0.0000
     28 ****       -37.4113 -39.4173  -0.4490 LP             1 7L9201             0.0000
     29 ****       -42.3664 -42.7127   6.3719 LP             1 7L9201             0.0000
     30 ****       -41.4554 -42.1455   5.0124 LP             1 7L9201             0.0000
     31 ****       -44.7017 -42.8361   6.2473 LP             1 7L9201             0.0000
     32 ****       -45.5179 -42.3601   4.7956 LP             1 7L9201             0.0000
     33 ****       -43.2121 -40.5814  -2.6452 LP             1 7L9201             0.0000
     34 ****       -42.7237 -39.4128  -1.4636 LP             1 7L9201             0.0000
     35 ****       -41.9480 -42.5032  -2.9860 LP             1 7L9201             0.0000
     36 ****       -40.5101 -42.7783  -2.0604 LP             1 7L9201             0.0000
     37 ****       -36.5707 -39.7716   3.9538 LP             1 7L9201             0.0000
     38 ****       -37.9415 -40.7628   3.5814 LP             1 7L9201             0.0000
     39 ****       -35.8555 -38.1426   2.4309 LP             1 7L9201             0.0000
     40 ****       -36.6973 -37.9290   0.9323 LP             1 7L9201             0.0000
@<TRIPOS>BOND
    1    1    2 ar    
    2    2    3 ar    
    3    3    4 ar    
    4    4    5 ar    
    5    1    6 ar    
    6    5    6 ar    
    7    5    7 1     
    8    3    8 1     
    9    8    9 ar    
   10    9   10 ar    
   11    8   12 ar    
   12   11   12 ar    
   13   12   13 1     
   14   10   14 1     
   15   10   15 ar    
   16   11   15 ar    
   17    7   16 ar    
   18    7   17 ar    
   19   13   18 ar    
   20   13   19 ar    
   21   14   20 ar    
   22   14   21 ar    
   23    1   22 1     
   24    2   23 1     
   25    4   24 1     
   26   11   25 1     
   27    6   26 1     
   28    9   27 1     
   29   15   28 1     
   30   16   29 1     
   31   16   30 1     
   32   17   31 1     
   33   17   32 1     
   34   18   33 1     
   35   18   34 1     
   36   19   35 1     
   37   19   36 1     
   38   20   37 1     
   39   20   38 1     
   40   21   39 1     
   41   21   40 1     
@<TRIPOS>SUBSTRUCTURE
      1 7L9201         1
@<TRIPOS>SET
LONE_PAIRS      STATIC     ATOMS    <user>   **** ""
13 28 29 30 31 32 33 34 35 36 37 38 39 40
ATOM$BLUE        STATIC     ATOMS    COLORGROUP SYSTEM
13 28 29 30 31 32 33 34 35 36 37 38 39 40
@<TRIPOS>COMMENT
> <Gold.Version>
2022.3.0

> <Gold.Id.Protein>
unknown|6c5f_clean|pdb

> <Gold.Protein.ActiveResidues>
 LEU49   SER50   GLN58   ILE95   LEU96   ILE97   ARG98   PRO1    PHE2    LEU3   
 LEU30   LYS32   PRO33   ASP35   ARG36   VAL37   ASN38   ILE61   SER62   SER63  
 ILE64   GLY65   VAL66   VAL67   PHE100  LEU102  GLU103  SER104  TRP105  GLN106 
 ILE107  GLY108  LYS109  ILE110  THR112  VAL113  PRO1    GLN58   PHE2    LEU96  
 LEU30   LYS32   PRO33   PHE2    PRO1    PRO101  LEU102  GLU103  VAL37   ASN38  
 LEU49   SER50   ILE61   SER62   SER63   ILE64   ILE64   GLY65   VAL66   VAL67  
 PRO33   ARG36   VAL37   PRO1    SER104  TRP105  GLN106  ILE107  GLY108  LYS109 
 ILE110  PRO1    PHE2    LEU3    ILE110  VAL113  LEU96   ILE97   ARG98   PHE2   
 PRO1   

> <Gold.Score>
     Score     S(PLP)   S(hbond)     S(cho)   S(metal)  DE(clash)   DE(tors)     intcor
     37.51     -37.05       0.00       1.00       0.00       0.05       2.17       1.85

> <Gold.PLP.Fitness>
37.5125

> <Gold.PLP.PLP>
-37.0481

> <Gold.PLP.part.hbond>
0.0000

> <Gold.PLP.part.metal>
0.0000

> <Gold.PLP.part.buried>
-7.9873

> <Gold.PLP.part.nonpolar>
-31.5096

> <Gold.PLP.part.repulsive>
2.2930

> <Gold.PLP.ligand.clash>
0.0460

> <Gold.PLP.ligand.torsion>
2.1711

> <Gold.PLP.Chemscore.Hbond>
0.0000

> <Gold.PLP.Chemscore.CHOScore>
1.0000

> <Gold.PLP.Chemscore.Metal>
0.0000

> <Gold.Chemscore.Hbonds>
donor molecule, donor type, donor heavy atom, donor atom, acceptor molecule, acceptor atom, score
      L1  C    11    25       P1  1923  1.00

> <Gold.PLP.Chemscore.Internal.Correction>
1.8526

> <Gold.PLP.Reference.RMSD>
1.2257

> <Gold.Rescore>
     Score         DG    S(hbond)    S(metal)    S(lipo)     H(rot)  DE(clash)    DE(int)     intcor
     14.44     -18.86       0.00        0.00     114.34       0.00       0.16       4.25       ----

> <Gold.Chemscore.Fitness>
14.4448

> <Gold.Chemscore.DG>
-18.8583

> <Gold.Chemscore.ZeroCoef>
-5.4800

> <Gold.Chemscore.Hbond>
0.0000

> <Gold.Chemscore.Metal>
0.0000

> <Gold.Chemscore.Lipo>
114.3444

> <Gold.Chemscore.Internal_Hbond>
0.0000

> <Gold.Chemscore.DEClash>
0.1611

> <Gold.Chemscore.DEInternal>
4.2524

> <Gold.Chemscore.Rot>
0.0000

> <Gold.Chemscore.Internal.Correction>
   9.000000E+99

> <Gold.Chemscore.Reference.RMSD>
0.0000

> <Gold.Chemscore.Hbond.Weighted>
-0.0000

> <Gold.Chemscore.Metal.Weighted>
-0.0000

> <Gold.Chemscore.Lipo.Weighted>
-13.3783

> <Gold.Chemscore.Internal_Hbond.Weighted>
0.0000

> <Gold.Chemscore.DEClash.Weighted>
0.1611

> <Gold.Chemscore.DEInternal.Weighted>
4.2524

> <Gold.Chemscore.Rot.Weighted>
0.0000

> <Gold.Chemscore.Internal.Correction.Weighted>
   9.000000E+99

> <Gold.Reference.RMSD>
1.2257

#       Name:                F:ID
#       Creating user name   hitesit
#       Creation time:       Thu Mar  2 16:48:44 2023


#       File generated by GOLD software.
#

@<TRIPOS>MOLECULE
F:ID|prep_cristal|mol2|1|dock7
    40    41     1
SMALL
NO_CHARGES


@<TRIPOS>ATOM
      1 CAA        -44.5460 -41.0692   1.2742 C.ar           1 7L9201             0.0000
      2 CAB        -43.3148 -40.7640   0.7184 C.ar           1 7L9201             0.0000
      3 CAC        -42.1408 -40.9568   1.4416 C.ar           1 7L9201             0.0000
      4 CAD        -42.2369 -41.4587   2.7384 C.ar           1 7L9201             0.0000
      5 CAE        -43.4679 -41.7707   3.3121 C.ar           1 7L9201             0.0000
      6 CAF        -44.6227 -41.5700   2.5629 C.ar           1 7L9201             0.0000
      7 CAG        -43.5468 -42.3164   4.7208 C.2            1 7L9201             0.0000
      8 CAJ        -40.8038 -40.6284   0.8672 C.ar           1 7L9201             0.0000
      9 CAK        -39.8002 -40.2817   1.7710 C.ar           1 7L9201             0.0000
     10 CAL        -38.5466 -39.8948   1.3148 C.ar           1 7L9201             0.0000
     11 CAN        -39.2024 -40.2014  -0.8583 C.ar           1 7L9201             0.0000
     12 CAO        -40.4788 -40.6356  -0.5069 C.ar           1 7L9201             0.0000
     13 CAP        -41.4320 -41.0913  -1.5928 C.2            1 7L9201             0.0000
     14 CAS        -37.4466 -39.5236   2.2849 C.2            1 7L9201             0.0000
     15 NAM        -38.2534 -39.8295   0.0060 N.ar           1 7L9201             0.0000
     16 OAH        -42.4158 -42.5037   5.4376 O.co2          1 7L9201             0.0000
     17 OAI        -44.7484 -42.6169   5.2631 O.co2          1 7L9201             0.0000
     18 OAQ        -42.4753 -40.3025  -1.9352 O.co2          1 7L9201             0.0000
     19 OAR        -41.2501 -42.2681  -2.2335 O.co2          1 7L9201             0.0000
     20 OAT        -37.3519 -40.1586   3.4748 O.co2          1 7L9201             0.0000
     21 OAU        -36.5583 -38.5568   1.9619 O.co2          1 7L9201             0.0000
     22 H1         -45.4527 -40.9155   0.6986 H              1 7L9201             0.0000
     23 H2         -43.2646 -40.3705  -0.2915 H              1 7L9201             0.0000
     24 H3         -41.3307 -41.6103   3.3153 H              1 7L9201             0.0000
     25 H4         -38.9588 -40.1661  -1.9150 H              1 7L9201             0.0000
     26 H5         -45.5908 -41.8076   2.9916 H              1 7L9201             0.0000
     27 H6         -40.0009 -40.3105   2.8369 H              1 7L9201             0.0000
     28 ****       -37.3586 -39.5144  -0.3101 LP             1 7L9201             0.0000
     29 ****       -42.4679 -42.8644   6.3688 LP             1 7L9201             0.0000
     30 ****       -41.5271 -42.2814   5.0365 LP             1 7L9201             0.0000
     31 ****       -44.8005 -42.9777   6.1943 LP             1 7L9201             0.0000
     32 ****       -45.5849 -42.4785   4.7330 LP             1 7L9201             0.0000
     33 ****       -43.1045 -40.5911  -2.6568 LP             1 7L9201             0.0000
     34 ****       -42.6177 -39.4305  -1.4668 LP             1 7L9201             0.0000
     35 ****       -41.8846 -42.5484  -2.9539 LP             1 7L9201             0.0000
     36 ****       -40.4813 -42.8580  -1.9870 LP             1 7L9201             0.0000
     37 ****       -36.6248 -39.9132   4.1160 LP             1 7L9201             0.0000
     38 ****       -38.0089 -40.8737   3.7136 LP             1 7L9201             0.0000
     39 ****       -35.8312 -38.3114   2.6031 LP             1 7L9201             0.0000
     40 ****       -36.6284 -38.0872   1.0819 LP             1 7L9201             0.0000
@<TRIPOS>BOND
    1    1    2 ar    
    2    2    3 ar    
    3    3    4 ar    
    4    4    5 ar    
    5    1    6 ar    
    6    5    6 ar    
    7    5    7 1     
    8    3    8 1     
    9    8    9 ar    
   10    9   10 ar    
   11    8   12 ar    
   12   11   12 ar    
   13   12   13 1     
   14   10   14 1     
   15   10   15 ar    
   16   11   15 ar    
   17    7   16 ar    
   18    7   17 ar    
   19   13   18 ar    
   20   13   19 ar    
   21   14   20 ar    
   22   14   21 ar    
   23    1   22 1     
   24    2   23 1     
   25    4   24 1     
   26   11   25 1     
   27    6   26 1     
   28    9   27 1     
   29   15   28 1     
   30   16   29 1     
   31   16   30 1     
   32   17   31 1     
   33   17   32 1     
   34   18   33 1     
   35   18   34 1     
   36   19   35 1     
   37   19   36 1     
   38   20   37 1     
   39   20   38 1     
   40   21   39 1     
   41   21   40 1     
@<TRIPOS>SUBSTRUCTURE
      1 7L9201         1
@<TRIPOS>SET
LONE_PAIRS      STATIC     ATOMS    <user>   **** ""
13 28 29 30 31 32 33 34 35 36 37 38 39 40
ATOM$BLUE        STATIC     ATOMS    COLORGROUP SYSTEM
13 28 29 30 31 32 33 34 35 36 37 38 39 40
@<TRIPOS>COMMENT
> <Gold.Version>
2022.3.0

> <Gold.Id.Protein>
unknown|6c5f_clean|pdb

> <Gold.Protein.ActiveResidues>
 LEU49   SER50   GLN58   ILE95   LEU96   ILE97   ARG98   PRO1    PHE2    LEU3   
 LEU30   LYS32   PRO33   ASP35   ARG36   VAL37   ASN38   ILE61   SER62   SER63  
 ILE64   GLY65   VAL66   VAL67   PHE100  LEU102  GLU103  SER104  TRP105  GLN106 
 ILE107  GLY108  LYS109  ILE110  THR112  VAL113  PRO1    GLN58   PHE2    LEU96  
 LEU30   LYS32   PRO33   PHE2    PRO1    PRO101  LEU102  GLU103  VAL37   ASN38  
 LEU49   SER50   ILE61   SER62   SER63   ILE64   ILE64   GLY65   VAL66   VAL67  
 PRO33   ARG36   VAL37   PRO1    SER104  TRP105  GLN106  ILE107  GLY108  LYS109 
 ILE110  PRO1    PHE2    LEU3    ILE110  VAL113  LEU96   ILE97   ARG98   PHE2   
 PRO1   

> <Gold.Score>
     Score     S(PLP)   S(hbond)     S(cho)   S(metal)  DE(clash)   DE(tors)     intcor
     37.41     -36.90       0.00       1.00       0.00       0.03       2.16       1.85

> <Gold.PLP.Fitness>
37.4051

> <Gold.PLP.PLP>
-36.9029

> <Gold.PLP.part.hbond>
0.0000

> <Gold.PLP.part.metal>
0.0000

> <Gold.PLP.part.buried>
-7.4645

> <Gold.PLP.part.nonpolar>
-30.6044

> <Gold.PLP.part.repulsive>
1.5579

> <Gold.PLP.ligand.clash>
0.0348

> <Gold.PLP.ligand.torsion>
2.1578

> <Gold.PLP.Chemscore.Hbond>
0.0000

> <Gold.PLP.Chemscore.CHOScore>
1.0000

> <Gold.PLP.Chemscore.Metal>
0.0000

> <Gold.Chemscore.Hbonds>
donor molecule, donor type, donor heavy atom, donor atom, acceptor molecule, acceptor atom, score
      L1  C    11    25       P1  1923  1.00

> <Gold.PLP.Chemscore.Internal.Correction>
1.8526

> <Gold.PLP.Reference.RMSD>
1.3009

> <Gold.Rescore>
     Score         DG    S(hbond)    S(metal)    S(lipo)     H(rot)  DE(clash)    DE(int)     intcor
     15.28     -18.78       0.00        0.00     113.68       0.00       0.28       3.22       ----

> <Gold.Chemscore.Fitness>
15.2813

> <Gold.Chemscore.DG>
-18.7804

> <Gold.Chemscore.ZeroCoef>
-5.4800

> <Gold.Chemscore.Hbond>
0.0000

> <Gold.Chemscore.Metal>
0.0000

> <Gold.Chemscore.Lipo>
113.6789

> <Gold.Chemscore.Internal_Hbond>
0.0000

> <Gold.Chemscore.DEClash>
0.2772

> <Gold.Chemscore.DEInternal>
3.2220

> <Gold.Chemscore.Rot>
0.0000

> <Gold.Chemscore.Internal.Correction>
   9.000000E+99

> <Gold.Chemscore.Reference.RMSD>
0.0000

> <Gold.Chemscore.Hbond.Weighted>
-0.0000

> <Gold.Chemscore.Metal.Weighted>
-0.0000

> <Gold.Chemscore.Lipo.Weighted>
-13.3004

> <Gold.Chemscore.Internal_Hbond.Weighted>
0.0000

> <Gold.Chemscore.DEClash.Weighted>
0.2772

> <Gold.Chemscore.DEInternal.Weighted>
3.2220

> <Gold.Chemscore.Rot.Weighted>
0.0000

> <Gold.Chemscore.Internal.Correction.Weighted>
   9.000000E+99

> <Gold.Reference.RMSD>
1.3009

#       Name:                F:ID
#       Creating user name   hitesit
#       Creation time:       Thu Mar  2 16:48:42 2023


#       File generated by GOLD software.
#

@<TRIPOS>MOLECULE
F:ID|prep_cristal|mol2|1|dock4
    40    41     1
SMALL
NO_CHARGES


@<TRIPOS>ATOM
      1 CAA        -46.8210 -41.8737   1.9334 C.ar           1 7L9201             0.0000
      2 CAB        -45.5887 -41.2846   1.7046 C.ar           1 7L9201             0.0000
      3 CAC        -44.4105 -41.9964   1.9139 C.ar           1 7L9201             0.0000
      4 CAD        -44.5032 -43.3124   2.3636 C.ar           1 7L9201             0.0000
      5 CAE        -45.7352 -43.9197   2.5985 C.ar           1 7L9201             0.0000
      6 CAF        -46.8944 -43.1833   2.3770 C.ar           1 7L9201             0.0000
      7 CAG        -45.8105 -45.3503   3.0845 C.2            1 7L9201             0.0000
      8 CAJ        -43.0715 -41.3811   1.6817 C.ar           1 7L9201             0.0000
      9 CAK        -42.8047 -40.9270   0.3907 C.ar           1 7L9201             0.0000
     10 CAL        -41.5573 -40.4048   0.0731 C.ar           1 7L9201             0.0000
     11 CAN        -40.8368 -40.7211   2.2242 C.ar           1 7L9201             0.0000
     12 CAO        -42.0606 -41.2284   2.6556 C.ar           1 7L9201             0.0000
     13 CAP        -42.2445 -41.5769   4.1185 C.2            1 7L9201             0.0000
     14 CAS        -41.2571 -39.9015  -1.3217 C.2            1 7L9201             0.0000
     15 NAM        -40.5675 -40.3241   0.9770 N.ar           1 7L9201             0.0000
     16 OAH        -44.6746 -46.0426   3.3268 O.co2          1 7L9201             0.0000
     17 OAI        -47.0135 -45.9366   3.2766 O.co2          1 7L9201             0.0000
     18 OAQ        -41.2050 -41.4350   4.9713 O.co2          1 7L9201             0.0000
     19 OAR        -43.4340 -42.0162   4.5880 O.co2          1 7L9201             0.0000
     20 OAT        -42.2366 -39.8664  -2.2530 O.co2          1 7L9201             0.0000
     21 OAU        -40.0094 -39.4870  -1.6368 O.co2          1 7L9201             0.0000
     22 H1         -47.7310 -41.3077   1.7645 H              1 7L9201             0.0000
     23 H2         -45.5408 -40.2573   1.3585 H              1 7L9201             0.0000
     24 H3         -43.5933 -43.8781   2.5349 H              1 7L9201             0.0000
     25 H4         -40.0423 -40.6384   2.9585 H              1 7L9201             0.0000
     26 H5         -47.8635 -43.6386   2.5535 H              1 7L9201             0.0000
     27 H6         -43.5747 -40.9856  -0.3715 H              1 7L9201             0.0000
     28 ****       -39.6627 -39.9799   0.7261 LP             1 7L9201             0.0000
     29 ****       -44.7244 -46.9883   3.6480 LP             1 7L9201             0.0000
     30 ****       -43.7848 -45.6089   3.1847 LP             1 7L9201             0.0000
     31 ****       -47.0633 -46.8823   3.5978 LP             1 7L9201             0.0000
     32 ****       -47.8536 -45.4246   3.0974 LP             1 7L9201             0.0000
     33 ****       -41.3195 -41.6543   5.9402 LP             1 7L9201             0.0000
     34 ****       -40.3215 -41.1107   4.6331 LP             1 7L9201             0.0000
     35 ****       -43.5392 -42.2331   5.5586 LP             1 7L9201             0.0000
     36 ****       -44.2085 -42.1243   3.9647 LP             1 7L9201             0.0000
     37 ****       -42.0382 -39.5339  -3.1750 LP             1 7L9201             0.0000
     38 ****       -43.1595 -40.1730  -2.0199 LP             1 7L9201             0.0000
     39 ****       -39.8110 -39.1545  -2.5588 LP             1 7L9201             0.0000
     40 ****       -39.2850 -39.5130  -0.9479 LP             1 7L9201             0.0000
@<TRIPOS>BOND
    1    1    2 ar    
    2    2    3 ar    
    3    3    4 ar    
    4    4    5 ar    
    5    1    6 ar    
    6    5    6 ar    
    7    5    7 1     
    8    3    8 1     
    9    8    9 ar    
   10    9   10 ar    
   11    8   12 ar    
   12   11   12 ar    
   13   12   13 1     
   14   10   14 1     
   15   10   15 ar    
   16   11   15 ar    
   17    7   16 ar    
   18    7   17 ar    
   19   13   18 ar    
   20   13   19 ar    
   21   14   20 ar    
   22   14   21 ar    
   23    1   22 1     
   24    2   23 1     
   25    4   24 1     
   26   11   25 1     
   27    6   26 1     
   28    9   27 1     
   29   15   28 1     
   30   16   29 1     
   31   16   30 1     
   32   17   31 1     
   33   17   32 1     
   34   18   33 1     
   35   18   34 1     
   36   19   35 1     
   37   19   36 1     
   38   20   37 1     
   39   20   38 1     
   40   21   39 1     
   41   21   40 1     
@<TRIPOS>SUBSTRUCTURE
      1 7L9201         1
@<TRIPOS>SET
LONE_PAIRS      STATIC     ATOMS    <user>   **** ""
13 28 29 30 31 32 33 34 35 36 37 38 39 40
ATOM$BLUE        STATIC     ATOMS    COLORGROUP SYSTEM
13 28 29 30 31 32 33 34 35 36 37 38 39 40
@<TRIPOS>COMMENT
> <Gold.Version>
2022.3.0

> <Gold.Id.Protein>
unknown|6c5f_clean|pdb

> <Gold.Protein.ActiveResidues>
 LEU49   SER50   GLN58   ILE95   LEU96   ILE97   ARG98   PRO1    PHE2    LEU3   
 LEU30   LYS32   PRO33   ASP35   ARG36   VAL37   ASN38   ILE61   SER62   SER63  
 ILE64   GLY65   VAL66   VAL67   PHE100  LEU102  GLU103  SER104  TRP105  GLN106 
 ILE107  GLY108  LYS109  ILE110  THR112  VAL113  PRO1    GLN58   PHE2    LEU96  
 LEU30   LYS32   PRO33   PHE2    PRO1    PRO101  LEU102  GLU103  VAL37   ASN38  
 LEU49   SER50   ILE61   SER62   SER63   ILE64   ILE64   GLY65   VAL66   VAL67  
 PRO33   ARG36   VAL37   PRO1    SER104  TRP105  GLN106  ILE107  GLY108  LYS109 
 ILE110  PRO1    PHE2    LEU3    ILE110  VAL113  LEU96   ILE97   ARG98   PHE2   
 PRO1   

> <Gold.Score>
     Score     S(PLP)   S(hbond)     S(cho)   S(metal)  DE(clash)   DE(tors)     intcor
     36.80     -37.21       0.00       0.00       0.00       0.00       1.13       1.85

> <Gold.PLP.Fitness>
36.8017

> <Gold.PLP.PLP>
-37.2056

> <Gold.PLP.part.hbond>
0.0000

> <Gold.PLP.part.metal>
0.0000

> <Gold.PLP.part.buried>
-3.2066

> <Gold.PLP.part.nonpolar>
-33.8000

> <Gold.PLP.part.repulsive>
0.3161

> <Gold.PLP.ligand.clash>
0.0000

> <Gold.PLP.ligand.torsion>
1.1283

> <Gold.PLP.Chemscore.Hbond>
0.0000

> <Gold.PLP.Chemscore.CHOScore>
0.0000

> <Gold.PLP.Chemscore.Metal>
0.0000

> <Gold.PLP.Chemscore.Internal.Correction>
1.8526

> <Gold.PLP.Reference.RMSD>
4.6621

> <Gold.Rescore>
     Score         DG    S(hbond)    S(metal)    S(lipo)     H(rot)  DE(clash)    DE(int)     intcor
     13.88     -17.73       0.00        0.00     104.68       0.00       0.00       3.85       ----

> <Gold.Chemscore.Fitness>
13.8792

> <Gold.Chemscore.DG>
-17.7281

> <Gold.Chemscore.ZeroCoef>
-5.4800

> <Gold.Chemscore.Hbond>
0.0000

> <Gold.Chemscore.Metal>
0.0000

> <Gold.Chemscore.Lipo>
104.6847

> <Gold.Chemscore.Internal_Hbond>
0.0000

> <Gold.Chemscore.DEClash>
0.0015

> <Gold.Chemscore.DEInternal>
3.8474

> <Gold.Chemscore.Rot>
0.0000

> <Gold.Chemscore.Internal.Correction>
   9.000000E+99

> <Gold.Chemscore.Reference.RMSD>
0.0000

> <Gold.Chemscore.Hbond.Weighted>
-0.0000

> <Gold.Chemscore.Metal.Weighted>
-0.0000

> <Gold.Chemscore.Lipo.Weighted>
-12.2481

> <Gold.Chemscore.Internal_Hbond.Weighted>
0.0000

> <Gold.Chemscore.DEClash.Weighted>
0.0015

> <Gold.Chemscore.DEInternal.Weighted>
3.8474

> <Gold.Chemscore.Rot.Weighted>
0.0000

> <Gold.Chemscore.Internal.Correction.Weighted>
   9.000000E+99

> <Gold.Reference.RMSD>
4.6621

#       Name:                F:ID
#       Creating user name   hitesit
#       Creation time:       Thu Mar  2 16:48:43 2023


#       File generated by GOLD software.
#

@<TRIPOS>MOLECULE
F:ID|prep_cristal|mol2|1|dock6
    40    41     1
SMALL
NO_CHARGES


@<TRIPOS>ATOM
      1 CAA        -35.8114 -42.5086   2.1769 C.ar           1 7L9201             0.0000
      2 CAB        -36.5354 -41.8814   1.1767 C.ar           1 7L9201             0.0000
      3 CAC        -37.5873 -41.0250   1.4908 C.ar           1 7L9201             0.0000
      4 CAD        -37.8953 -40.8198   2.8346 C.ar           1 7L9201             0.0000
      5 CAE        -37.1766 -41.4432   3.8528 C.ar           1 7L9201             0.0000
      6 CAF        -36.1292 -42.2908   3.5069 C.ar           1 7L9201             0.0000
      7 CAG        -37.5283 -41.2032   5.3044 C.2            1 7L9201             0.0000
      8 CAJ        -38.3864 -40.3440   0.4310 C.ar           1 7L9201             0.0000
      9 CAK        -39.0888 -41.1650  -0.4503 C.ar           1 7L9201             0.0000
     10 CAL        -39.8013 -40.6137  -1.5078 C.ar           1 7L9201             0.0000
     11 CAN        -39.1977 -38.5010  -0.8609 C.ar           1 7L9201             0.0000
     12 CAO        -38.4825 -38.9472   0.2484 C.ar           1 7L9201             0.0000
     13 CAP        -37.8627 -37.9329   1.1879 C.2            1 7L9201             0.0000
     14 CAS        -40.5739 -41.4925  -2.4667 C.2            1 7L9201             0.0000
     15 NAM        -39.8369 -39.2899  -1.7298 N.ar           1 7L9201             0.0000
     16 OAH        -38.8126 -41.3053   5.7146 O.co2          1 7L9201             0.0000
     17 OAI        -36.5584 -40.8866   6.1916 O.co2          1 7L9201             0.0000
     18 OAQ        -36.8506 -38.3113   2.0005 O.co2          1 7L9201             0.0000
     19 OAR        -38.2968 -36.6527   1.2190 O.co2          1 7L9201             0.0000
     20 OAT        -41.3067 -42.5264  -1.9954 O.co2          1 7L9201             0.0000
     21 OAU        -40.5315 -41.2440  -3.7951 O.co2          1 7L9201             0.0000
     22 H1         -34.9931 -43.1722   1.9178 H              1 7L9201             0.0000
     23 H2         -36.2802 -42.0593   0.1372 H              1 7L9201             0.0000
     24 H3         -38.7150 -40.1582   3.0942 H              1 7L9201             0.0000
     25 H4         -39.2422 -37.4302  -1.0303 H              1 7L9201             0.0000
     26 H5         -35.5570 -42.7850   4.2853 H              1 7L9201             0.0000
     27 H6         -39.0756 -42.2410  -0.3118 H              1 7L9201             0.0000
     28 ****       -40.3235 -38.9086  -2.5158 LP             1 7L9201             0.0000
     29 ****       -39.0452 -41.1467   6.6742 LP             1 7L9201             0.0000
     30 ****       -39.5300 -41.5394   5.0584 LP             1 7L9201             0.0000
     31 ****       -36.7910 -40.7280   7.1512 LP             1 7L9201             0.0000
     32 ****       -35.6086 -40.8111   5.8882 LP             1 7L9201             0.0000
     33 ****       -36.4297 -37.6466   2.6176 LP             1 7L9201             0.0000
     34 ****       -36.5230 -39.2560   1.9844 LP             1 7L9201             0.0000
     35 ****       -37.8698 -35.9949   1.8394 LP             1 7L9201             0.0000
     36 ****       -39.0449 -36.3637   0.6215 LP             1 7L9201             0.0000
     37 ****       -41.8174 -43.1073  -2.6292 LP             1 7L9201             0.0000
     38 ****       -41.3381 -42.7101  -1.0129 LP             1 7L9201             0.0000
     39 ****       -41.0422 -41.8249  -4.4290 LP             1 7L9201             0.0000
     40 ****       -39.9895 -40.4794  -4.1436 LP             1 7L9201             0.0000
@<TRIPOS>BOND
    1    1    2 ar    
    2    2    3 ar    
    3    3    4 ar    
    4    4    5 ar    
    5    1    6 ar    
    6    5    6 ar    
    7    5    7 1     
    8    3    8 1     
    9    8    9 ar    
   10    9   10 ar    
   11    8   12 ar    
   12   11   12 ar    
   13   12   13 1     
   14   10   14 1     
   15   10   15 ar    
   16   11   15 ar    
   17    7   16 ar    
   18    7   17 ar    
   19   13   18 ar    
   20   13   19 ar    
   21   14   20 ar    
   22   14   21 ar    
   23    1   22 1     
   24    2   23 1     
   25    4   24 1     
   26   11   25 1     
   27    6   26 1     
   28    9   27 1     
   29   15   28 1     
   30   16   29 1     
   31   16   30 1     
   32   17   31 1     
   33   17   32 1     
   34   18   33 1     
   35   18   34 1     
   36   19   35 1     
   37   19   36 1     
   38   20   37 1     
   39   20   38 1     
   40   21   39 1     
   41   21   40 1     
@<TRIPOS>SUBSTRUCTURE
      1 7L9201         1
@<TRIPOS>SET
LONE_PAIRS      STATIC     ATOMS    <user>   **** ""
13 28 29 30 31 32 33 34 35 36 37 38 39 40
ATOM$BLUE        STATIC     ATOMS    COLORGROUP SYSTEM
13 28 29 30 31 32 33 34 35 36 37 38 39 40
@<TRIPOS>COMMENT
> <Gold.Version>
2022.3.0

> <Gold.Id.Protein>
unknown|6c5f_clean|pdb

> <Gold.Protein.ActiveResidues>
 LEU49   SER50   GLN58   ILE95   LEU96   ILE97   ARG98   PRO1    PHE2    LEU3   
 LEU30   LYS32   PRO33   ASP35   ARG36   VAL37   ASN38   ILE61   SER62   SER63  
 ILE64   GLY65   VAL66   VAL67   PHE100  LEU102  GLU103  SER104  TRP105  GLN106 
 ILE107  GLY108  LYS109  ILE110  THR112  VAL113  PRO1    GLN58   PHE2    LEU96  
 LEU30   LYS32   PRO33   PHE2    PRO1    PRO101  LEU102  GLU103  VAL37   ASN38  
 LEU49   SER50   ILE61   SER62   SER63   ILE64   ILE64   GLY65   VAL66   VAL67  
 PRO33   ARG36   VAL37   PRO1    SER104  TRP105  GLN106  ILE107  GLY108  LYS109 
 ILE110  PRO1    PHE2    LEU3    ILE110  VAL113  LEU96   ILE97   ARG98   PHE2   
 PRO1   

> <Gold.Score>
     Score     S(PLP)   S(hbond)     S(cho)   S(metal)  DE(clash)   DE(tors)     intcor
     36.63     -40.55       0.00       0.00       0.00       0.00       2.89       1.85

> <Gold.PLP.Fitness>
36.6332

> <Gold.PLP.PLP>
-40.5516

> <Gold.PLP.part.hbond>
0.0000

> <Gold.PLP.part.metal>
0.0000

> <Gold.PLP.part.buried>
-5.9522

> <Gold.PLP.part.nonpolar>
-36.0055

> <Gold.PLP.part.repulsive>
2.0698

> <Gold.PLP.ligand.clash>
0.0000

> <Gold.PLP.ligand.torsion>
2.8855

> <Gold.PLP.Chemscore.Hbond>
0.0000

> <Gold.PLP.Chemscore.CHOScore>
0.0000

> <Gold.PLP.Chemscore.Metal>
0.0000

> <Gold.PLP.Chemscore.Internal.Correction>
1.8526

> <Gold.PLP.Reference.RMSD>
5.2226

> <Gold.Rescore>
     Score         DG    S(hbond)    S(metal)    S(lipo)     H(rot)  DE(clash)    DE(int)     intcor
     13.63     -19.66       0.00        0.00     121.22       0.00       0.48       5.56       ----

> <Gold.Chemscore.Fitness>
13.6252

> <Gold.Chemscore.DG>
-19.6626

> <Gold.Chemscore.ZeroCoef>
-5.4800

> <Gold.Chemscore.Hbond>
0.0000

> <Gold.Chemscore.Metal>
0.0000

> <Gold.Chemscore.Lipo>
121.2184

> <Gold.Chemscore.Internal_Hbond>
0.0000

> <Gold.Chemscore.DEClash>
0.4799

> <Gold.Chemscore.DEInternal>
5.5574

> <Gold.Chemscore.Rot>
0.0000

> <Gold.Chemscore.Internal.Correction>
   9.000000E+99

> <Gold.Chemscore.Reference.RMSD>
0.0000

> <Gold.Chemscore.Hbond.Weighted>
-0.0000

> <Gold.Chemscore.Metal.Weighted>
-0.0000

> <Gold.Chemscore.Lipo.Weighted>
-14.1826

> <Gold.Chemscore.Internal_Hbond.Weighted>
0.0000

> <Gold.Chemscore.DEClash.Weighted>
0.4799

> <Gold.Chemscore.DEInternal.Weighted>
5.5574

> <Gold.Chemscore.Rot.Weighted>
0.0000

> <Gold.Chemscore.Internal.Correction.Weighted>
   9.000000E+99

> <Gold.Reference.RMSD>
5.2226

#       Name:                F:ID
#       Creating user name   hitesit
#       Creation time:       Thu Mar  2 16:48:45 2023


#       File generated by GOLD software.
#

@<TRIPOS>MOLECULE
F:ID|prep_cristal|mol2|1|dock9
    40    41     1
SMALL
NO_CHARGES


@<TRIPOS>ATOM
      1 CAA        -47.0049 -41.9010   2.0214 C.ar           1 7L9201             0.0000
      2 CAB        -45.7570 -41.3177   1.8777 C.ar           1 7L9201             0.0000
      3 CAC        -44.5985 -42.0833   1.9788 C.ar           1 7L9201             0.0000
      4 CAD        -44.7267 -43.4477   2.2331 C.ar           1 7L9201             0.0000
      5 CAE        -45.9747 -44.0499   2.3802 C.ar           1 7L9201             0.0000
      6 CAF        -47.1137 -43.2588   2.2706 C.ar           1 7L9201             0.0000
      7 CAG        -46.0886 -45.5334   2.6537 C.2            1 7L9201             0.0000
      8 CAJ        -43.2433 -41.4764   1.8353 C.ar           1 7L9201             0.0000
      9 CAK        -42.8989 -41.0016   0.5703 C.ar           1 7L9201             0.0000
     10 CAL        -41.6310 -40.4855   0.3346 C.ar           1 7L9201             0.0000
     11 CAN        -41.0381 -40.8472   2.5173 C.ar           1 7L9201             0.0000
     12 CAO        -42.2889 -41.3507   2.8682 C.ar           1 7L9201             0.0000
     13 CAP        -42.5595 -41.7238   4.3115 C.2            1 7L9201             0.0000
     14 CAS        -41.2470 -39.9600  -1.0311 C.2            1 7L9201             0.0000
     15 NAM        -40.6942 -40.4303   1.2951 N.ar           1 7L9201             0.0000
     16 OAH        -44.9767 -46.3019   2.6875 O.co2          1 7L9201             0.0000
     17 OAI        -47.3023 -46.0908   2.8643 O.co2          1 7L9201             0.0000
     18 OAQ        -41.5852 -41.5595   5.2343 O.co2          1 7L9201             0.0000
     19 OAR        -43.7629 -42.2071   4.6945 O.co2          1 7L9201             0.0000
     20 OAT        -42.1663 -39.9158  -2.0215 O.co2          1 7L9201             0.0000
     21 OAU        -39.9844 -39.5347  -1.2613 O.co2          1 7L9201             0.0000
     22 H1         -47.8994 -41.2927   1.9386 H              1 7L9201             0.0000
     23 H2         -45.6815 -40.2528   1.6842 H              1 7L9201             0.0000
     24 H3         -43.8324 -44.0561   2.3184 H              1 7L9201             0.0000
     25 H4         -40.2865 -40.7851   3.2973 H              1 7L9201             0.0000
     26 H5         -48.0947 -43.7090   2.3814 H              1 7L9201             0.0000
     27 H6         -43.6242 -41.0393  -0.2358 H              1 7L9201             0.0000
     28 ****       -39.7737 -40.0900   1.1029 LP             1 7L9201             0.0000
     29 ****       -45.0519 -47.2825   2.8683 LP             1 7L9201             0.0000
     30 ****       -44.0790 -45.8896   2.5318 LP             1 7L9201             0.0000
     31 ****       -47.3775 -47.0714   3.0451 LP             1 7L9201             0.0000
     32 ****       -48.1247 -45.5224   2.8393 LP             1 7L9201             0.0000
     33 ****       -41.7576 -41.7948   6.1908 LP             1 7L9201             0.0000
     34 ****       -40.6921 -41.2026   4.9603 LP             1 7L9201             0.0000
     35 ****       -43.9262 -42.4398   5.6532 LP             1 7L9201             0.0000
     36 ****       -44.4895 -42.3320   4.0189 LP             1 7L9201             0.0000
     37 ****       -41.9125 -39.5686  -2.9243 LP             1 7L9201             0.0000
     38 ****       -43.1002 -40.2304  -1.8513 LP             1 7L9201             0.0000
     39 ****       -39.7305 -39.1874  -2.1640 LP             1 7L9201             0.0000
     40 ****       -39.3044 -39.5674  -0.5287 LP             1 7L9201             0.0000
@<TRIPOS>BOND
    1    1    2 ar    
    2    2    3 ar    
    3    3    4 ar    
    4    4    5 ar    
    5    1    6 ar    
    6    5    6 ar    
    7    5    7 1     
    8    3    8 1     
    9    8    9 ar    
   10    9   10 ar    
   11    8   12 ar    
   12   11   12 ar    
   13   12   13 1     
   14   10   14 1     
   15   10   15 ar    
   16   11   15 ar    
   17    7   16 ar    
   18    7   17 ar    
   19   13   18 ar    
   20   13   19 ar    
   21   14   20 ar    
   22   14   21 ar    
   23    1   22 1     
   24    2   23 1     
   25    4   24 1     
   26   11   25 1     
   27    6   26 1     
   28    9   27 1     
   29   15   28 1     
   30   16   29 1     
   31   16   30 1     
   32   17   31 1     
   33   17   32 1     
   34   18   33 1     
   35   18   34 1     
   36   19   35 1     
   37   19   36 1     
   38   20   37 1     
   39   20   38 1     
   40   21   39 1     
   41   21   40 1     
@<TRIPOS>SUBSTRUCTURE
      1 7L9201         1
@<TRIPOS>SET
LONE_PAIRS      STATIC     ATOMS    <user>   **** ""
13 28 29 30 31 32 33 34 35 36 37 38 39 40
ATOM$BLUE        STATIC     ATOMS    COLORGROUP SYSTEM
13 28 29 30 31 32 33 34 35 36 37 38 39 40
@<TRIPOS>COMMENT
> <Gold.Version>
2022.3.0

> <Gold.Id.Protein>
unknown|6c5f_clean|pdb

> <Gold.Protein.ActiveResidues>
 LEU49   SER50   GLN58   ILE95   LEU96   ILE97   ARG98   PRO1    PHE2    LEU3   
 LEU30   LYS32   PRO33   ASP35   ARG36   VAL37   ASN38   ILE61   SER62   SER63  
 ILE64   GLY65   VAL66   VAL67   PHE100  LEU102  GLU103  SER104  TRP105  GLN106 
 ILE107  GLY108  LYS109  ILE110  THR112  VAL113  PRO1    GLN58   PHE2    LEU96  
 LEU30   LYS32   PRO33   PHE2    PRO1    PRO101  LEU102  GLU103  VAL37   ASN38  
 LEU49   SER50   ILE61   SER62   SER63   ILE64   ILE64   GLY65   VAL66   VAL67  
 PRO33   ARG36   VAL37   PRO1    SER104  TRP105  GLN106  ILE107  GLY108  LYS109 
 ILE110  PRO1    PHE2    LEU3    ILE110  VAL113  LEU96   ILE97   ARG98   PHE2   
 PRO1   

> <Gold.Score>
     Score     S(PLP)   S(hbond)     S(cho)   S(metal)  DE(clash)   DE(tors)     intcor
     36.62     -37.36       0.00       0.00       0.00       0.00       1.29       1.85

> <Gold.PLP.Fitness>
36.6238

> <Gold.PLP.PLP>
-37.3569

> <Gold.PLP.part.hbond>
0.0000

> <Gold.PLP.part.metal>
0.0000

> <Gold.PLP.part.buried>
-3.7030

> <Gold.PLP.part.nonpolar>
-34.1479

> <Gold.PLP.part.repulsive>
0.2826

> <Gold.PLP.ligand.clash>
0.0000

> <Gold.PLP.ligand.torsion>
1.2929

> <Gold.PLP.Chemscore.Hbond>
0.0000

> <Gold.PLP.Chemscore.CHOScore>
0.0000

> <Gold.PLP.Chemscore.Metal>
0.0000

> <Gold.PLP.Chemscore.Internal.Correction>
1.8526

> <Gold.PLP.Reference.RMSD>
4.8823

> <Gold.Rescore>
     Score         DG    S(hbond)    S(metal)    S(lipo)     H(rot)  DE(clash)    DE(int)     intcor
     14.96     -17.74       0.00        0.00     104.82       0.00       0.05       2.74       ----

> <Gold.Chemscore.Fitness>
14.9612

> <Gold.Chemscore.DG>
-17.7440

> <Gold.Chemscore.ZeroCoef>
-5.4800

> <Gold.Chemscore.Hbond>
0.0000

> <Gold.Chemscore.Metal>
0.0000

> <Gold.Chemscore.Lipo>
104.8201

> <Gold.Chemscore.Internal_Hbond>
0.0000

> <Gold.Chemscore.DEClash>
0.0456

> <Gold.Chemscore.DEInternal>
2.7371

> <Gold.Chemscore.Rot>
0.0000

> <Gold.Chemscore.Internal.Correction>
   9.000000E+99

> <Gold.Chemscore.Reference.RMSD>
0.0000

> <Gold.Chemscore.Hbond.Weighted>
-0.0000

> <Gold.Chemscore.Metal.Weighted>
-0.0000

> <Gold.Chemscore.Lipo.Weighted>
-12.2640

> <Gold.Chemscore.Internal_Hbond.Weighted>
0.0000

> <Gold.Chemscore.DEClash.Weighted>
0.0456

> <Gold.Chemscore.DEInternal.Weighted>
2.7371

> <Gold.Chemscore.Rot.Weighted>
0.0000

> <Gold.Chemscore.Internal.Correction.Weighted>
   9.000000E+99

> <Gold.Reference.RMSD>
4.8823

#       Name:                F:ID
#       Creating user name   hitesit
#       Creation time:       Thu Mar  2 16:48:46 2023


#       File generated by GOLD software.
#

@<TRIPOS>MOLECULE
F:ID|prep_cristal|mol2|1|dock10
    40    41     1
SMALL
NO_CHARGES


@<TRIPOS>ATOM
      1 CAA        -47.0249 -41.9370   1.9420 C.ar           1 7L9201             0.0000
      2 CAB        -45.7857 -41.3341   1.8044 C.ar           1 7L9201             0.0000
      3 CAC        -44.6151 -42.0657   1.9862 C.ar           1 7L9201             0.0000
      4 CAD        -44.7225 -43.4160   2.3146 C.ar           1 7L9201             0.0000
      5 CAE        -45.9616 -44.0375   2.4567 C.ar           1 7L9201             0.0000
      6 CAF        -47.1129 -43.2805   2.2656 C.ar           1 7L9201             0.0000
      7 CAG        -46.0528 -45.5052   2.8116 C.2            1 7L9201             0.0000
      8 CAJ        -43.2691 -41.4367   1.8508 C.ar           1 7L9201             0.0000
      9 CAK        -42.9092 -40.9916   0.5794 C.ar           1 7L9201             0.0000
     10 CAL        -41.6470 -40.4577   0.3529 C.ar           1 7L9201             0.0000
     11 CAN        -41.0899 -40.7453   2.5559 C.ar           1 7L9201             0.0000
     12 CAO        -42.3375 -41.2630   2.8976 C.ar           1 7L9201             0.0000
     13 CAP        -42.6291 -41.5998   4.3457 C.2            1 7L9201             0.0000
     14 CAS        -41.2465 -39.9641  -1.0200 C.2            1 7L9201             0.0000
     15 NAM        -40.7303 -40.3569   1.3289 N.ar           1 7L9201             0.0000
     16 OAH        -44.9252 -46.2219   3.0190 O.co2          1 7L9201             0.0000
     17 OAI        -47.2619 -46.1003   2.9215 O.co2          1 7L9201             0.0000
     18 OAQ        -43.8533 -42.0607   4.6873 O.co2          1 7L9201             0.0000
     19 OAR        -41.6819 -41.4585   5.3003 O.co2          1 7L9201             0.0000
     20 OAT        -42.1573 -39.9305  -2.0186 O.co2          1 7L9201             0.0000
     21 OAU        -39.9777 -39.5566  -1.2482 O.co2          1 7L9201             0.0000
     22 H1         -47.9289 -41.3553   1.7959 H              1 7L9201             0.0000
     23 H2         -45.7265 -40.2804   1.5523 H              1 7L9201             0.0000
     24 H3         -43.8187 -43.9976   2.4632 H              1 7L9201             0.0000
     25 H4         -40.3550 -40.6463   3.3479 H              1 7L9201             0.0000
     26 H5         -48.0872 -43.7463   2.3711 H              1 7L9201             0.0000
     27 H6         -43.6178 -41.0665  -0.2388 H              1 7L9201             0.0000
     28 ****       -39.8129 -40.0043   1.1445 LP             1 7L9201             0.0000
     29 ****       -44.9855 -47.1921   3.2536 LP             1 7L9201             0.0000
     30 ****       -44.0310 -45.7818   2.9377 LP             1 7L9201             0.0000
     31 ****       -47.3221 -47.0705   3.1561 LP             1 7L9201             0.0000
     32 ****       -48.0958 -45.5702   2.7682 LP             1 7L9201             0.0000
     33 ****       -44.0521 -42.2939   5.6392 LP             1 7L9201             0.0000
     34 ****       -44.5600 -42.1685   3.9881 LP             1 7L9201             0.0000
     35 ****       -41.8898 -41.6942   6.2497 LP             1 7L9201             0.0000
     36 ****       -40.7736 -41.1184   5.0570 LP             1 7L9201             0.0000
     37 ****       -41.8926 -39.6043  -2.9261 LP             1 7L9201             0.0000
     38 ****       -43.0958 -40.2319  -1.8498 LP             1 7L9201             0.0000
     39 ****       -39.7129 -39.2304  -2.1557 LP             1 7L9201             0.0000
     40 ****       -39.3040 -39.5814  -0.5096 LP             1 7L9201             0.0000
@<TRIPOS>BOND
    1    1    2 ar    
    2    2    3 ar    
    3    3    4 ar    
    4    4    5 ar    
    5    1    6 ar    
    6    5    6 ar    
    7    5    7 1     
    8    3    8 1     
    9    8    9 ar    
   10    9   10 ar    
   11    8   12 ar    
   12   11   12 ar    
   13   12   13 1     
   14   10   14 1     
   15   10   15 ar    
   16   11   15 ar    
   17    7   16 ar    
   18    7   17 ar    
   19   13   18 ar    
   20   13   19 ar    
   21   14   20 ar    
   22   14   21 ar    
   23    1   22 1     
   24    2   23 1     
   25    4   24 1     
   26   11   25 1     
   27    6   26 1     
   28    9   27 1     
   29   15   28 1     
   30   16   29 1     
   31   16   30 1     
   32   17   31 1     
   33   17   32 1     
   34   18   33 1     
   35   18   34 1     
   36   19   35 1     
   37   19   36 1     
   38   20   37 1     
   39   20   38 1     
   40   21   39 1     
   41   21   40 1     
@<TRIPOS>SUBSTRUCTURE
      1 7L9201         1
@<TRIPOS>SET
LONE_PAIRS      STATIC     ATOMS    <user>   **** ""
13 28 29 30 31 32 33 34 35 36 37 38 39 40
ATOM$BLUE        STATIC     ATOMS    COLORGROUP SYSTEM
13 28 29 30 31 32 33 34 35 36 37 38 39 40
@<TRIPOS>COMMENT
> <Gold.Version>
2022.3.0

> <Gold.Id.Protein>
unknown|6c5f_clean|pdb

> <Gold.Protein.ActiveResidues>
 LEU49   SER50   GLN58   ILE95   LEU96   ILE97   ARG98   PRO1    PHE2    LEU3   
 LEU30   LYS32   PRO33   ASP35   ARG36   VAL37   ASN38   ILE61   SER62   SER63  
 ILE64   GLY65   VAL66   VAL67   PHE100  LEU102  GLU103  SER104  TRP105  GLN106 
 ILE107  GLY108  LYS109  ILE110  THR112  VAL113  PRO1    GLN58   PHE2    LEU96  
 LEU30   LYS32   PRO33   PHE2    PRO1    PRO101  LEU102  GLU103  VAL37   ASN38  
 LEU49   SER50   ILE61   SER62   SER63   ILE64   ILE64   GLY65   VAL66   VAL67  
 PRO33   ARG36   VAL37   PRO1    SER104  TRP105  GLN106  ILE107  GLY108  LYS109 
 ILE110  PRO1    PHE2    LEU3    ILE110  VAL113  LEU96   ILE97   ARG98   PHE2   
 PRO1   

> <Gold.Score>
     Score     S(PLP)   S(hbond)     S(cho)   S(metal)  DE(clash)   DE(tors)     intcor
     36.54     -37.22       0.00       0.00       0.00       0.00       1.26       1.85

> <Gold.PLP.Fitness>
36.5411

> <Gold.PLP.PLP>
-37.2170

> <Gold.PLP.part.hbond>
0.0000

> <Gold.PLP.part.metal>
0.0000

> <Gold.PLP.part.buried>
-3.6164

> <Gold.PLP.part.nonpolar>
-34.1337

> <Gold.PLP.part.repulsive>
0.2789

> <Gold.PLP.ligand.clash>
0.0000

> <Gold.PLP.ligand.torsion>
1.2643

> <Gold.PLP.Chemscore.Hbond>
0.0000

> <Gold.PLP.Chemscore.CHOScore>
0.0000

> <Gold.PLP.Chemscore.Metal>
0.0000

> <Gold.PLP.Chemscore.Internal.Correction>
1.8526

> <Gold.PLP.Reference.RMSD>
4.8704

> <Gold.Rescore>
     Score         DG    S(hbond)    S(metal)    S(lipo)     H(rot)  DE(clash)    DE(int)     intcor
     15.22     -18.02       0.00        0.00     107.20       0.00       0.05       2.75       ----

> <Gold.Chemscore.Fitness>
15.2232

> <Gold.Chemscore.DG>
-18.0219

> <Gold.Chemscore.ZeroCoef>
-5.4800

> <Gold.Chemscore.Hbond>
0.0000

> <Gold.Chemscore.Metal>
0.0000

> <Gold.Chemscore.Lipo>
107.1959

> <Gold.Chemscore.Internal_Hbond>
0.0000

> <Gold.Chemscore.DEClash>
0.0465

> <Gold.Chemscore.DEInternal>
2.7522

> <Gold.Chemscore.Rot>
0.0000

> <Gold.Chemscore.Internal.Correction>
   9.000000E+99

> <Gold.Chemscore.Reference.RMSD>
0.0000

> <Gold.Chemscore.Hbond.Weighted>
-0.0000

> <Gold.Chemscore.Metal.Weighted>
-0.0000

> <Gold.Chemscore.Lipo.Weighted>
-12.5419

> <Gold.Chemscore.Internal_Hbond.Weighted>
0.0000

> <Gold.Chemscore.DEClash.Weighted>
0.0465

> <Gold.Chemscore.DEInternal.Weighted>
2.7522

> <Gold.Chemscore.Rot.Weighted>
0.0000

> <Gold.Chemscore.Internal.Correction.Weighted>
   9.000000E+99

> <Gold.Reference.RMSD>
4.8704

#       Name:                F:ID
#       Creating user name   hitesit
#       Creation time:       Thu Mar  2 16:48:45 2023


#       File generated by GOLD software.
#

@<TRIPOS>MOLECULE
F:ID|prep_cristal|mol2|1|dock8
    40    41     1
SMALL
NO_CHARGES


@<TRIPOS>ATOM
      1 CAA        -46.7475 -41.8813   1.9017 C.ar           1 7L9201             0.0000
      2 CAB        -45.5143 -41.3016   1.6541 C.ar           1 7L9201             0.0000
      3 CAC        -44.3364 -41.9849   1.9443 C.ar           1 7L9201             0.0000
      4 CAD        -44.4303 -43.2622   2.4942 C.ar           1 7L9201             0.0000
      5 CAE        -45.6632 -43.8595   2.7493 C.ar           1 7L9201             0.0000
      6 CAF        -46.8221 -43.1526   2.4454 C.ar           1 7L9201             0.0000
      7 CAG        -45.7398 -45.2481   3.3446 C.2            1 7L9201             0.0000
      8 CAJ        -42.9967 -41.3785   1.6936 C.ar           1 7L9201             0.0000
      9 CAK        -42.7386 -40.9416   0.3949 C.ar           1 7L9201             0.0000
     10 CAL        -41.4915 -40.4290   0.0607 C.ar           1 7L9201             0.0000
     11 CAN        -40.7547 -40.7218   2.2096 C.ar           1 7L9201             0.0000
     12 CAO        -41.9772 -41.2183   2.6572 C.ar           1 7L9201             0.0000
     13 CAP        -42.1505 -41.5477   4.1258 C.2            1 7L9201             0.0000
     14 CAS        -41.2007 -39.9444  -1.3427 C.2            1 7L9201             0.0000
     15 NAM        -40.4940 -40.3415   0.9553 N.ar           1 7L9201             0.0000
     16 OAH        -44.6081 -45.8870   3.7178 O.co2          1 7L9201             0.0000
     17 OAI        -46.9398 -45.8504   3.5035 O.co2          1 7L9201             0.0000
     18 OAQ        -41.0799 -41.4948   4.9497 O.co2          1 7L9201             0.0000
     19 OAR        -43.3603 -41.8823   4.6288 O.co2          1 7L9201             0.0000
     20 OAT        -39.9480 -39.5640  -1.6805 O.co2          1 7L9201             0.0000
     21 OAU        -42.1934 -39.8918  -2.2590 O.co2          1 7L9201             0.0000
     22 H1         -47.6573 -41.3380   1.6691 H              1 7L9201             0.0000
     23 H2         -45.4656 -40.3043   1.2294 H              1 7L9201             0.0000
     24 H3         -43.5208 -43.8050   2.7292 H              1 7L9201             0.0000
     25 H4         -39.9539 -40.6336   2.9363 H              1 7L9201             0.0000
     26 H5         -47.7918 -43.6007   2.6360 H              1 7L9201             0.0000
     27 H6         -43.5150 -41.0062  -0.3602 H              1 7L9201             0.0000
     28 ****       -39.5898 -40.0044   0.6928 LP             1 7L9201             0.0000
     29 ****       -44.6587 -46.8049   4.1113 LP             1 7L9201             0.0000
     30 ****       -43.7205 -45.4416   3.6003 LP             1 7L9201             0.0000
     31 ****       -46.9904 -46.7683   3.8970 LP             1 7L9201             0.0000
     32 ****       -47.7768 -45.3779   3.2275 LP             1 7L9201             0.0000
     33 ****       -41.1865 -41.7022   5.9221 LP             1 7L9201             0.0000
     34 ****       -40.1813 -41.2483   4.5866 LP             1 7L9201             0.0000
     35 ****       -43.4574 -42.0881   5.6026 LP             1 7L9201             0.0000
     36 ****       -44.1578 -41.9240   4.0271 LP             1 7L9201             0.0000
     37 ****       -39.7557 -39.2436  -2.6080 LP             1 7L9201             0.0000
     38 ****       -39.2137 -39.6029  -1.0027 LP             1 7L9201             0.0000
     39 ****       -42.0012 -39.5714  -3.1866 LP             1 7L9201             0.0000
     40 ****       -43.1199 -40.1732  -2.0091 LP             1 7L9201             0.0000
@<TRIPOS>BOND
    1    1    2 ar    
    2    2    3 ar    
    3    3    4 ar    
    4    4    5 ar    
    5    1    6 ar    
    6    5    6 ar    
    7    5    7 1     
    8    3    8 1     
    9    8    9 ar    
   10    9   10 ar    
   11    8   12 ar    
   12   11   12 ar    
   13   12   13 1     
   14   10   14 1     
   15   10   15 ar    
   16   11   15 ar    
   17    7   16 ar    
   18    7   17 ar    
   19   13   18 ar    
   20   13   19 ar    
   21   14   20 ar    
   22   14   21 ar    
   23    1   22 1     
   24    2   23 1     
   25    4   24 1     
   26   11   25 1     
   27    6   26 1     
   28    9   27 1     
   29   15   28 1     
   30   16   29 1     
   31   16   30 1     
   32   17   31 1     
   33   17   32 1     
   34   18   33 1     
   35   18   34 1     
   36   19   35 1     
   37   19   36 1     
   38   20   37 1     
   39   20   38 1     
   40   21   39 1     
   41   21   40 1     
@<TRIPOS>SUBSTRUCTURE
      1 7L9201         1
@<TRIPOS>SET
LONE_PAIRS      STATIC     ATOMS    <user>   **** ""
13 28 29 30 31 32 33 34 35 36 37 38 39 40
ATOM$BLUE        STATIC     ATOMS    COLORGROUP SYSTEM
13 28 29 30 31 32 33 34 35 36 37 38 39 40
@<TRIPOS>COMMENT
> <Gold.Version>
2022.3.0

> <Gold.Id.Protein>
unknown|6c5f_clean|pdb

> <Gold.Protein.ActiveResidues>
 LEU49   SER50   GLN58   ILE95   LEU96   ILE97   ARG98   PRO1    PHE2    LEU3   
 LEU30   LYS32   PRO33   ASP35   ARG36   VAL37   ASN38   ILE61   SER62   SER63  
 ILE64   GLY65   VAL66   VAL67   PHE100  LEU102  GLU103  SER104  TRP105  GLN106 
 ILE107  GLY108  LYS109  ILE110  THR112  VAL113  PRO1    GLN58   PHE2    LEU96  
 LEU30   LYS32   PRO33   PHE2    PRO1    PRO101  LEU102  GLU103  VAL37   ASN38  
 LEU49   SER50   ILE61   SER62   SER63   ILE64   ILE64   GLY65   VAL66   VAL67  
 PRO33   ARG36   VAL37   PRO1    SER104  TRP105  GLN106  ILE107  GLY108  LYS109 
 ILE110  PRO1    PHE2    LEU3    ILE110  VAL113  LEU96   ILE97   ARG98   PHE2   
 PRO1   

> <Gold.Score>
     Score     S(PLP)   S(hbond)     S(cho)   S(metal)  DE(clash)   DE(tors)     intcor
     36.45     -36.72       0.00       0.00       0.00       0.00       1.06       1.85

> <Gold.PLP.Fitness>
36.4507

> <Gold.PLP.PLP>
-36.7215

> <Gold.PLP.part.hbond>
0.0000

> <Gold.PLP.part.metal>
0.0000

> <Gold.PLP.part.buried>
-4.0116

> <Gold.PLP.part.nonpolar>
-32.7481

> <Gold.PLP.part.repulsive>
0.3033

> <Gold.PLP.ligand.clash>
0.0000

> <Gold.PLP.ligand.torsion>
1.0617

> <Gold.PLP.Chemscore.Hbond>
0.0000

> <Gold.PLP.Chemscore.CHOScore>
0.0000

> <Gold.PLP.Chemscore.Metal>
0.0000

> <Gold.PLP.Chemscore.Internal.Correction>
1.8526

> <Gold.PLP.Reference.RMSD>
4.5930

> <Gold.Rescore>
     Score         DG    S(hbond)    S(metal)    S(lipo)     H(rot)  DE(clash)    DE(int)     intcor
     14.44     -18.27       0.00        0.00     109.31       0.00       0.04       3.79       ----

> <Gold.Chemscore.Fitness>
14.4353

> <Gold.Chemscore.DG>
-18.2689

> <Gold.Chemscore.ZeroCoef>
-5.4800

> <Gold.Chemscore.Hbond>
0.0000

> <Gold.Chemscore.Metal>
0.0000

> <Gold.Chemscore.Lipo>
109.3066

> <Gold.Chemscore.Internal_Hbond>
0.0000

> <Gold.Chemscore.DEClash>
0.0408

> <Gold.Chemscore.DEInternal>
3.7927

> <Gold.Chemscore.Rot>
0.0000

> <Gold.Chemscore.Internal.Correction>
   9.000000E+99

> <Gold.Chemscore.Reference.RMSD>
0.0000

> <Gold.Chemscore.Hbond.Weighted>
-0.0000

> <Gold.Chemscore.Metal.Weighted>
-0.0000

> <Gold.Chemscore.Lipo.Weighted>
-12.7889

> <Gold.Chemscore.Internal_Hbond.Weighted>
0.0000

> <Gold.Chemscore.DEClash.Weighted>
0.0408

> <Gold.Chemscore.DEInternal.Weighted>
3.7927

> <Gold.Chemscore.Rot.Weighted>
0.0000

> <Gold.Chemscore.Internal.Correction.Weighted>
   9.000000E+99

> <Gold.Reference.RMSD>
4.5930

#       Name:                F:ID
#       Creating user name   hitesit
#       Creation time:       Thu Mar  2 16:48:40 2023


#       File generated by GOLD software.
#

@<TRIPOS>MOLECULE
F:ID|prep_cristal|mol2|1|dock2
    40    41     1
SMALL
NO_CHARGES


@<TRIPOS>ATOM
      1 CAA        -37.1883 -39.1861   1.4511 C.ar           1 7L9201             0.0000
      2 CAB        -38.5247 -39.2427   1.0922 C.ar           1 7L9201             0.0000
      3 CAC        -39.1960 -40.4614   1.0409 C.ar           1 7L9201             0.0000
      4 CAD        -38.4885 -41.6207   1.3543 C.ar           1 7L9201             0.0000
      5 CAE        -37.1437 -41.5808   1.7173 C.ar           1 7L9201             0.0000
      6 CAF        -36.5017 -40.3475   1.7625 C.ar           1 7L9201             0.0000
      7 CAG        -36.3973 -42.8524   2.0553 C.2            1 7L9201             0.0000
      8 CAJ        -40.6330 -40.5486   0.6498 C.ar           1 7L9201             0.0000
      9 CAK        -41.5478 -40.7974   1.6722 C.ar           1 7L9201             0.0000
     10 CAL        -42.8966 -40.9623   1.3836 C.ar           1 7L9201             0.0000
     11 CAN        -42.4988 -40.6204  -0.8461 C.ar           1 7L9201             0.0000
     12 CAO        -41.1345 -40.4056  -0.6624 C.ar           1 7L9201             0.0000
     13 CAP        -40.2762 -40.0302  -1.8531 C.2            1 7L9201             0.0000
     14 CAS        -43.9008 -41.2251   2.4842 C.2            1 7L9201             0.0000
     15 NAM        -43.3696 -40.8998   0.1284 N.ar           1 7L9201             0.0000
     16 OAH        -36.8588 -44.0446   1.6149 O.co2          1 7L9201             0.0000
     17 OAI        -35.2687 -42.7969   2.7978 O.co2          1 7L9201             0.0000
     18 OAQ        -40.5985 -40.5001  -3.0791 O.co2          1 7L9201             0.0000
     19 OAR        -39.2002 -39.2235  -1.7123 O.co2          1 7L9201             0.0000
     20 OAT        -45.2112 -41.3682   2.1837 O.co2          1 7L9201             0.0000
     21 OAU        -43.4877 -41.3166   3.7684 O.co2          1 7L9201             0.0000
     22 H1         -36.6781 -38.2293   1.4886 H              1 7L9201             0.0000
     23 H2         -39.0542 -38.3276   0.8484 H              1 7L9201             0.0000
     24 H3         -38.9975 -42.5780   1.3147 H              1 7L9201             0.0000
     25 H4         -42.8847 -40.5518  -1.8578 H              1 7L9201             0.0000
     26 H5         -35.4549 -40.2953   2.0435 H              1 7L9201             0.0000
     27 H6         -41.2037 -40.8666   2.6988 H              1 7L9201             0.0000
     28 ****       -44.3371 -41.0565  -0.0697 LP             1 7L9201             0.0000
     29 ****       -36.3654 -44.8852   1.8383 LP             1 7L9201             0.0000
     30 ****       -37.6935 -44.0856   1.0658 LP             1 7L9201             0.0000
     31 ****       -34.7753 -43.6375   3.0212 LP             1 7L9201             0.0000
     32 ****       -34.9274 -41.9152   3.1236 LP             1 7L9201             0.0000
     33 ****       -40.0429 -40.2505  -3.8722 LP             1 7L9201             0.0000
     34 ****       -41.3925 -41.0973  -3.1929 LP             1 7L9201             0.0000
     35 ****       -38.6504 -38.9792  -2.5111 LP             1 7L9201             0.0000
     36 ****       -38.9542 -38.8711  -0.8093 LP             1 7L9201             0.0000
     37 ****       -45.8750 -41.5418   2.9112 LP             1 7L9201             0.0000
     38 ****       -45.5166 -41.3005   1.2339 LP             1 7L9201             0.0000
     39 ****       -44.1514 -41.4902   4.4959 LP             1 7L9201             0.0000
     40 ****       -42.5185 -41.2107   3.9906 LP             1 7L9201             0.0000
@<TRIPOS>BOND
    1    1    2 ar    
    2    2    3 ar    
    3    3    4 ar    
    4    4    5 ar    
    5    1    6 ar    
    6    5    6 ar    
    7    5    7 1     
    8    3    8 1     
    9    8    9 ar    
   10    9   10 ar    
   11    8   12 ar    
   12   11   12 ar    
   13   12   13 1     
   14   10   14 1     
   15   10   15 ar    
   16   11   15 ar    
   17    7   16 ar    
   18    7   17 ar    
   19   13   18 ar    
   20   13   19 ar    
   21   14   20 ar    
   22   14   21 ar    
   23    1   22 1     
   24    2   23 1     
   25    4   24 1     
   26   11   25 1     
   27    6   26 1     
   28    9   27 1     
   29   15   28 1     
   30   16   29 1     
   31   16   30 1     
   32   17   31 1     
   33   17   32 1     
   34   18   33 1     
   35   18   34 1     
   36   19   35 1     
   37   19   36 1     
   38   20   37 1     
   39   20   38 1     
   40   21   39 1     
   41   21   40 1     
@<TRIPOS>SUBSTRUCTURE
      1 7L9201         1
@<TRIPOS>SET
LONE_PAIRS      STATIC     ATOMS    <user>   **** ""
13 28 29 30 31 32 33 34 35 36 37 38 39 40
ATOM$BLUE        STATIC     ATOMS    COLORGROUP SYSTEM
13 28 29 30 31 32 33 34 35 36 37 38 39 40
@<TRIPOS>COMMENT
> <Gold.Version>
2022.3.0

> <Gold.Id.Protein>
unknown|6c5f_clean|pdb

> <Gold.Protein.ActiveResidues>
 LEU49   SER50   GLN58   ILE95   LEU96   ILE97   ARG98   PRO1    PHE2    LEU3   
 LEU30   LYS32   PRO33   ASP35   ARG36   VAL37   ASN38   ILE61   SER62   SER63  
 ILE64   GLY65   VAL66   VAL67   PHE100  LEU102  GLU103  SER104  TRP105  GLN106 
 ILE107  GLY108  LYS109  ILE110  THR112  VAL113  PRO1    GLN58   PHE2    LEU96  
 LEU30   LYS32   PRO33   PHE2    PRO1    PRO101  LEU102  GLU103  VAL37   ASN38  
 LEU49   SER50   ILE61   SER62   SER63   ILE64   ILE64   GLY65   VAL66   VAL67  
 PRO33   ARG36   VAL37   PRO1    SER104  TRP105  GLN106  ILE107  GLY108  LYS109 
 ILE110  PRO1    PHE2    LEU3    ILE110  VAL113  LEU96   ILE97   ARG98   PHE2   
 PRO1   

> <Gold.Score>
     Score     S(PLP)   S(hbond)     S(cho)   S(metal)  DE(clash)   DE(tors)     intcor
     35.59     -37.74       0.00       0.00       0.00       0.00       2.00       1.85

> <Gold.PLP.Fitness>
35.5855

> <Gold.PLP.PLP>
-37.7382

> <Gold.PLP.part.hbond>
0.0000

> <Gold.PLP.part.metal>
0.0000

> <Gold.PLP.part.buried>
-4.6474

> <Gold.PLP.part.nonpolar>
-34.7396

> <Gold.PLP.part.repulsive>
1.4818

> <Gold.PLP.ligand.clash>
0.0000

> <Gold.PLP.ligand.torsion>
2.0027

> <Gold.PLP.Chemscore.Hbond>
0.0000

> <Gold.PLP.Chemscore.CHOScore>
0.0000

> <Gold.PLP.Chemscore.Metal>
0.0000

> <Gold.PLP.Chemscore.Internal.Correction>
1.8526

> <Gold.PLP.Reference.RMSD>
5.3575

> <Gold.Rescore>
     Score         DG    S(hbond)    S(metal)    S(lipo)     H(rot)  DE(clash)    DE(int)     intcor
     16.16     -20.83       0.00        0.00     131.20       0.00       0.39       4.28       ----

> <Gold.Chemscore.Fitness>
16.1623

> <Gold.Chemscore.DG>
-20.8302

> <Gold.Chemscore.ZeroCoef>
-5.4800

> <Gold.Chemscore.Hbond>
0.0000

> <Gold.Chemscore.Metal>
0.0000

> <Gold.Chemscore.Lipo>
131.1985

> <Gold.Chemscore.Internal_Hbond>
0.0000

> <Gold.Chemscore.DEClash>
0.3924

> <Gold.Chemscore.DEInternal>
4.2755

> <Gold.Chemscore.Rot>
0.0000

> <Gold.Chemscore.Internal.Correction>
   9.000000E+99

> <Gold.Chemscore.Reference.RMSD>
0.0000

> <Gold.Chemscore.Hbond.Weighted>
-0.0000

> <Gold.Chemscore.Metal.Weighted>
-0.0000

> <Gold.Chemscore.Lipo.Weighted>
-15.3502

> <Gold.Chemscore.Internal_Hbond.Weighted>
0.0000

> <Gold.Chemscore.DEClash.Weighted>
0.3924

> <Gold.Chemscore.DEInternal.Weighted>
4.2755

> <Gold.Chemscore.Rot.Weighted>
0.0000

> <Gold.Chemscore.Internal.Correction.Weighted>
   9.000000E+99

> <Gold.Reference.RMSD>
5.3575

