#       Name:                F:ID
#       Creating user name   hitesit
#       Creation time:       Mon Feb 27 15:35:10 2023


#       File generated by GOLD software.
#

@<TRIPOS>MOLECULE
F:ID|prep_cristal|mol2|1|dock1
    40    41     1
SMALL
NO_CHARGES


@<TRIPOS>ATOM
      1 CAA        -41.2555 -41.0391   3.3948 C.ar           1 7L9201             0.0000
      2 CAB        -40.6188 -40.8426   2.1806 C.ar           1 7L9201             0.0000
      3 CAC        -41.3551 -40.6471   1.0152 C.ar           1 7L9201             0.0000
      4 CAD        -42.7462 -40.6595   1.1010 C.ar           1 7L9201             0.0000
      5 CAE        -43.4019 -40.8560   2.3149 C.ar           1 7L9201             0.0000
      6 CAF        -42.6385 -41.0454   3.4622 C.ar           1 7L9201             0.0000
      7 CAG        -44.9132 -40.8633   2.3835 C.2            1 7L9201             0.0000
      8 CAJ        -40.6922 -40.4408  -0.3052 C.ar           1 7L9201             0.0000
      9 CAK        -41.0110 -41.3469  -1.3159 C.ar           1 7L9201             0.0000
     10 CAL        -40.3855 -41.2676  -2.5537 C.ar           1 7L9201             0.0000
     11 CAN        -39.1809 -39.4438  -1.8691 C.ar           1 7L9201             0.0000
     12 CAO        -39.7722 -39.4134  -0.6079 C.ar           1 7L9201             0.0000
     13 CAP        -39.4117 -38.2991   0.3532 C.2            1 7L9201             0.0000
     14 CAS        -40.7275 -42.2396  -3.6614 C.2            1 7L9201             0.0000
     15 NAM        -39.4558 -40.3372  -2.8241 N.ar           1 7L9201             0.0000
     16 OAH        -45.6418 -40.8128   1.2456 O.co2          1 7L9201             0.0000
     17 OAI        -45.5353 -40.9205   3.5825 O.co2          1 7L9201             0.0000
     18 OAQ        -39.9346 -38.3016   1.6000 O.co2          1 7L9201             0.0000
     19 OAR        -38.5667 -37.3083  -0.0110 O.co2          1 7L9201             0.0000
     20 OAT        -40.0999 -42.1518  -4.8557 O.co2          1 7L9201             0.0000
     21 OAU        -41.6609 -43.1963  -3.4570 O.co2          1 7L9201             0.0000
     22 H1         -43.1303 -41.1993   4.4171 H              1 7L9201             0.0000
     23 H2         -40.6690 -41.1887   4.2952 H              1 7L9201             0.0000
     24 H3         -39.5347 -40.8409   2.1371 H              1 7L9201             0.0000
     25 H4         -43.3332 -40.5125   0.2005 H              1 7L9201             0.0000
     26 H5         -41.7489 -42.1210  -1.1332 H              1 7L9201             0.0000
     27 H6         -38.4431 -38.6809  -2.0946 H              1 7L9201             0.0000
     28 ****       -38.9868 -40.3137  -3.7070 LP             1 7L9201             0.0000
     29 ****       -46.6408 -40.8176   1.2909 LP             1 7L9201             0.0000
     30 ****       -45.1817 -40.7705   0.3587 LP             1 7L9201             0.0000
     31 ****       -46.5343 -40.9253   3.6278 LP             1 7L9201             0.0000
     32 ****       -44.9965 -40.9579   4.4241 LP             1 7L9201             0.0000
     33 ****       -39.6955 -37.5748   2.2439 LP             1 7L9201             0.0000
     34 ****       -40.5604 -39.0302   1.8783 LP             1 7L9201             0.0000
     35 ****       -38.3334 -36.5857   0.6398 LP             1 7L9201             0.0000
     36 ****       -38.1751 -37.2981  -0.9310 LP             1 7L9201             0.0000
     37 ****       -40.3260 -42.7943  -5.5878 LP             1 7L9201             0.0000
     38 ****       -39.4096 -41.4442  -5.0068 LP             1 7L9201             0.0000
     39 ****       -41.8870 -43.8388  -4.1891 LP             1 7L9201             0.0000
     40 ****       -42.1251 -43.2612  -2.5737 LP             1 7L9201             0.0000
@<TRIPOS>BOND
    1    1    2 ar    
    2    2    3 ar    
    3    3    4 ar    
    4    4    5 ar    
    5    1    6 ar    
    6    5    6 ar    
    7    5    7 1     
    8    3    8 1     
    9    8    9 ar    
   10    9   10 ar    
   11    8   12 ar    
   12   11   12 ar    
   13   12   13 1     
   14   10   14 1     
   15   10   15 ar    
   16   11   15 ar    
   17    7   16 ar    
   18    7   17 ar    
   19   13   18 ar    
   20   13   19 ar    
   21   14   20 ar    
   22   14   21 ar    
   23    6   22 1     
   24    1   23 1     
   25    2   24 1     
   26    4   25 1     
   27    9   26 1     
   28   11   27 1     
   29   15   28 1     
   30   16   29 1     
   31   16   30 1     
   32   17   31 1     
   33   17   32 1     
   34   18   33 1     
   35   18   34 1     
   36   19   35 1     
   37   19   36 1     
   38   20   37 1     
   39   20   38 1     
   40   21   39 1     
   41   21   40 1     
@<TRIPOS>SUBSTRUCTURE
      1 7L9201         1
@<TRIPOS>SET
LONE_PAIRS      STATIC     ATOMS    <user>   **** ""
13 28 29 30 31 32 33 34 35 36 37 38 39 40
ATOM$BLUE        STATIC     ATOMS    COLORGROUP SYSTEM
13 28 29 30 31 32 33 34 35 36 37 38 39 40
@<TRIPOS>COMMENT
> <Gold.Version>
2022.3.0

> <Gold.Id.Protein>
unknown|6c5f_clean|pdb

> <Gold.Protein.ActiveResidues>
 LEU49   SER50   GLN58   ILE95   LEU96   ILE97   ARG98   PRO1    PHE2    LEU3   
 LEU30   LYS32   PRO33   ASP35   ARG36   VAL37   ASN38   ILE61   SER62   SER63  
 ILE64   GLY65   VAL66   VAL67   PHE100  LEU102  GLU103  SER104  TRP105  GLN106 
 ILE107  GLY108  LYS109  ILE110  THR112  VAL113  PHE2    ILE61   SER62   SER63  
 ILE64   PHE2    PRO1    PHE2    PRO1    PHE2    LEU3    LEU96   ILE97   ARG98  
 PHE2    ARG36   VAL37   ASN38   PRO1    PRO1    VAL113  PHE2    LEU30   LYS32  
 PRO33   GLN106  ILE107  GLY108  LYS109  ILE110  ILE64   GLY65   VAL66   VAL67  
 GLN58   PRO1    PRO101  LEU102  GLU103  SER104  TRP105  PHE2    LEU49   SER50  
 PHE2   

> <Gold.Score>
     Fitness  S(hb_ext) S(vdw_ext)  S(hb_int)    S(int)      intcor
     43.26       0.00      31.81       0.00      -0.47       0.06

> <Gold.Goldscore.Fitness>
43.2617

> <Gold.Goldscore.Internal.Vdw>
1.4145

> <Gold.Goldscore.Internal.Torsion>
-1.8225

> <Gold.Goldscore.External.Vdw>
31.8060

> <Gold.Goldscore.Internal.HBond>
0.0000

> <Gold.Goldscore.External.HBond>
0.0000

> <Gold.Goldscore.Internal.Correction>
0.0635

> <Gold.Goldscore.Reference.RMSD>
4.4553

> <Gold.Goldscore.Internal.Vdw.Weighted>
1.4145

> <Gold.Goldscore.Internal.Torsion.Weighted>
-1.8225

> <Gold.Goldscore.External.Vdw.Weighted>
43.7332

> <Gold.Goldscore.Internal.HBond.Weighted>
0.0000

> <Gold.Goldscore.External.HBond.Weighted>
0.0000

> <Gold.Goldscore.Internal.Correction.Weighted>
0.0635

> <Gold.Rescore>
     Score         DG    S(hbond)    S(metal)    S(lipo)     H(rot)  DE(clash)    DE(int)     intcor
     11.22     -19.33       0.00        0.00     118.37       0.00       4.08       4.02       ----

> <Gold.Chemscore.Fitness>
11.2247

> <Gold.Chemscore.DG>
-19.3290

> <Gold.Chemscore.ZeroCoef>
-5.4800

> <Gold.Chemscore.Hbond>
0.0000

> <Gold.Chemscore.Metal>
0.0000

> <Gold.Chemscore.Lipo>
118.3675

> <Gold.Chemscore.Internal_Hbond>
0.0000

> <Gold.Chemscore.DEClash>
4.0818

> <Gold.Chemscore.DEInternal>
4.0225

> <Gold.Chemscore.Rot>
0.0000

> <Gold.Chemscore.Internal.Correction>
   9.000000E+99

> <Gold.Chemscore.Reference.RMSD>
0.0000

> <Gold.Chemscore.Hbond.Weighted>
-0.0000

> <Gold.Chemscore.Metal.Weighted>
-0.0000

> <Gold.Chemscore.Lipo.Weighted>
-13.8490

> <Gold.Chemscore.Internal_Hbond.Weighted>
0.0000

> <Gold.Chemscore.DEClash.Weighted>
4.0818

> <Gold.Chemscore.DEInternal.Weighted>
4.0225

> <Gold.Chemscore.Rot.Weighted>
0.0000

> <Gold.Chemscore.Internal.Correction.Weighted>
   9.000000E+99

> <Gold.Reference.RMSD>
4.4553

#       Name:                F:ID
#       Creating user name   hitesit
#       Creation time:       Mon Feb 27 15:35:26 2023


#       File generated by GOLD software.
#

@<TRIPOS>MOLECULE
F:ID|prep_cristal|mol2|1|dock9
    40    41     1
SMALL
NO_CHARGES


@<TRIPOS>ATOM
      1 CAA        -40.8603 -41.1297   3.3005 C.ar           1 7L9201             0.0000
      2 CAB        -40.2942 -40.8164   2.0760 C.ar           1 7L9201             0.0000
      3 CAC        -41.0948 -40.5929   0.9589 C.ar           1 7L9201             0.0000
      4 CAD        -42.4771 -40.6977   1.1035 C.ar           1 7L9201             0.0000
      5 CAE        -43.0622 -41.0121   2.3286 C.ar           1 7L9201             0.0000
      6 CAF        -42.2358 -41.2266   3.4268 C.ar           1 7L9201             0.0000
      7 CAG        -44.5654 -41.1182   2.4614 C.2            1 7L9201             0.0000
      8 CAJ        -40.5081 -40.2615  -0.3719 C.ar           1 7L9201             0.0000
      9 CAK        -40.8089 -41.1264  -1.4235 C.ar           1 7L9201             0.0000
     10 CAL        -40.2469 -40.9290  -2.6784 C.ar           1 7L9201             0.0000
     11 CAN        -39.1415 -39.0674  -1.9309 C.ar           1 7L9201             0.0000
     12 CAO        -39.6759 -39.1545  -0.6472 C.ar           1 7L9201             0.0000
     13 CAP        -39.3502 -38.0764   0.3661 C.2            1 7L9201             0.0000
     14 CAS        -40.5708 -41.8554  -3.8298 C.2            1 7L9201             0.0000
     15 NAM        -39.3970 -39.9198  -2.9279 N.ar           1 7L9201             0.0000
     16 OAH        -45.3573 -40.8762   1.3925 O.co2          1 7L9201             0.0000
     17 OAI        -45.1172 -41.4549   3.6490 O.co2          1 7L9201             0.0000
     18 OAQ        -38.5792 -37.0287  -0.0027 O.co2          1 7L9201             0.0000
     19 OAR        -39.8271 -38.1381   1.6299 O.co2          1 7L9201             0.0000
     20 OAT        -41.4162 -42.8941  -3.6447 O.co2          1 7L9201             0.0000
     21 OAU        -40.0147 -41.6445  -5.0441 O.co2          1 7L9201             0.0000
     22 H1         -42.6722 -41.4718   4.3895 H              1 7L9201             0.0000
     23 H2         -40.2243 -41.2997   4.1629 H              1 7L9201             0.0000
     24 H3         -39.2153 -40.7442   1.9862 H              1 7L9201             0.0000
     25 H4         -43.1134 -40.5302   0.2409 H              1 7L9201             0.0000
     26 H5         -41.4826 -41.9609  -1.2594 H              1 7L9201             0.0000
     27 H6         -38.4692 -38.2415  -2.1383 H              1 7L9201             0.0000
     28 ****       -38.9711 -39.8103  -3.8261 LP             1 7L9201             0.0000
     29 ****       -46.3510 -40.9464   1.4803 LP             1 7L9201             0.0000
     30 ****       -44.9493 -40.6272   0.5141 LP             1 7L9201             0.0000
     31 ****       -46.1108 -41.5250   3.7367 LP             1 7L9201             0.0000
     32 ****       -44.5316 -41.6339   4.4396 LP             1 7L9201             0.0000
     33 ****       -38.3661 -36.3080   0.6570 LP             1 7L9201             0.0000
     34 ****       -38.2220 -36.9745  -0.9352 LP             1 7L9201             0.0000
     35 ****       -39.6087 -37.4126   2.2826 LP             1 7L9201             0.0000
     36 ****       -40.3981 -38.9091   1.9117 LP             1 7L9201             0.0000
     37 ****       -41.6302 -43.5063  -4.4058 LP             1 7L9201             0.0000
     38 ****       -41.8274 -43.0500  -2.7466 LP             1 7L9201             0.0000
     39 ****       -40.2287 -42.2567  -5.8052 LP             1 7L9201             0.0000
     40 ****       -39.3894 -40.8762  -5.1810 LP             1 7L9201             0.0000
@<TRIPOS>BOND
    1    1    2 ar    
    2    2    3 ar    
    3    3    4 ar    
    4    4    5 ar    
    5    1    6 ar    
    6    5    6 ar    
    7    5    7 1     
    8    3    8 1     
    9    8    9 ar    
   10    9   10 ar    
   11    8   12 ar    
   12   11   12 ar    
   13   12   13 1     
   14   10   14 1     
   15   10   15 ar    
   16   11   15 ar    
   17    7   16 ar    
   18    7   17 ar    
   19   13   18 ar    
   20   13   19 ar    
   21   14   20 ar    
   22   14   21 ar    
   23    6   22 1     
   24    1   23 1     
   25    2   24 1     
   26    4   25 1     
   27    9   26 1     
   28   11   27 1     
   29   15   28 1     
   30   16   29 1     
   31   16   30 1     
   32   17   31 1     
   33   17   32 1     
   34   18   33 1     
   35   18   34 1     
   36   19   35 1     
   37   19   36 1     
   38   20   37 1     
   39   20   38 1     
   40   21   39 1     
   41   21   40 1     
@<TRIPOS>SUBSTRUCTURE
      1 7L9201         1
@<TRIPOS>SET
LONE_PAIRS      STATIC     ATOMS    <user>   **** ""
13 28 29 30 31 32 33 34 35 36 37 38 39 40
ATOM$BLUE        STATIC     ATOMS    COLORGROUP SYSTEM
13 28 29 30 31 32 33 34 35 36 37 38 39 40
@<TRIPOS>COMMENT
> <Gold.Version>
2022.3.0

> <Gold.Id.Protein>
unknown|6c5f_clean|pdb

> <Gold.Protein.ActiveResidues>
 LEU49   SER50   GLN58   ILE95   LEU96   ILE97   ARG98   PRO1    PHE2    LEU3   
 LEU30   LYS32   PRO33   ASP35   ARG36   VAL37   ASN38   ILE61   SER62   SER63  
 ILE64   GLY65   VAL66   VAL67   PHE100  LEU102  GLU103  SER104  TRP105  GLN106 
 ILE107  GLY108  LYS109  ILE110  THR112  VAL113  PHE2    ILE61   SER62   SER63  
 ILE64   PHE2    PRO1    PHE2    PRO1    PHE2    LEU3    LEU96   ILE97   ARG98  
 PHE2    ARG36   VAL37   ASN38   PRO1    PRO1    VAL113  PHE2    LEU30   LYS32  
 PRO33   GLN106  ILE107  GLY108  LYS109  ILE110  ILE64   GLY65   VAL66   VAL67  
 GLN58   PRO1    PRO101  LEU102  GLU103  SER104  TRP105  PHE2    LEU49   SER50  
 PHE2   

> <Gold.Score>
     Fitness  S(hb_ext) S(vdw_ext)  S(hb_int)    S(int)      intcor
     42.63       0.00      31.21       0.00      -0.28       0.06

> <Gold.Goldscore.Fitness>
42.6343

> <Gold.Goldscore.Internal.Vdw>
1.5319

> <Gold.Goldscore.Internal.Torsion>
-1.7529

> <Gold.Goldscore.External.Vdw>
31.2137

> <Gold.Goldscore.Internal.HBond>
0.0000

> <Gold.Goldscore.External.HBond>
0.0000

> <Gold.Goldscore.Internal.Correction>
0.0635

> <Gold.Goldscore.Reference.RMSD>
4.3932

> <Gold.Goldscore.Internal.Vdw.Weighted>
1.5319

> <Gold.Goldscore.Internal.Torsion.Weighted>
-1.7529

> <Gold.Goldscore.External.Vdw.Weighted>
42.9189

> <Gold.Goldscore.Internal.HBond.Weighted>
0.0000

> <Gold.Goldscore.External.HBond.Weighted>
0.0000

> <Gold.Goldscore.Internal.Correction.Weighted>
0.0635

> <Gold.Rescore>
     Score         DG    S(hbond)    S(metal)    S(lipo)     H(rot)  DE(clash)    DE(int)     intcor
     12.03     -18.74       0.00        0.00     113.31       0.00       2.79       3.91       ----

> <Gold.Chemscore.Fitness>
12.0342

> <Gold.Chemscore.DG>
-18.7368

> <Gold.Chemscore.ZeroCoef>
-5.4800

> <Gold.Chemscore.Hbond>
0.0000

> <Gold.Chemscore.Metal>
0.0000

> <Gold.Chemscore.Lipo>
113.3062

> <Gold.Chemscore.Internal_Hbond>
0.0000

> <Gold.Chemscore.DEClash>
2.7931

> <Gold.Chemscore.DEInternal>
3.9095

> <Gold.Chemscore.Rot>
0.0000

> <Gold.Chemscore.Internal.Correction>
   9.000000E+99

> <Gold.Chemscore.Reference.RMSD>
0.0000

> <Gold.Chemscore.Hbond.Weighted>
-0.0000

> <Gold.Chemscore.Metal.Weighted>
-0.0000

> <Gold.Chemscore.Lipo.Weighted>
-13.2568

> <Gold.Chemscore.Internal_Hbond.Weighted>
0.0000

> <Gold.Chemscore.DEClash.Weighted>
2.7931

> <Gold.Chemscore.DEInternal.Weighted>
3.9095

> <Gold.Chemscore.Rot.Weighted>
0.0000

> <Gold.Chemscore.Internal.Correction.Weighted>
   9.000000E+99

> <Gold.Reference.RMSD>
4.3932

#       Name:                F:ID
#       Creating user name   hitesit
#       Creation time:       Mon Feb 27 15:35:22 2023


#       File generated by GOLD software.
#

@<TRIPOS>MOLECULE
F:ID|prep_cristal|mol2|1|dock7
    40    41     1
SMALL
NO_CHARGES


@<TRIPOS>ATOM
      1 CAA        -39.4152 -39.3039  -1.1652 C.ar           1 7L9201             0.0000
      2 CAB        -40.1566 -39.5202  -0.0156 C.ar           1 7L9201             0.0000
      3 CAC        -41.1435 -40.5019   0.0197 C.ar           1 7L9201             0.0000
      4 CAD        -41.3689 -41.2557  -1.1308 C.ar           1 7L9201             0.0000
      5 CAE        -40.6316 -41.0504  -2.2954 C.ar           1 7L9201             0.0000
      6 CAF        -39.6504 -40.0643  -2.2983 C.ar           1 7L9201             0.0000
      7 CAG        -40.8931 -41.8827  -3.5313 C.2            1 7L9201             0.0000
      8 CAJ        -41.9599 -40.7485   1.2436 C.ar           1 7L9201             0.0000
      9 CAK        -43.3449 -40.6749   1.0996 C.ar           1 7L9201             0.0000
     10 CAL        -44.1750 -40.8227   2.2034 C.ar           1 7L9201             0.0000
     11 CAN        -42.3638 -41.1418   3.5687 C.ar           1 7L9201             0.0000
     12 CAO        -41.4458 -41.0426   2.5253 C.ar           1 7L9201             0.0000
     13 CAP        -39.9735 -41.2577   2.8104 C.2            1 7L9201             0.0000
     14 CAS        -45.6795 -40.7526   2.0599 C.2            1 7L9201             0.0000
     15 NAM        -43.6891 -41.0301   3.4379 N.ar           1 7L9201             0.0000
     16 OAH        -40.1734 -41.6680  -4.6556 O.co2          1 7L9201             0.0000
     17 OAI        -41.8464 -42.8412  -3.5116 O.co2          1 7L9201             0.0000
     18 OAQ        -39.5751 -41.5416   4.0709 O.co2          1 7L9201             0.0000
     19 OAR        -39.0523 -41.1822   1.8235 O.co2          1 7L9201             0.0000
     20 OAT        -46.4694 -40.8843   3.1491 O.co2          1 7L9201             0.0000
     21 OAU        -46.2340 -40.5582   0.8422 O.co2          1 7L9201             0.0000
     22 H1         -39.0652 -39.8895  -3.1951 H              1 7L9201             0.0000
     23 H2         -38.6483 -38.5366  -1.1780 H              1 7L9201             0.0000
     24 H3         -39.9664 -38.9185   0.8669 H              1 7L9201             0.0000
     25 H4         -42.1374 -42.0215  -1.1194 H              1 7L9201             0.0000
     26 H5         -43.7765 -40.4970   0.1201 H              1 7L9201             0.0000
     27 H6         -41.9728 -41.3278   4.5635 H              1 7L9201             0.0000
     28 ****       -44.2961 -41.0984   4.2297 LP             1 7L9201             0.0000
     29 ****       -40.3463 -42.2181  -5.4726 LP             1 7L9201             0.0000
     30 ****       -39.4683 -40.9590  -4.6702 LP             1 7L9201             0.0000
     31 ****       -42.0192 -43.3913  -4.3287 LP             1 7L9201             0.0000
     32 ****       -42.3787 -43.0000  -2.6801 LP             1 7L9201             0.0000
     33 ****       -38.6063 -41.6936   4.2668 LP             1 7L9201             0.0000
     34 ****       -40.2492 -41.5995   4.8072 LP             1 7L9201             0.0000
     35 ****       -38.0857 -41.3357   2.0290 LP             1 7L9201             0.0000
     36 ****       -39.3376 -40.9728   0.8882 LP             1 7L9201             0.0000
     37 ****       -47.4638 -40.8380   3.0542 LP             1 7L9201             0.0000
     38 ****       -46.0593 -41.0281   4.0498 LP             1 7L9201             0.0000
     39 ****       -47.2284 -40.5119   0.7472 LP             1 7L9201             0.0000
     40 ****       -45.6497 -40.4608   0.0365 LP             1 7L9201             0.0000
@<TRIPOS>BOND
    1    1    2 ar    
    2    2    3 ar    
    3    3    4 ar    
    4    4    5 ar    
    5    1    6 ar    
    6    5    6 ar    
    7    5    7 1     
    8    3    8 1     
    9    8    9 ar    
   10    9   10 ar    
   11    8   12 ar    
   12   11   12 ar    
   13   12   13 1     
   14   10   14 1     
   15   10   15 ar    
   16   11   15 ar    
   17    7   16 ar    
   18    7   17 ar    
   19   13   18 ar    
   20   13   19 ar    
   21   14   20 ar    
   22   14   21 ar    
   23    6   22 1     
   24    1   23 1     
   25    2   24 1     
   26    4   25 1     
   27    9   26 1     
   28   11   27 1     
   29   15   28 1     
   30   16   29 1     
   31   16   30 1     
   32   17   31 1     
   33   17   32 1     
   34   18   33 1     
   35   18   34 1     
   36   19   35 1     
   37   19   36 1     
   38   20   37 1     
   39   20   38 1     
   40   21   39 1     
   41   21   40 1     
@<TRIPOS>SUBSTRUCTURE
      1 7L9201         1
@<TRIPOS>SET
LONE_PAIRS      STATIC     ATOMS    <user>   **** ""
13 28 29 30 31 32 33 34 35 36 37 38 39 40
ATOM$BLUE        STATIC     ATOMS    COLORGROUP SYSTEM
13 28 29 30 31 32 33 34 35 36 37 38 39 40
@<TRIPOS>COMMENT
> <Gold.Version>
2022.3.0

> <Gold.Id.Protein>
unknown|6c5f_clean|pdb

> <Gold.Protein.ActiveResidues>
 LEU49   SER50   GLN58   ILE95   LEU96   ILE97   ARG98   PRO1    PHE2    LEU3   
 LEU30   LYS32   PRO33   ASP35   ARG36   VAL37   ASN38   ILE61   SER62   SER63  
 ILE64   GLY65   VAL66   VAL67   PHE100  LEU102  GLU103  SER104  TRP105  GLN106 
 ILE107  GLY108  LYS109  ILE110  THR112  VAL113  PHE2    ILE61   SER62   SER63  
 ILE64   PHE2    PRO1    PHE2    PRO1    PHE2    LEU3    LEU96   ILE97   ARG98  
 PHE2    ARG36   VAL37   ASN38   PRO1    PRO1    VAL113  PHE2    LEU30   LYS32  
 PRO33   GLN106  ILE107  GLY108  LYS109  ILE110  ILE64   GLY65   VAL66   VAL67  
 GLN58   PRO1    PRO101  LEU102  GLU103  SER104  TRP105  PHE2    LEU49   SER50  
 PHE2   

> <Gold.Score>
     Fitness  S(hb_ext) S(vdw_ext)  S(hb_int)    S(int)      intcor
     41.59       0.00      30.58       0.00      -0.45       0.06

> <Gold.Goldscore.Fitness>
41.5912

> <Gold.Goldscore.Internal.Vdw>
1.2362

> <Gold.Goldscore.Internal.Torsion>
-1.6241

> <Gold.Goldscore.External.Vdw>
30.5765

> <Gold.Goldscore.Internal.HBond>
0.0000

> <Gold.Goldscore.External.HBond>
0.0000

> <Gold.Goldscore.Internal.Correction>
0.0635

> <Gold.Goldscore.Reference.RMSD>
6.5990

> <Gold.Goldscore.Internal.Vdw.Weighted>
1.2362

> <Gold.Goldscore.Internal.Torsion.Weighted>
-1.6241

> <Gold.Goldscore.External.Vdw.Weighted>
42.0427

> <Gold.Goldscore.Internal.HBond.Weighted>
0.0000

> <Gold.Goldscore.External.HBond.Weighted>
0.0000

> <Gold.Goldscore.Internal.Correction.Weighted>
0.0635

> <Gold.Rescore>
     Score         DG    S(hbond)    S(metal)    S(lipo)     H(rot)  DE(clash)    DE(int)     intcor
     14.75     -20.46       0.00        0.00     128.03       0.00       1.85       3.85       ----

> <Gold.Chemscore.Fitness>
14.7506

> <Gold.Chemscore.DG>
-20.4594

> <Gold.Chemscore.ZeroCoef>
-5.4800

> <Gold.Chemscore.Hbond>
0.0000

> <Gold.Chemscore.Metal>
0.0000

> <Gold.Chemscore.Lipo>
128.0288

> <Gold.Chemscore.Internal_Hbond>
0.0000

> <Gold.Chemscore.DEClash>
1.8544

> <Gold.Chemscore.DEInternal>
3.8544

> <Gold.Chemscore.Rot>
0.0000

> <Gold.Chemscore.Internal.Correction>
   9.000000E+99

> <Gold.Chemscore.Reference.RMSD>
0.0000

> <Gold.Chemscore.Hbond.Weighted>
-0.0000

> <Gold.Chemscore.Metal.Weighted>
-0.0000

> <Gold.Chemscore.Lipo.Weighted>
-14.9794

> <Gold.Chemscore.Internal_Hbond.Weighted>
0.0000

> <Gold.Chemscore.DEClash.Weighted>
1.8544

> <Gold.Chemscore.DEInternal.Weighted>
3.8544

> <Gold.Chemscore.Rot.Weighted>
0.0000

> <Gold.Chemscore.Internal.Correction.Weighted>
   9.000000E+99

> <Gold.Reference.RMSD>
6.5990

#       Name:                F:ID
#       Creating user name   hitesit
#       Creation time:       Mon Feb 27 15:35:28 2023


#       File generated by GOLD software.
#

@<TRIPOS>MOLECULE
F:ID|prep_cristal|mol2|1|dock10
    40    41     1
SMALL
NO_CHARGES


@<TRIPOS>ATOM
      1 CAA        -39.4188 -39.1898  -1.2237 C.ar           1 7L9201             0.0000
      2 CAB        -40.1713 -39.3985  -0.0799 C.ar           1 7L9201             0.0000
      3 CAC        -41.1041 -40.4305  -0.0211 C.ar           1 7L9201             0.0000
      4 CAD        -41.2644 -41.2428  -1.1423 C.ar           1 7L9201             0.0000
      5 CAE        -40.5151 -41.0459  -2.3007 C.ar           1 7L9201             0.0000
      6 CAF        -39.5888 -40.0085  -2.3274 C.ar           1 7L9201             0.0000
      7 CAG        -40.7053 -41.9420  -3.5046 C.2            1 7L9201             0.0000
      8 CAJ        -41.9315 -40.6704   1.1968 C.ar           1 7L9201             0.0000
      9 CAK        -43.3139 -40.7082   1.0191 C.ar           1 7L9201             0.0000
     10 CAL        -44.1591 -40.8572   2.1113 C.ar           1 7L9201             0.0000
     11 CAN        -42.3651 -40.9657   3.5311 C.ar           1 7L9201             0.0000
     12 CAO        -41.4303 -40.8553   2.5038 C.ar           1 7L9201             0.0000
     13 CAP        -39.9540 -40.9443   2.8323 C.2            1 7L9201             0.0000
     14 CAS        -45.6605 -40.9073   1.9316 C.2            1 7L9201             0.0000
     15 NAM        -43.6911 -40.9604   3.3657 N.ar           1 7L9201             0.0000
     16 OAH        -41.4838 -43.0436  -3.4112 O.co2          1 7L9201             0.0000
     17 OAI        -40.0969 -41.6415  -4.6740 O.co2          1 7L9201             0.0000
     18 OAQ        -39.5703 -41.2146   4.1002 O.co2          1 7L9201             0.0000
     19 OAR        -39.0137 -40.7695   1.8764 O.co2          1 7L9201             0.0000
     20 OAT        -46.2021 -40.7075   0.7091 O.co2          1 7L9201             0.0000
     21 OAU        -46.4606 -41.1522   2.9937 O.co2          1 7L9201             0.0000
     22 H1         -38.9952 -39.8393  -3.2198 H              1 7L9201             0.0000
     23 H2         -38.6944 -38.3828  -1.2549 H              1 7L9201             0.0000
     24 H3         -40.0323 -38.7511   0.7796 H              1 7L9201             0.0000
     25 H4         -41.9904 -42.0484  -1.1126 H              1 7L9201             0.0000
     26 H5         -43.7322 -40.6164   0.0221 H              1 7L9201             0.0000
     27 H6         -41.9871 -41.0678   4.5430 H              1 7L9201             0.0000
     28 ****       -44.3116 -41.0307   4.1468 LP             1 7L9201             0.0000
     29 ****       -41.6095 -43.6360  -4.2070 LP             1 7L9201             0.0000
     30 ****       -41.9338 -43.2660  -2.5463 LP             1 7L9201             0.0000
     31 ****       -40.2227 -42.2339  -5.4698 LP             1 7L9201             0.0000
     32 ****       -39.5212 -40.8268  -4.7432 LP             1 7L9201             0.0000
     33 ****       -38.5982 -41.2838   4.3244 LP             1 7L9201             0.0000
     34 ****       -40.2585 -41.3454   4.8138 LP             1 7L9201             0.0000
     35 ****       -38.0440 -40.8405   2.1101 LP             1 7L9201             0.0000
     36 ****       -39.2880 -40.5692   0.9359 LP             1 7L9201             0.0000
     37 ****       -47.1945 -40.7407   0.5904 LP             1 7L9201             0.0000
     38 ****       -45.6104 -40.5264  -0.0764 LP             1 7L9201             0.0000
     39 ****       -47.4529 -41.1854   2.8751 LP             1 7L9201             0.0000
     40 ****       -46.0599 -41.3000   3.8980 LP             1 7L9201             0.0000
@<TRIPOS>BOND
    1    1    2 ar    
    2    2    3 ar    
    3    3    4 ar    
    4    4    5 ar    
    5    1    6 ar    
    6    5    6 ar    
    7    5    7 1     
    8    3    8 1     
    9    8    9 ar    
   10    9   10 ar    
   11    8   12 ar    
   12   11   12 ar    
   13   12   13 1     
   14   10   14 1     
   15   10   15 ar    
   16   11   15 ar    
   17    7   16 ar    
   18    7   17 ar    
   19   13   18 ar    
   20   13   19 ar    
   21   14   20 ar    
   22   14   21 ar    
   23    6   22 1     
   24    1   23 1     
   25    2   24 1     
   26    4   25 1     
   27    9   26 1     
   28   11   27 1     
   29   15   28 1     
   30   16   29 1     
   31   16   30 1     
   32   17   31 1     
   33   17   32 1     
   34   18   33 1     
   35   18   34 1     
   36   19   35 1     
   37   19   36 1     
   38   20   37 1     
   39   20   38 1     
   40   21   39 1     
   41   21   40 1     
@<TRIPOS>SUBSTRUCTURE
      1 7L9201         1
@<TRIPOS>SET
LONE_PAIRS      STATIC     ATOMS    <user>   **** ""
13 28 29 30 31 32 33 34 35 36 37 38 39 40
ATOM$BLUE        STATIC     ATOMS    COLORGROUP SYSTEM
13 28 29 30 31 32 33 34 35 36 37 38 39 40
@<TRIPOS>COMMENT
> <Gold.Version>
2022.3.0

> <Gold.Id.Protein>
unknown|6c5f_clean|pdb

> <Gold.Protein.ActiveResidues>
 LEU49   SER50   GLN58   ILE95   LEU96   ILE97   ARG98   PRO1    PHE2    LEU3   
 LEU30   LYS32   PRO33   ASP35   ARG36   VAL37   ASN38   ILE61   SER62   SER63  
 ILE64   GLY65   VAL66   VAL67   PHE100  LEU102  GLU103  SER104  TRP105  GLN106 
 ILE107  GLY108  LYS109  ILE110  THR112  VAL113  PHE2    ILE61   SER62   SER63  
 ILE64   PHE2    PRO1    PHE2    PRO1    PHE2    LEU3    LEU96   ILE97   ARG98  
 PHE2    ARG36   VAL37   ASN38   PRO1    PRO1    VAL113  PHE2    LEU30   LYS32  
 PRO33   GLN106  ILE107  GLY108  LYS109  ILE110  ILE64   GLY65   VAL66   VAL67  
 GLN58   PRO1    PRO101  LEU102  GLU103  SER104  TRP105  PHE2    LEU49   SER50  
 PHE2   

> <Gold.Score>
     Fitness  S(hb_ext) S(vdw_ext)  S(hb_int)    S(int)      intcor
     41.53       0.00      30.90       0.00      -0.96       0.06

> <Gold.Goldscore.Fitness>
41.5271

> <Gold.Goldscore.Internal.Vdw>
0.8882

> <Gold.Goldscore.Internal.Torsion>
-1.7801

> <Gold.Goldscore.External.Vdw>
30.8964

> <Gold.Goldscore.Internal.HBond>
0.0000

> <Gold.Goldscore.External.HBond>
0.0000

> <Gold.Goldscore.Internal.Correction>
0.0635

> <Gold.Goldscore.Reference.RMSD>
6.6190

> <Gold.Goldscore.Internal.Vdw.Weighted>
0.8882

> <Gold.Goldscore.Internal.Torsion.Weighted>
-1.7801

> <Gold.Goldscore.External.Vdw.Weighted>
42.4825

> <Gold.Goldscore.Internal.HBond.Weighted>
0.0000

> <Gold.Goldscore.External.HBond.Weighted>
0.0000

> <Gold.Goldscore.Internal.Correction.Weighted>
0.0635

> <Gold.Rescore>
     Score         DG    S(hbond)    S(metal)    S(lipo)     H(rot)  DE(clash)    DE(int)     intcor
     15.41     -19.86       0.00        0.00     122.90       0.00       0.50       3.95       ----

> <Gold.Chemscore.Fitness>
15.4111

> <Gold.Chemscore.DG>
-19.8589

> <Gold.Chemscore.ZeroCoef>
-5.4800

> <Gold.Chemscore.Hbond>
0.0000

> <Gold.Chemscore.Metal>
0.0000

> <Gold.Chemscore.Lipo>
122.8968

> <Gold.Chemscore.Internal_Hbond>
0.0000

> <Gold.Chemscore.DEClash>
0.5013

> <Gold.Chemscore.DEInternal>
3.9465

> <Gold.Chemscore.Rot>
0.0000

> <Gold.Chemscore.Internal.Correction>
   9.000000E+99

> <Gold.Chemscore.Reference.RMSD>
0.0000

> <Gold.Chemscore.Hbond.Weighted>
-0.0000

> <Gold.Chemscore.Metal.Weighted>
-0.0000

> <Gold.Chemscore.Lipo.Weighted>
-14.3789

> <Gold.Chemscore.Internal_Hbond.Weighted>
0.0000

> <Gold.Chemscore.DEClash.Weighted>
0.5013

> <Gold.Chemscore.DEInternal.Weighted>
3.9465

> <Gold.Chemscore.Rot.Weighted>
0.0000

> <Gold.Chemscore.Internal.Correction.Weighted>
   9.000000E+99

> <Gold.Reference.RMSD>
6.6190

#       Name:                F:ID
#       Creating user name   hitesit
#       Creation time:       Mon Feb 27 15:35:24 2023


#       File generated by GOLD software.
#

@<TRIPOS>MOLECULE
F:ID|prep_cristal|mol2|1|dock8
    40    41     1
SMALL
NO_CHARGES


@<TRIPOS>ATOM
      1 CAA        -42.3460 -40.7506  -0.9138 C.ar           1 7L9201             0.0000
      2 CAB        -41.1904 -40.5559  -0.1755 C.ar           1 7L9201             0.0000
      3 CAC        -39.9379 -40.7585  -0.7489 C.ar           1 7L9201             0.0000
      4 CAD        -39.8774 -41.1664  -2.0803 C.ar           1 7L9201             0.0000
      5 CAE        -41.0306 -41.3667  -2.8366 C.ar           1 7L9201             0.0000
      6 CAF        -42.2672 -41.1531  -2.2363 C.ar           1 7L9201             0.0000
      7 CAG        -40.9396 -41.8078  -4.2808 C.2            1 7L9201             0.0000
      8 CAJ        -38.6795 -40.5624   0.0279 C.ar           1 7L9201             0.0000
      9 CAK        -38.1320 -41.6936   0.6319 C.ar           1 7L9201             0.0000
     10 CAL        -37.0005 -41.5858   1.4304 C.ar           1 7L9201             0.0000
     11 CAN        -36.9004 -39.3298   1.0474 C.ar           1 7L9201             0.0000
     12 CAO        -38.0083 -39.3325   0.2026 C.ar           1 7L9201             0.0000
     13 CAP        -38.4249 -38.0445  -0.4777 C.2            1 7L9201             0.0000
     14 CAS        -36.3919 -42.8062   2.0854 C.2            1 7L9201             0.0000
     15 NAM        -36.3997 -40.4070   1.6597 N.ar           1 7L9201             0.0000
     16 OAH        -42.0222 -42.3341  -4.8965 O.co2          1 7L9201             0.0000
     17 OAI        -39.7756 -41.6757  -4.9560 O.co2          1 7L9201             0.0000
     18 OAQ        -39.1107 -38.0993  -1.6416 O.co2          1 7L9201             0.0000
     19 OAR        -38.1326 -36.8412   0.0653 O.co2          1 7L9201             0.0000
     20 OAT        -36.9162 -44.0305   1.8530 O.co2          1 7L9201             0.0000
     21 OAU        -35.3234 -42.6725   2.9031 O.co2          1 7L9201             0.0000
     22 H1         -43.1767 -41.3030  -2.8086 H              1 7L9201             0.0000
     23 H2         -43.3153 -40.5875  -0.4545 H              1 7L9201             0.0000
     24 H3         -41.2620 -40.2420   0.8606 H              1 7L9201             0.0000
     25 H4         -38.9084 -41.3321  -2.5393 H              1 7L9201             0.0000
     26 H5         -38.5949 -42.6632   0.4806 H              1 7L9201             0.0000
     27 H6         -36.4035 -38.3806   1.2182 H              1 7L9201             0.0000
     28 ****       -35.6074 -40.3377   2.2658 LP             1 7L9201             0.0000
     29 ****       -41.9621 -42.6256  -5.8511 LP             1 7L9201             0.0000
     30 ****       -42.8831 -42.4318  -4.3972 LP             1 7L9201             0.0000
     31 ****       -39.7155 -41.9673  -5.9107 LP             1 7L9201             0.0000
     32 ****       -38.9749 -41.2864  -4.5007 LP             1 7L9201             0.0000
     33 ****       -39.3973 -37.2544  -2.0933 LP             1 7L9201             0.0000
     34 ****       -39.3314 -38.9846  -2.0507 LP             1 7L9201             0.0000
     35 ****       -38.4233 -36.0016  -0.3936 LP             1 7L9201             0.0000
     36 ****       -37.6258 -36.7908   0.9259 LP             1 7L9201             0.0000
     37 ****       -36.5138 -44.8372   2.2859 LP             1 7L9201             0.0000
     38 ****       -37.7065 -44.1294   1.2482 LP             1 7L9201             0.0000
     39 ****       -34.9210 -43.4791   3.3360 LP             1 7L9201             0.0000
     40 ****       -34.9356 -41.7669   3.0749 LP             1 7L9201             0.0000
@<TRIPOS>BOND
    1    1    2 ar    
    2    2    3 ar    
    3    3    4 ar    
    4    4    5 ar    
    5    1    6 ar    
    6    5    6 ar    
    7    5    7 1     
    8    3    8 1     
    9    8    9 ar    
   10    9   10 ar    
   11    8   12 ar    
   12   11   12 ar    
   13   12   13 1     
   14   10   14 1     
   15   10   15 ar    
   16   11   15 ar    
   17    7   16 ar    
   18    7   17 ar    
   19   13   18 ar    
   20   13   19 ar    
   21   14   20 ar    
   22   14   21 ar    
   23    6   22 1     
   24    1   23 1     
   25    2   24 1     
   26    4   25 1     
   27    9   26 1     
   28   11   27 1     
   29   15   28 1     
   30   16   29 1     
   31   16   30 1     
   32   17   31 1     
   33   17   32 1     
   34   18   33 1     
   35   18   34 1     
   36   19   35 1     
   37   19   36 1     
   38   20   37 1     
   39   20   38 1     
   40   21   39 1     
   41   21   40 1     
@<TRIPOS>SUBSTRUCTURE
      1 7L9201         1
@<TRIPOS>SET
LONE_PAIRS      STATIC     ATOMS    <user>   **** ""
13 28 29 30 31 32 33 34 35 36 37 38 39 40
ATOM$BLUE        STATIC     ATOMS    COLORGROUP SYSTEM
13 28 29 30 31 32 33 34 35 36 37 38 39 40
@<TRIPOS>COMMENT
> <Gold.Version>
2022.3.0

> <Gold.Id.Protein>
unknown|6c5f_clean|pdb

> <Gold.Protein.ActiveResidues>
 LEU49   SER50   GLN58   ILE95   LEU96   ILE97   ARG98   PRO1    PHE2    LEU3   
 LEU30   LYS32   PRO33   ASP35   ARG36   VAL37   ASN38   ILE61   SER62   SER63  
 ILE64   GLY65   VAL66   VAL67   PHE100  LEU102  GLU103  SER104  TRP105  GLN106 
 ILE107  GLY108  LYS109  ILE110  THR112  VAL113  PHE2    ILE61   SER62   SER63  
 ILE64   PHE2    PRO1    PHE2    PRO1    PHE2    LEU3    LEU96   ILE97   ARG98  
 PHE2    ARG36   VAL37   ASN38   PRO1    PRO1    VAL113  PHE2    LEU30   LYS32  
 PRO33   GLN106  ILE107  GLY108  LYS109  ILE110  ILE64   GLY65   VAL66   VAL67  
 GLN58   PRO1    PRO101  LEU102  GLU103  SER104  TRP105  PHE2    LEU49   SER50  
 PHE2   

> <Gold.Score>
     Fitness  S(hb_ext) S(vdw_ext)  S(hb_int)    S(int)      intcor
     41.37       0.00      31.24       0.00      -1.59       0.06

> <Gold.Goldscore.Fitness>
41.3737

> <Gold.Goldscore.Internal.Vdw>
2.6569

> <Gold.Goldscore.Internal.Torsion>
-4.1792

> <Gold.Goldscore.External.Vdw>
31.2433

> <Gold.Goldscore.Internal.HBond>
0.0000

> <Gold.Goldscore.External.HBond>
0.0000

> <Gold.Goldscore.Internal.Correction>
0.0635

> <Gold.Goldscore.Reference.RMSD>
5.6717

> <Gold.Goldscore.Internal.Vdw.Weighted>
2.6569

> <Gold.Goldscore.Internal.Torsion.Weighted>
-4.1792

> <Gold.Goldscore.External.Vdw.Weighted>
42.9595

> <Gold.Goldscore.Internal.HBond.Weighted>
0.0000

> <Gold.Goldscore.External.HBond.Weighted>
0.0000

> <Gold.Goldscore.Internal.Correction.Weighted>
0.0635

> <Gold.Rescore>
     Score         DG    S(hbond)    S(metal)    S(lipo)     H(rot)  DE(clash)    DE(int)     intcor
     15.66     -20.55       0.00        0.00     128.82       0.00       1.63       3.27       ----

> <Gold.Chemscore.Fitness>
15.6565

> <Gold.Chemscore.DG>
-20.5515

> <Gold.Chemscore.ZeroCoef>
-5.4800

> <Gold.Chemscore.Hbond>
0.0000

> <Gold.Chemscore.Metal>
0.0000

> <Gold.Chemscore.Lipo>
128.8159

> <Gold.Chemscore.Internal_Hbond>
0.0000

> <Gold.Chemscore.DEClash>
1.6261

> <Gold.Chemscore.DEInternal>
3.2688

> <Gold.Chemscore.Rot>
0.0000

> <Gold.Chemscore.Internal.Correction>
   9.000000E+99

> <Gold.Chemscore.Reference.RMSD>
0.0000

> <Gold.Chemscore.Hbond.Weighted>
-0.0000

> <Gold.Chemscore.Metal.Weighted>
-0.0000

> <Gold.Chemscore.Lipo.Weighted>
-15.0715

> <Gold.Chemscore.Internal_Hbond.Weighted>
0.0000

> <Gold.Chemscore.DEClash.Weighted>
1.6261

> <Gold.Chemscore.DEInternal.Weighted>
3.2688

> <Gold.Chemscore.Rot.Weighted>
0.0000

> <Gold.Chemscore.Internal.Correction.Weighted>
   9.000000E+99

> <Gold.Reference.RMSD>
5.6717

#       Name:                F:ID
#       Creating user name   hitesit
#       Creation time:       Mon Feb 27 15:35:20 2023


#       File generated by GOLD software.
#

@<TRIPOS>MOLECULE
F:ID|prep_cristal|mol2|1|dock6
    40    41     1
SMALL
NO_CHARGES


@<TRIPOS>ATOM
      1 CAA        -42.4204 -40.7397  -0.9889 C.ar           1 7L9201             0.0000
      2 CAB        -41.2805 -40.4806  -0.2462 C.ar           1 7L9201             0.0000
      3 CAC        -40.0155 -40.6542  -0.8015 C.ar           1 7L9201             0.0000
      4 CAD        -39.9264 -41.0995  -2.1192 C.ar           1 7L9201             0.0000
      5 CAE        -41.0636 -41.3646  -2.8798 C.ar           1 7L9201             0.0000
      6 CAF        -42.3133 -41.1786  -2.2978 C.ar           1 7L9201             0.0000
      7 CAG        -40.9416 -41.8452  -4.3090 C.2            1 7L9201             0.0000
      8 CAJ        -38.7733 -40.3888  -0.0194 C.ar           1 7L9201             0.0000
      9 CAK        -38.2360 -41.4629   0.6890 C.ar           1 7L9201             0.0000
     10 CAL        -37.1209 -41.2841   1.4978 C.ar           1 7L9201             0.0000
     11 CAN        -37.0170 -39.0683   0.9270 C.ar           1 7L9201             0.0000
     12 CAO        -38.1078 -39.1463   0.0638 C.ar           1 7L9201             0.0000
     13 CAP        -38.5128 -37.9219  -0.7314 C.2            1 7L9201             0.0000
     14 CAS        -36.5234 -42.4426   2.2657 C.2            1 7L9201             0.0000
     15 NAM        -36.5268 -40.0881   1.6382 N.ar           1 7L9201             0.0000
     16 OAH        -41.9449 -42.5562  -4.8712 O.co2          1 7L9201             0.0000
     17 OAI        -39.8292 -41.5639  -5.0243 O.co2          1 7L9201             0.0000
     18 OAQ        -39.0929 -38.0780  -1.9426 O.co2          1 7L9201             0.0000
     19 OAR        -38.3146 -36.6759  -0.2452 O.co2          1 7L9201             0.0000
     20 OAT        -37.0477 -43.6820   2.1357 O.co2          1 7L9201             0.0000
     21 OAU        -35.4651 -42.2385   3.0820 O.co2          1 7L9201             0.0000
     22 H1         -43.2108 -41.3789  -2.8737 H              1 7L9201             0.0000
     23 H2         -43.3998 -40.5986  -0.5438 H              1 7L9201             0.0000
     24 H3         -41.3742 -40.1386   0.7792 H              1 7L9201             0.0000
     25 H4         -38.9473 -41.2432  -2.5640 H              1 7L9201             0.0000
     26 H5         -38.6942 -42.4434   0.6113 H              1 7L9201             0.0000
     27 H6         -36.5251 -38.1064   1.0266 H              1 7L9201             0.0000
     28 ****       -35.7469 -39.9651   2.2518 LP             1 7L9201             0.0000
     29 ****       -41.8643 -42.8739  -5.8159 LP             1 7L9201             0.0000
     30 ****       -42.7677 -42.7643  -4.3422 LP             1 7L9201             0.0000
     31 ****       -39.7486 -41.8816  -5.9690 LP             1 7L9201             0.0000
     32 ****       -39.0871 -41.0381  -4.6085 LP             1 7L9201             0.0000
     33 ****       -39.3714 -37.2758  -2.4707 LP             1 7L9201             0.0000
     34 ****       -39.2436 -38.9957  -2.3103 LP             1 7L9201             0.0000
     35 ****       -38.5964 -35.8796  -0.7805 LP             1 7L9201             0.0000
     36 ****       -37.8863 -36.5506   0.6497 LP             1 7L9201             0.0000
     37 ****       -36.6527 -44.4477   2.6433 LP             1 7L9201             0.0000
     38 ****       -37.8305 -43.8330   1.5320 LP             1 7L9201             0.0000
     39 ****       -35.0701 -43.0042   3.5895 LP             1 7L9201             0.0000
     40 ****       -35.0773 -41.3217   3.1781 LP             1 7L9201             0.0000
@<TRIPOS>BOND
    1    1    2 ar    
    2    2    3 ar    
    3    3    4 ar    
    4    4    5 ar    
    5    1    6 ar    
    6    5    6 ar    
    7    5    7 1     
    8    3    8 1     
    9    8    9 ar    
   10    9   10 ar    
   11    8   12 ar    
   12   11   12 ar    
   13   12   13 1     
   14   10   14 1     
   15   10   15 ar    
   16   11   15 ar    
   17    7   16 ar    
   18    7   17 ar    
   19   13   18 ar    
   20   13   19 ar    
   21   14   20 ar    
   22   14   21 ar    
   23    6   22 1     
   24    1   23 1     
   25    2   24 1     
   26    4   25 1     
   27    9   26 1     
   28   11   27 1     
   29   15   28 1     
   30   16   29 1     
   31   16   30 1     
   32   17   31 1     
   33   17   32 1     
   34   18   33 1     
   35   18   34 1     
   36   19   35 1     
   37   19   36 1     
   38   20   37 1     
   39   20   38 1     
   40   21   39 1     
   41   21   40 1     
@<TRIPOS>SUBSTRUCTURE
      1 7L9201         1
@<TRIPOS>SET
LONE_PAIRS      STATIC     ATOMS    <user>   **** ""
13 28 29 30 31 32 33 34 35 36 37 38 39 40
ATOM$BLUE        STATIC     ATOMS    COLORGROUP SYSTEM
13 28 29 30 31 32 33 34 35 36 37 38 39 40
@<TRIPOS>COMMENT
> <Gold.Version>
2022.3.0

> <Gold.Id.Protein>
unknown|6c5f_clean|pdb

> <Gold.Protein.ActiveResidues>
 LEU49   SER50   GLN58   ILE95   LEU96   ILE97   ARG98   PRO1    PHE2    LEU3   
 LEU30   LYS32   PRO33   ASP35   ARG36   VAL37   ASN38   ILE61   SER62   SER63  
 ILE64   GLY65   VAL66   VAL67   PHE100  LEU102  GLU103  SER104  TRP105  GLN106 
 ILE107  GLY108  LYS109  ILE110  THR112  VAL113  PHE2    ILE61   SER62   SER63  
 ILE64   PHE2    PRO1    PHE2    PRO1    PHE2    LEU3    LEU96   ILE97   ARG98  
 PHE2    ARG36   VAL37   ASN38   PRO1    PRO1    VAL113  PHE2    LEU30   LYS32  
 PRO33   GLN106  ILE107  GLY108  LYS109  ILE110  ILE64   GLY65   VAL66   VAL67  
 GLN58   PRO1    PRO101  LEU102  GLU103  SER104  TRP105  PHE2    LEU49   SER50  
 PHE2   

> <Gold.Score>
     Fitness  S(hb_ext) S(vdw_ext)  S(hb_int)    S(int)      intcor
     41.12       0.00      31.61       0.00      -2.34       0.06

> <Gold.Goldscore.Fitness>
41.1195

> <Gold.Goldscore.Internal.Vdw>
2.8571

> <Gold.Goldscore.Internal.Torsion>
-5.1378

> <Gold.Goldscore.External.Vdw>
31.6100

> <Gold.Goldscore.Internal.HBond>
0.0000

> <Gold.Goldscore.External.HBond>
0.0000

> <Gold.Goldscore.Internal.Correction>
0.0635

> <Gold.Goldscore.Reference.RMSD>
5.6156

> <Gold.Goldscore.Internal.Vdw.Weighted>
2.8571

> <Gold.Goldscore.Internal.Torsion.Weighted>
-5.1378

> <Gold.Goldscore.External.Vdw.Weighted>
43.4637

> <Gold.Goldscore.Internal.HBond.Weighted>
0.0000

> <Gold.Goldscore.External.HBond.Weighted>
0.0000

> <Gold.Goldscore.Internal.Correction.Weighted>
0.0635

> <Gold.Rescore>
     Score         DG    S(hbond)    S(metal)    S(lipo)     H(rot)  DE(clash)    DE(int)     intcor
     15.78     -20.93       0.00        0.00     132.01       0.00       1.79       3.35       ----

> <Gold.Chemscore.Fitness>
15.7815

> <Gold.Chemscore.DG>
-20.9256

> <Gold.Chemscore.ZeroCoef>
-5.4800

> <Gold.Chemscore.Hbond>
0.0000

> <Gold.Chemscore.Metal>
0.0000

> <Gold.Chemscore.Lipo>
132.0137

> <Gold.Chemscore.Internal_Hbond>
0.0000

> <Gold.Chemscore.DEClash>
1.7938

> <Gold.Chemscore.DEInternal>
3.3503

> <Gold.Chemscore.Rot>
0.0000

> <Gold.Chemscore.Internal.Correction>
   9.000000E+99

> <Gold.Chemscore.Reference.RMSD>
0.0000

> <Gold.Chemscore.Hbond.Weighted>
-0.0000

> <Gold.Chemscore.Metal.Weighted>
-0.0000

> <Gold.Chemscore.Lipo.Weighted>
-15.4456

> <Gold.Chemscore.Internal_Hbond.Weighted>
0.0000

> <Gold.Chemscore.DEClash.Weighted>
1.7938

> <Gold.Chemscore.DEInternal.Weighted>
3.3503

> <Gold.Chemscore.Rot.Weighted>
0.0000

> <Gold.Chemscore.Internal.Correction.Weighted>
   9.000000E+99

> <Gold.Reference.RMSD>
5.6156

#       Name:                F:ID
#       Creating user name   hitesit
#       Creation time:       Mon Feb 27 15:35:16 2023


#       File generated by GOLD software.
#

@<TRIPOS>MOLECULE
F:ID|prep_cristal|mol2|1|dock4
    40    41     1
SMALL
NO_CHARGES


@<TRIPOS>ATOM
      1 CAA        -41.7101 -40.3722  -1.9359 C.ar           1 7L9201             0.0000
      2 CAB        -40.4356 -40.3894  -1.3941 C.ar           1 7L9201             0.0000
      3 CAC        -40.2461 -40.5864  -0.0288 C.ar           1 7L9201             0.0000
      4 CAD        -41.3699 -40.7602   0.7773 C.ar           1 7L9201             0.0000
      5 CAE        -42.6588 -40.7456   0.2475 C.ar           1 7L9201             0.0000
      6 CAF        -42.8152 -40.5497  -1.1207 C.ar           1 7L9201             0.0000
      7 CAG        -43.8632 -40.9385   1.1423 C.2            1 7L9201             0.0000
      8 CAJ        -38.8840 -40.6015   0.5791 C.ar           1 7L9201             0.0000
      9 CAK        -38.2867 -41.8498   0.7500 C.ar           1 7L9201             0.0000
     10 CAL        -37.0493 -41.9576   1.3720 C.ar           1 7L9201             0.0000
     11 CAN        -36.9429 -39.6848   1.6354 C.ar           1 7L9201             0.0000
     12 CAO        -38.1607 -39.4628   0.9961 C.ar           1 7L9201             0.0000
     13 CAP        -38.6352 -38.0405   0.7783 C.2            1 7L9201             0.0000
     14 CAS        -36.3866 -43.3050   1.5568 C.2            1 7L9201             0.0000
     15 NAM        -36.3892 -40.8844   1.8364 N.ar           1 7L9201             0.0000
     16 OAH        -45.0998 -41.0251   0.6022 O.co2          1 7L9201             0.0000
     17 OAI        -43.7033 -41.0244   2.4821 O.co2          1 7L9201             0.0000
     18 OAQ        -39.9570 -37.7955   0.6342 O.co2          1 7L9201             0.0000
     19 OAR        -37.7601 -37.0105   0.7373 O.co2          1 7L9201             0.0000
     20 OAT        -35.1415 -43.3802   2.0783 O.co2          1 7L9201             0.0000
     21 OAU        -37.0397 -44.4340   1.2006 O.co2          1 7L9201             0.0000
     22 H1         -43.8105 -40.5357  -1.5525 H              1 7L9201             0.0000
     23 H2         -41.8427 -40.2192  -3.0018 H              1 7L9201             0.0000
     24 H3         -39.5757 -40.2479  -2.0403 H              1 7L9201             0.0000
     25 H4         -41.2379 -40.9108   1.8436 H              1 7L9201             0.0000
     26 H5         -38.7933 -42.7427   0.3987 H              1 7L9201             0.0000
     27 H6         -36.4004 -38.8165   1.9944 H              1 7L9201             0.0000
     28 ****       -35.5161 -40.9792   2.3147 LP             1 7L9201             0.0000
     29 ****       -45.8959 -41.1526   1.1936 LP             1 7L9201             0.0000
     30 ****       -45.2181 -40.9615  -0.3888 LP             1 7L9201             0.0000
     31 ****       -44.4996 -41.1519   3.0736 LP             1 7L9201             0.0000
     32 ****       -42.7889 -40.9604   2.8817 LP             1 7L9201             0.0000
     33 ****       -40.2800 -36.8589   0.4986 LP             1 7L9201             0.0000
     34 ****       -40.6116 -38.5509   0.6631 LP             1 7L9201             0.0000
     35 ****       -38.0924 -36.0772   0.6013 LP             1 7L9201             0.0000
     36 ****       -36.7806 -37.1821   0.8430 LP             1 7L9201             0.0000
     37 ****       -34.7036 -44.2709   2.2005 LP             1 7L9201             0.0000
     38 ****       -34.6585 -42.5452   2.3417 LP             1 7L9201             0.0000
     39 ****       -36.6018 -45.3247   1.3228 LP             1 7L9201             0.0000
     40 ****       -37.9607 -44.3784   0.8149 LP             1 7L9201             0.0000
@<TRIPOS>BOND
    1    1    2 ar    
    2    2    3 ar    
    3    3    4 ar    
    4    4    5 ar    
    5    1    6 ar    
    6    5    6 ar    
    7    5    7 1     
    8    3    8 1     
    9    8    9 ar    
   10    9   10 ar    
   11    8   12 ar    
   12   11   12 ar    
   13   12   13 1     
   14   10   14 1     
   15   10   15 ar    
   16   11   15 ar    
   17    7   16 ar    
   18    7   17 ar    
   19   13   18 ar    
   20   13   19 ar    
   21   14   20 ar    
   22   14   21 ar    
   23    6   22 1     
   24    1   23 1     
   25    2   24 1     
   26    4   25 1     
   27    9   26 1     
   28   11   27 1     
   29   15   28 1     
   30   16   29 1     
   31   16   30 1     
   32   17   31 1     
   33   17   32 1     
   34   18   33 1     
   35   18   34 1     
   36   19   35 1     
   37   19   36 1     
   38   20   37 1     
   39   20   38 1     
   40   21   39 1     
   41   21   40 1     
@<TRIPOS>SUBSTRUCTURE
      1 7L9201         1
@<TRIPOS>SET
LONE_PAIRS      STATIC     ATOMS    <user>   **** ""
13 28 29 30 31 32 33 34 35 36 37 38 39 40
ATOM$BLUE        STATIC     ATOMS    COLORGROUP SYSTEM
13 28 29 30 31 32 33 34 35 36 37 38 39 40
@<TRIPOS>COMMENT
> <Gold.Version>
2022.3.0

> <Gold.Id.Protein>
unknown|6c5f_clean|pdb

> <Gold.Protein.ActiveResidues>
 LEU49   SER50   GLN58   ILE95   LEU96   ILE97   ARG98   PRO1    PHE2    LEU3   
 LEU30   LYS32   PRO33   ASP35   ARG36   VAL37   ASN38   ILE61   SER62   SER63  
 ILE64   GLY65   VAL66   VAL67   PHE100  LEU102  GLU103  SER104  TRP105  GLN106 
 ILE107  GLY108  LYS109  ILE110  THR112  VAL113  PHE2    ILE61   SER62   SER63  
 ILE64   PHE2    PRO1    PHE2    PRO1    PHE2    LEU3    LEU96   ILE97   ARG98  
 PHE2    ARG36   VAL37   ASN38   PRO1    PRO1    VAL113  PHE2    LEU30   LYS32  
 PRO33   GLN106  ILE107  GLY108  LYS109  ILE110  ILE64   GLY65   VAL66   VAL67  
 GLN58   PRO1    PRO101  LEU102  GLU103  SER104  TRP105  PHE2    LEU49   SER50  
 PHE2   

> <Gold.Score>
     Fitness  S(hb_ext) S(vdw_ext)  S(hb_int)    S(int)      intcor
     40.77       0.00      30.46       0.00      -1.11       0.06

> <Gold.Goldscore.Fitness>
40.7694

> <Gold.Goldscore.Internal.Vdw>
2.5111

> <Gold.Goldscore.Internal.Torsion>
-3.5566

> <Gold.Goldscore.External.Vdw>
30.4570

> <Gold.Goldscore.Internal.HBond>
0.0000

> <Gold.Goldscore.External.HBond>
0.0000

> <Gold.Goldscore.Internal.Correction>
0.0635

> <Gold.Goldscore.Reference.RMSD>
4.4360

> <Gold.Goldscore.Internal.Vdw.Weighted>
2.5111

> <Gold.Goldscore.Internal.Torsion.Weighted>
-3.5566

> <Gold.Goldscore.External.Vdw.Weighted>
41.8784

> <Gold.Goldscore.Internal.HBond.Weighted>
0.0000

> <Gold.Goldscore.External.HBond.Weighted>
0.0000

> <Gold.Goldscore.Internal.Correction.Weighted>
0.0635

> <Gold.Rescore>
     Score         DG    S(hbond)    S(metal)    S(lipo)     H(rot)  DE(clash)    DE(int)     intcor
     16.00     -21.37       0.00        0.00     135.85       0.00       2.41       2.96       ----

> <Gold.Chemscore.Fitness>
15.9983

> <Gold.Chemscore.DG>
-21.3744

> <Gold.Chemscore.ZeroCoef>
-5.4800

> <Gold.Chemscore.Hbond>
0.0000

> <Gold.Chemscore.Metal>
0.0000

> <Gold.Chemscore.Lipo>
135.8495

> <Gold.Chemscore.Internal_Hbond>
0.0000

> <Gold.Chemscore.DEClash>
2.4137

> <Gold.Chemscore.DEInternal>
2.9624

> <Gold.Chemscore.Rot>
0.0000

> <Gold.Chemscore.Internal.Correction>
   9.000000E+99

> <Gold.Chemscore.Reference.RMSD>
0.0000

> <Gold.Chemscore.Hbond.Weighted>
-0.0000

> <Gold.Chemscore.Metal.Weighted>
-0.0000

> <Gold.Chemscore.Lipo.Weighted>
-15.8944

> <Gold.Chemscore.Internal_Hbond.Weighted>
0.0000

> <Gold.Chemscore.DEClash.Weighted>
2.4137

> <Gold.Chemscore.DEInternal.Weighted>
2.9624

> <Gold.Chemscore.Rot.Weighted>
0.0000

> <Gold.Chemscore.Internal.Correction.Weighted>
   9.000000E+99

> <Gold.Reference.RMSD>
4.4360

#       Name:                F:ID
#       Creating user name   hitesit
#       Creation time:       Mon Feb 27 15:35:14 2023


#       File generated by GOLD software.
#

@<TRIPOS>MOLECULE
F:ID|prep_cristal|mol2|1|dock3
    40    41     1
SMALL
NO_CHARGES


@<TRIPOS>ATOM
      1 CAA        -41.5879 -40.4027  -1.9909 C.ar           1 7L9201             0.0000
      2 CAB        -40.3303 -40.4142  -1.4110 C.ar           1 7L9201             0.0000
      3 CAC        -40.1782 -40.6533  -0.0477 C.ar           1 7L9201             0.0000
      4 CAD        -41.3221 -40.8750   0.7172 C.ar           1 7L9201             0.0000
      5 CAE        -42.5945 -40.8667   0.1488 C.ar           1 7L9201             0.0000
      6 CAF        -42.7134 -40.6280  -1.2165 C.ar           1 7L9201             0.0000
      7 CAG        -43.8213 -41.1120   0.9992 C.2            1 7L9201             0.0000
      8 CAJ        -38.8350 -40.6633   0.6010 C.ar           1 7L9201             0.0000
      9 CAK        -38.2420 -41.9099   0.7974 C.ar           1 7L9201             0.0000
     10 CAL        -37.0238 -42.0126   1.4570 C.ar           1 7L9201             0.0000
     11 CAN        -36.9274 -39.7382   1.7097 C.ar           1 7L9201             0.0000
     12 CAO        -38.1256 -39.5213   1.0326 C.ar           1 7L9201             0.0000
     13 CAP        -38.5945 -38.1009   0.7920 C.2            1 7L9201             0.0000
     14 CAS        -36.3659 -43.3582   1.6700 C.2            1 7L9201             0.0000
     15 NAM        -36.3790 -40.9359   1.9345 N.ar           1 7L9201             0.0000
     16 OAH        -45.0537 -41.0193   0.4507 O.co2          1 7L9201             0.0000
     17 OAI        -43.6856 -41.4240   2.3078 O.co2          1 7L9201             0.0000
     18 OAQ        -39.8747 -37.8778   0.4187 O.co2          1 7L9201             0.0000
     19 OAR        -37.7575 -37.0516   0.9555 O.co2          1 7L9201             0.0000
     20 OAT        -36.9690 -44.4836   1.2253 O.co2          1 7L9201             0.0000
     21 OAU        -35.1747 -43.4353   2.3050 O.co2          1 7L9201             0.0000
     22 H1         -43.6954 -40.6182  -1.6780 H              1 7L9201             0.0000
     23 H2         -41.6914 -40.2166  -3.0548 H              1 7L9201             0.0000
     24 H3         -39.4542 -40.2351  -2.0254 H              1 7L9201             0.0000
     25 H4         -41.2194 -41.0587   1.7815 H              1 7L9201             0.0000
     26 H5         -38.7371 -42.8054   0.4365 H              1 7L9201             0.0000
     27 H6         -36.3966 -38.8671   2.0796 H              1 7L9201             0.0000
     28 ****       -35.5206 -41.0269   2.4395 LP             1 7L9201             0.0000
     29 ****       -45.8647 -41.1814   1.0129 LP             1 7L9201             0.0000
     30 ****       -45.1542 -40.7885  -0.5171 LP             1 7L9201             0.0000
     31 ****       -44.4966 -41.5861   2.8699 LP             1 7L9201             0.0000
     32 ****       -42.7742 -41.4926   2.7135 LP             1 7L9201             0.0000
     33 ****       -40.1953 -36.9430   0.2660 LP             1 7L9201             0.0000
     34 ****       -40.5009 -38.6476   0.2953 LP             1 7L9201             0.0000
     35 ****       -38.0871 -36.1203   0.8005 LP             1 7L9201             0.0000
     36 ****       -36.8089 -37.2069   1.2314 LP             1 7L9201             0.0000
     37 ****       -36.5340 -45.3729   1.3660 LP             1 7L9201             0.0000
     38 ****       -37.8500 -44.4265   0.7556 LP             1 7L9201             0.0000
     39 ****       -34.7397 -44.3246   2.4457 LP             1 7L9201             0.0000
     40 ****       -34.7287 -42.6029   2.6339 LP             1 7L9201             0.0000
@<TRIPOS>BOND
    1    1    2 ar    
    2    2    3 ar    
    3    3    4 ar    
    4    4    5 ar    
    5    1    6 ar    
    6    5    6 ar    
    7    5    7 1     
    8    3    8 1     
    9    8    9 ar    
   10    9   10 ar    
   11    8   12 ar    
   12   11   12 ar    
   13   12   13 1     
   14   10   14 1     
   15   10   15 ar    
   16   11   15 ar    
   17    7   16 ar    
   18    7   17 ar    
   19   13   18 ar    
   20   13   19 ar    
   21   14   20 ar    
   22   14   21 ar    
   23    6   22 1     
   24    1   23 1     
   25    2   24 1     
   26    4   25 1     
   27    9   26 1     
   28   11   27 1     
   29   15   28 1     
   30   16   29 1     
   31   16   30 1     
   32   17   31 1     
   33   17   32 1     
   34   18   33 1     
   35   18   34 1     
   36   19   35 1     
   37   19   36 1     
   38   20   37 1     
   39   20   38 1     
   40   21   39 1     
   41   21   40 1     
@<TRIPOS>SUBSTRUCTURE
      1 7L9201         1
@<TRIPOS>SET
LONE_PAIRS      STATIC     ATOMS    <user>   **** ""
13 28 29 30 31 32 33 34 35 36 37 38 39 40
ATOM$BLUE        STATIC     ATOMS    COLORGROUP SYSTEM
13 28 29 30 31 32 33 34 35 36 37 38 39 40
@<TRIPOS>COMMENT
> <Gold.Version>
2022.3.0

> <Gold.Id.Protein>
unknown|6c5f_clean|pdb

> <Gold.Protein.ActiveResidues>
 LEU49   SER50   GLN58   ILE95   LEU96   ILE97   ARG98   PRO1    PHE2    LEU3   
 LEU30   LYS32   PRO33   ASP35   ARG36   VAL37   ASN38   ILE61   SER62   SER63  
 ILE64   GLY65   VAL66   VAL67   PHE100  LEU102  GLU103  SER104  TRP105  GLN106 
 ILE107  GLY108  LYS109  ILE110  THR112  VAL113  PHE2    ILE61   SER62   SER63  
 ILE64   PHE2    PRO1    PHE2    PRO1    PHE2    LEU3    LEU96   ILE97   ARG98  
 PHE2    ARG36   VAL37   ASN38   PRO1    PRO1    VAL113  PHE2    LEU30   LYS32  
 PRO33   GLN106  ILE107  GLY108  LYS109  ILE110  ILE64   GLY65   VAL66   VAL67  
 GLN58   PRO1    PRO101  LEU102  GLU103  SER104  TRP105  PHE2    LEU49   SER50  
 PHE2   

> <Gold.Score>
     Fitness  S(hb_ext) S(vdw_ext)  S(hb_int)    S(int)      intcor
     40.72       0.00      30.02       0.00      -0.55       0.06

> <Gold.Goldscore.Fitness>
40.7242

> <Gold.Goldscore.Internal.Vdw>
2.3279

> <Gold.Goldscore.Internal.Torsion>
-2.8160

> <Gold.Goldscore.External.Vdw>
30.0188

> <Gold.Goldscore.Internal.HBond>
0.0000

> <Gold.Goldscore.External.HBond>
0.0000

> <Gold.Goldscore.Internal.Correction>
0.0635

> <Gold.Goldscore.Reference.RMSD>
4.4784

> <Gold.Goldscore.Internal.Vdw.Weighted>
2.3279

> <Gold.Goldscore.Internal.Torsion.Weighted>
-2.8160

> <Gold.Goldscore.External.Vdw.Weighted>
41.2759

> <Gold.Goldscore.Internal.HBond.Weighted>
0.0000

> <Gold.Goldscore.External.HBond.Weighted>
0.0000

> <Gold.Goldscore.Internal.Correction.Weighted>
0.0635

> <Gold.Rescore>
     Score         DG    S(hbond)    S(metal)    S(lipo)     H(rot)  DE(clash)    DE(int)     intcor
     16.71     -20.10       0.00        0.00     124.98       0.00       0.44       2.96       ----

> <Gold.Chemscore.Fitness>
16.7081

> <Gold.Chemscore.DG>
-20.1030

> <Gold.Chemscore.ZeroCoef>
-5.4800

> <Gold.Chemscore.Hbond>
0.0000

> <Gold.Chemscore.Metal>
0.0000

> <Gold.Chemscore.Lipo>
124.9825

> <Gold.Chemscore.Internal_Hbond>
0.0000

> <Gold.Chemscore.DEClash>
0.4388

> <Gold.Chemscore.DEInternal>
2.9561

> <Gold.Chemscore.Rot>
0.0000

> <Gold.Chemscore.Internal.Correction>
   9.000000E+99

> <Gold.Chemscore.Reference.RMSD>
0.0000

> <Gold.Chemscore.Hbond.Weighted>
-0.0000

> <Gold.Chemscore.Metal.Weighted>
-0.0000

> <Gold.Chemscore.Lipo.Weighted>
-14.6230

> <Gold.Chemscore.Internal_Hbond.Weighted>
0.0000

> <Gold.Chemscore.DEClash.Weighted>
0.4388

> <Gold.Chemscore.DEInternal.Weighted>
2.9561

> <Gold.Chemscore.Rot.Weighted>
0.0000

> <Gold.Chemscore.Internal.Correction.Weighted>
   9.000000E+99

> <Gold.Reference.RMSD>
4.4784

#       Name:                F:ID
#       Creating user name   hitesit
#       Creation time:       Mon Feb 27 15:35:12 2023


#       File generated by GOLD software.
#

@<TRIPOS>MOLECULE
F:ID|prep_cristal|mol2|1|dock2
    40    41     1
SMALL
NO_CHARGES


@<TRIPOS>ATOM
      1 CAA        -39.3802 -39.2925  -0.5465 C.ar           1 7L9201             0.0000
      2 CAB        -40.2073 -39.5462   0.5350 C.ar           1 7L9201             0.0000
      3 CAC        -41.1736 -40.5468   0.4718 C.ar           1 7L9201             0.0000
      4 CAD        -41.2900 -41.2811  -0.7072 C.ar           1 7L9201             0.0000
      5 CAE        -40.4656 -41.0382  -1.8041 C.ar           1 7L9201             0.0000
      6 CAF        -39.5077 -40.0340  -1.7090 C.ar           1 7L9201             0.0000
      7 CAG        -40.6095 -41.8499  -3.0726 C.2            1 7L9201             0.0000
      8 CAJ        -42.0809 -40.8336   1.6206 C.ar           1 7L9201             0.0000
      9 CAK        -43.4509 -40.7772   1.3677 C.ar           1 7L9201             0.0000
     10 CAL        -44.3640 -40.9626   2.3980 C.ar           1 7L9201             0.0000
     11 CAN        -42.6624 -41.2863   3.8967 C.ar           1 7L9201             0.0000
     12 CAO        -41.6659 -41.1496   2.9327 C.ar           1 7L9201             0.0000
     13 CAP        -40.2177 -41.3494   3.3301 C.2            1 7L9201             0.0000
     14 CAS        -45.8531 -40.9115   2.1359 C.2            1 7L9201             0.0000
     15 NAM        -43.9747 -41.1913   3.6627 N.ar           1 7L9201             0.0000
     16 OAH        -39.8612 -41.5474  -4.1574 O.co2          1 7L9201             0.0000
     17 OAI        -41.4864 -42.8779  -3.1216 O.co2          1 7L9201             0.0000
     18 OAQ        -39.8955 -41.4499   4.6394 O.co2          1 7L9201             0.0000
     19 OAR        -39.2432 -41.4407   2.3971 O.co2          1 7L9201             0.0000
     20 OAT        -46.3128 -40.7721   0.8721 O.co2          1 7L9201             0.0000
     21 OAU        -46.7243 -41.0054   3.1657 O.co2          1 7L9201             0.0000
     22 H1         -38.8557 -39.8300  -2.5520 H              1 7L9201             0.0000
     23 H2         -38.6306 -38.5108  -0.4827 H              1 7L9201             0.0000
     24 H3         -40.1013 -38.9591   1.4412 H              1 7L9201             0.0000
     25 H4         -42.0411 -42.0613  -0.7725 H              1 7L9201             0.0000
     26 H5         -43.8059 -40.5831   0.3609 H              1 7L9201             0.0000
     27 H6         -42.3490 -41.4895   4.9154 H              1 7L9201             0.0000
     28 ****       -44.6417 -41.2868   4.4015 LP             1 7L9201             0.0000
     29 ****       -39.9563 -42.0840  -4.9958 LP             1 7L9201             0.0000
     30 ****       -39.2126 -40.7871  -4.1212 LP             1 7L9201             0.0000
     31 ****       -41.5815 -43.4144  -3.9601 LP             1 7L9201             0.0000
     32 ****       -42.0398 -43.1017  -2.3194 LP             1 7L9201             0.0000
     33 ****       -38.9433 -41.5906   4.9106 LP             1 7L9201             0.0000
     34 ****       -40.6094 -41.3837   5.3365 LP             1 7L9201             0.0000
     35 ****       -38.2938 -41.5813   2.6779 LP             1 7L9201             0.0000
     36 ****       -39.4719 -41.3675   1.4264 LP             1 7L9201             0.0000
     37 ****       -47.2971 -40.7384   0.6990 LP             1 7L9201             0.0000
     38 ****       -45.6684 -40.7027   0.1106 LP             1 7L9201             0.0000
     39 ****       -47.7086 -40.9716   2.9925 LP             1 7L9201             0.0000
     40 ****       -46.3843 -41.1085   4.1004 LP             1 7L9201             0.0000
@<TRIPOS>BOND
    1    1    2 ar    
    2    2    3 ar    
    3    3    4 ar    
    4    4    5 ar    
    5    1    6 ar    
    6    5    6 ar    
    7    5    7 1     
    8    3    8 1     
    9    8    9 ar    
   10    9   10 ar    
   11    8   12 ar    
   12   11   12 ar    
   13   12   13 1     
   14   10   14 1     
   15   10   15 ar    
   16   11   15 ar    
   17    7   16 ar    
   18    7   17 ar    
   19   13   18 ar    
   20   13   19 ar    
   21   14   20 ar    
   22   14   21 ar    
   23    6   22 1     
   24    1   23 1     
   25    2   24 1     
   26    4   25 1     
   27    9   26 1     
   28   11   27 1     
   29   15   28 1     
   30   16   29 1     
   31   16   30 1     
   32   17   31 1     
   33   17   32 1     
   34   18   33 1     
   35   18   34 1     
   36   19   35 1     
   37   19   36 1     
   38   20   37 1     
   39   20   38 1     
   40   21   39 1     
   41   21   40 1     
@<TRIPOS>SUBSTRUCTURE
      1 7L9201         1
@<TRIPOS>SET
LONE_PAIRS      STATIC     ATOMS    <user>   **** ""
13 28 29 30 31 32 33 34 35 36 37 38 39 40
ATOM$BLUE        STATIC     ATOMS    COLORGROUP SYSTEM
13 28 29 30 31 32 33 34 35 36 37 38 39 40
@<TRIPOS>COMMENT
> <Gold.Version>
2022.3.0

> <Gold.Id.Protein>
unknown|6c5f_clean|pdb

> <Gold.Protein.ActiveResidues>
 LEU49   SER50   GLN58   ILE95   LEU96   ILE97   ARG98   PRO1    PHE2    LEU3   
 LEU30   LYS32   PRO33   ASP35   ARG36   VAL37   ASN38   ILE61   SER62   SER63  
 ILE64   GLY65   VAL66   VAL67   PHE100  LEU102  GLU103  SER104  TRP105  GLN106 
 ILE107  GLY108  LYS109  ILE110  THR112  VAL113  PHE2    ILE61   SER62   SER63  
 ILE64   PHE2    PRO1    PHE2    PRO1    PHE2    LEU3    LEU96   ILE97   ARG98  
 PHE2    ARG36   VAL37   ASN38   PRO1    PRO1    VAL113  PHE2    LEU30   LYS32  
 PRO33   GLN106  ILE107  GLY108  LYS109  ILE110  ILE64   GLY65   VAL66   VAL67  
 GLN58   PRO1    PRO101  LEU102  GLU103  SER104  TRP105  PHE2    LEU49   SER50  
 PHE2   

> <Gold.Score>
     Fitness  S(hb_ext) S(vdw_ext)  S(hb_int)    S(int)      intcor
     39.42       0.00      28.92       0.00      -0.34       0.06

> <Gold.Goldscore.Fitness>
39.4242

> <Gold.Goldscore.Internal.Vdw>
1.6328

> <Gold.Goldscore.Internal.Torsion>
-1.9117

> <Gold.Goldscore.External.Vdw>
28.9212

> <Gold.Goldscore.Internal.HBond>
0.0000

> <Gold.Goldscore.External.HBond>
0.0000

> <Gold.Goldscore.Internal.Correction>
0.0635

> <Gold.Goldscore.Reference.RMSD>
6.6175

> <Gold.Goldscore.Internal.Vdw.Weighted>
1.6328

> <Gold.Goldscore.Internal.Torsion.Weighted>
-1.9117

> <Gold.Goldscore.External.Vdw.Weighted>
39.7666

> <Gold.Goldscore.Internal.HBond.Weighted>
0.0000

> <Gold.Goldscore.External.HBond.Weighted>
0.0000

> <Gold.Goldscore.Internal.Correction.Weighted>
0.0635

> <Gold.Rescore>
     Score         DG    S(hbond)    S(metal)    S(lipo)     H(rot)  DE(clash)    DE(int)     intcor
     15.33     -19.16       0.00        0.00     116.92       0.00       0.16       3.66       ----

> <Gold.Chemscore.Fitness>
15.3315

> <Gold.Chemscore.DG>
-19.1602

> <Gold.Chemscore.ZeroCoef>
-5.4800

> <Gold.Chemscore.Hbond>
0.0000

> <Gold.Chemscore.Metal>
0.0000

> <Gold.Chemscore.Lipo>
116.9248

> <Gold.Chemscore.Internal_Hbond>
0.0000

> <Gold.Chemscore.DEClash>
0.1644

> <Gold.Chemscore.DEInternal>
3.6643

> <Gold.Chemscore.Rot>
0.0000

> <Gold.Chemscore.Internal.Correction>
   9.000000E+99

> <Gold.Chemscore.Reference.RMSD>
0.0000

> <Gold.Chemscore.Hbond.Weighted>
-0.0000

> <Gold.Chemscore.Metal.Weighted>
-0.0000

> <Gold.Chemscore.Lipo.Weighted>
-13.6802

> <Gold.Chemscore.Internal_Hbond.Weighted>
0.0000

> <Gold.Chemscore.DEClash.Weighted>
0.1644

> <Gold.Chemscore.DEInternal.Weighted>
3.6643

> <Gold.Chemscore.Rot.Weighted>
0.0000

> <Gold.Chemscore.Internal.Correction.Weighted>
   9.000000E+99

> <Gold.Reference.RMSD>
6.6175

#       Name:                F:ID
#       Creating user name   hitesit
#       Creation time:       Mon Feb 27 15:35:18 2023


#       File generated by GOLD software.
#

@<TRIPOS>MOLECULE
F:ID|prep_cristal|mol2|1|dock5
    40    41     1
SMALL
NO_CHARGES


@<TRIPOS>ATOM
      1 CAA        -41.4914 -40.0694  -2.1134 C.ar           1 7L9201             0.0000
      2 CAB        -40.2479 -40.0043  -1.5071 C.ar           1 7L9201             0.0000
      3 CAC        -40.0987 -40.3078  -0.1564 C.ar           1 7L9201             0.0000
      4 CAD        -41.2315 -40.6726   0.5691 C.ar           1 7L9201             0.0000
      5 CAE        -42.4896 -40.7428  -0.0261 C.ar           1 7L9201             0.0000
      6 CAF        -42.6057 -40.4368  -1.3781 C.ar           1 7L9201             0.0000
      7 CAG        -43.7043 -41.1434   0.7817 C.2            1 7L9201             0.0000
      8 CAJ        -38.7713 -40.2377   0.5205 C.ar           1 7L9201             0.0000
      9 CAK        -38.1171 -41.4482   0.7462 C.ar           1 7L9201             0.0000
     10 CAL        -36.9098 -41.4773   1.4326 C.ar           1 7L9201             0.0000
     11 CAN        -36.9402 -39.1980   1.6563 C.ar           1 7L9201             0.0000
     12 CAO        -38.1333 -39.0541   0.9514 C.ar           1 7L9201             0.0000
     13 CAP        -38.6718 -37.6639   0.6816 C.2            1 7L9201             0.0000
     14 CAS        -36.1859 -42.7830   1.6776 C.2            1 7L9201             0.0000
     15 NAM        -36.3338 -40.3618   1.9089 N.ar           1 7L9201             0.0000
     16 OAH        -44.9439 -40.9684   0.2706 O.co2          1 7L9201             0.0000
     17 OAI        -43.5507 -41.6764   2.0147 O.co2          1 7L9201             0.0000
     18 OAQ        -39.9713 -37.3931   0.9388 O.co2          1 7L9201             0.0000
     19 OAR        -37.8722 -36.6862   0.1991 O.co2          1 7L9201             0.0000
     20 OAT        -35.0214 -42.7918   2.3644 O.co2          1 7L9201             0.0000
     21 OAU        -36.7036 -43.9411   1.2097 O.co2          1 7L9201             0.0000
     22 H1         -43.5765 -40.4862  -1.8601 H              1 7L9201             0.0000
     23 H2         -41.5926 -39.8317  -3.1672 H              1 7L9201             0.0000
     24 H3         -39.3807 -39.7139  -2.0909 H              1 7L9201             0.0000
     25 H4         -41.1313 -40.9080   1.6235 H              1 7L9201             0.0000
     26 H5         -38.5558 -42.3734   0.3872 H              1 7L9201             0.0000
     27 H6         -36.4648 -38.2953   2.0254 H              1 7L9201             0.0000
     28 ****       -35.4830 -40.4004   2.4329 LP             1 7L9201             0.0000
     29 ****       -45.7468 -41.2331   0.8045 LP             1 7L9201             0.0000
     30 ****       -45.0576 -40.5742  -0.6414 LP             1 7L9201             0.0000
     31 ****       -44.3537 -41.9412   2.5486 LP             1 7L9201             0.0000
     32 ****       -42.6340 -41.8059   2.3928 LP             1 7L9201             0.0000
     33 ****       -40.3334 -36.4760   0.7719 LP             1 7L9201             0.0000
     34 ****       -40.5703 -38.1098   1.2958 LP             1 7L9201             0.0000
     35 ****       -38.2432 -35.7721   0.0354 LP             1 7L9201             0.0000
     36 ****       -36.9098 -36.8772   0.0060 LP             1 7L9201             0.0000
     37 ****       -34.5430 -43.6549   2.5263 LP             1 7L9201             0.0000
     38 ****       -34.6385 -41.9353   2.7104 LP             1 7L9201             0.0000
     39 ****       -36.2252 -44.8042   1.3716 LP             1 7L9201             0.0000
     40 ****       -37.5650 -43.9345   0.7017 LP             1 7L9201             0.0000
@<TRIPOS>BOND
    1    1    2 ar    
    2    2    3 ar    
    3    3    4 ar    
    4    4    5 ar    
    5    1    6 ar    
    6    5    6 ar    
    7    5    7 1     
    8    3    8 1     
    9    8    9 ar    
   10    9   10 ar    
   11    8   12 ar    
   12   11   12 ar    
   13   12   13 1     
   14   10   14 1     
   15   10   15 ar    
   16   11   15 ar    
   17    7   16 ar    
   18    7   17 ar    
   19   13   18 ar    
   20   13   19 ar    
   21   14   20 ar    
   22   14   21 ar    
   23    6   22 1     
   24    1   23 1     
   25    2   24 1     
   26    4   25 1     
   27    9   26 1     
   28   11   27 1     
   29   15   28 1     
   30   16   29 1     
   31   16   30 1     
   32   17   31 1     
   33   17   32 1     
   34   18   33 1     
   35   18   34 1     
   36   19   35 1     
   37   19   36 1     
   38   20   37 1     
   39   20   38 1     
   40   21   39 1     
   41   21   40 1     
@<TRIPOS>SUBSTRUCTURE
      1 7L9201         1
@<TRIPOS>SET
LONE_PAIRS      STATIC     ATOMS    <user>   **** ""
13 28 29 30 31 32 33 34 35 36 37 38 39 40
ATOM$BLUE        STATIC     ATOMS    COLORGROUP SYSTEM
13 28 29 30 31 32 33 34 35 36 37 38 39 40
@<TRIPOS>COMMENT
> <Gold.Version>
2022.3.0

> <Gold.Id.Protein>
unknown|6c5f_clean|pdb

> <Gold.Protein.ActiveResidues>
 LEU49   SER50   GLN58   ILE95   LEU96   ILE97   ARG98   PRO1    PHE2    LEU3   
 LEU30   LYS32   PRO33   ASP35   ARG36   VAL37   ASN38   ILE61   SER62   SER63  
 ILE64   GLY65   VAL66   VAL67   PHE100  LEU102  GLU103  SER104  TRP105  GLN106 
 ILE107  GLY108  LYS109  ILE110  THR112  VAL113  PHE2    ILE61   SER62   SER63  
 ILE64   PHE2    PRO1    PHE2    PRO1    PHE2    LEU3    LEU96   ILE97   ARG98  
 PHE2    ARG36   VAL37   ASN38   PRO1    PRO1    VAL113  PHE2    LEU30   LYS32  
 PRO33   GLN106  ILE107  GLY108  LYS109  ILE110  ILE64   GLY65   VAL66   VAL67  
 GLN58   PRO1    PRO101  LEU102  GLU103  SER104  TRP105  PHE2    LEU49   SER50  
 PHE2   

> <Gold.Score>
     Fitness  S(hb_ext) S(vdw_ext)  S(hb_int)    S(int)      intcor
     39.39       0.00      31.09       0.00      -3.35       0.06

> <Gold.Goldscore.Fitness>
39.3942

> <Gold.Goldscore.Internal.Vdw>
2.8448

> <Gold.Goldscore.Internal.Torsion>
-6.1315

> <Gold.Goldscore.External.Vdw>
31.0868

> <Gold.Goldscore.Internal.HBond>
0.0000

> <Gold.Goldscore.External.HBond>
0.0000

> <Gold.Goldscore.Internal.Correction>
0.0635

> <Gold.Goldscore.Reference.RMSD>
4.4636

> <Gold.Goldscore.Internal.Vdw.Weighted>
2.8448

> <Gold.Goldscore.Internal.Torsion.Weighted>
-6.1315

> <Gold.Goldscore.External.Vdw.Weighted>
42.7444

> <Gold.Goldscore.Internal.HBond.Weighted>
0.0000

> <Gold.Goldscore.External.HBond.Weighted>
0.0000

> <Gold.Goldscore.Internal.Correction.Weighted>
0.0635

> <Gold.Rescore>
     Score         DG    S(hbond)    S(metal)    S(lipo)     H(rot)  DE(clash)    DE(int)     intcor
     15.56     -21.50       0.00        0.00     136.93       0.00       3.71       2.23       ----

> <Gold.Chemscore.Fitness>
15.5579

> <Gold.Chemscore.DG>
-21.5005

> <Gold.Chemscore.ZeroCoef>
-5.4800

> <Gold.Chemscore.Hbond>
0.0000

> <Gold.Chemscore.Metal>
0.0000

> <Gold.Chemscore.Lipo>
136.9277

> <Gold.Chemscore.Internal_Hbond>
0.0000

> <Gold.Chemscore.DEClash>
3.7091

> <Gold.Chemscore.DEInternal>
2.2336

> <Gold.Chemscore.Rot>
0.0000

> <Gold.Chemscore.Internal.Correction>
   9.000000E+99

> <Gold.Chemscore.Reference.RMSD>
0.0000

> <Gold.Chemscore.Hbond.Weighted>
-0.0000

> <Gold.Chemscore.Metal.Weighted>
-0.0000

> <Gold.Chemscore.Lipo.Weighted>
-16.0205

> <Gold.Chemscore.Internal_Hbond.Weighted>
0.0000

> <Gold.Chemscore.DEClash.Weighted>
3.7091

> <Gold.Chemscore.DEInternal.Weighted>
2.2336

> <Gold.Chemscore.Rot.Weighted>
0.0000

> <Gold.Chemscore.Internal.Correction.Weighted>
   9.000000E+99

> <Gold.Reference.RMSD>
4.4636

