#       Name:                CT1002167954
#       Creating user name   hitesit
#       Creation time:       Sun Apr 16 20:16:38 2023


#       File generated by GOLD software.
#

@<TRIPOS>MOLECULE
CT1002167954|ligand_prepared|mol2|1|dock2
    29    30     1
SMALL
NO_CHARGES


@<TRIPOS>ATOM
      1 C1          -8.8824  -6.5873  18.8250 C.3            1 RES1               0.0000
      2 C2          -7.5215  -5.9694  19.2059 C.ar           1 RES1               0.0000
      3 C3          -8.7646  -7.0165  17.3655 C.2            1 RES1               0.0000
      4 C4          -9.1141  -7.7400  19.7957 C.2            1 RES1               0.0000
      5 C5         -10.0717  -5.6074  18.9544 C.3            1 RES1               0.0000
      6 C6          -6.4120  -6.1369  18.3827 C.ar           1 RES1               0.0000
      7 C7          -7.3611  -5.2285  20.3737 C.ar           1 RES1               0.0000
      8 N8          -8.6547  -8.3509  17.1062 N.am           1 RES1               0.0000
      9 O9          -8.7288  -6.1942  16.4585 O.2            1 RES1               0.0000
     10 N10         -9.1399  -9.0123  19.2873 N.am           1 RES1               0.0000
     11 O11         -9.2581  -7.5594  20.9986 O.2            1 RES1               0.0000
     12 C12        -11.3858  -6.1655  18.4311 C.3            1 RES1               0.0000
     13 C13         -5.1871  -5.5813  18.7135 C.ar           1 RES1               0.0000
     14 C14         -6.1353  -4.6739  20.7027 C.ar           1 RES1               0.0000
     15 C15         -8.8900  -9.3724  17.9911 C.2            1 RES1               0.0000
     16 C16         -5.0480  -4.8491  19.8733 C.ar           1 RES1               0.0000
     17 O17         -8.8775 -10.5428  17.6209 O.2            1 RES1               0.0000
     18 H18        -10.1968  -5.3416  20.0113 H              1 RES1               0.0000
     19 H19         -9.8340  -4.6889  18.4036 H              1 RES1               0.0000
     20 H20         -6.5017  -6.7120  17.4672 H              1 RES1               0.0000
     21 H21         -8.2024  -5.0785  21.0419 H              1 RES1               0.0000
     22 H22         -8.3712  -8.6136  16.1677 H              1 RES1               0.0000
     23 H23         -9.3664  -9.7602  19.9351 H              1 RES1               0.0000
     24 H24        -12.1867  -5.4381  18.5456 H              1 RES1               0.0000
     25 H25        -11.3050  -6.4173  17.3757 H              1 RES1               0.0000
     26 H26        -11.6657  -7.0660  18.9739 H              1 RES1               0.0000
     27 H27         -4.3342  -5.7233  18.0580 H              1 RES1               0.0000
     28 H28         -6.0302  -4.0989  21.6169 H              1 RES1               0.0000
     29 H29         -4.0885  -4.4136  20.1320 H              1 RES1               0.0000
@<TRIPOS>BOND
    1    1    2 1     
    2    1    3 1     
    3    1    4 1     
    4    1    5 1     
    5    2    6 ar    
    6    2    7 ar    
    7    3    8 1     
    8    3    9 2     
    9    4   10 1     
   10    4   11 2     
   11    5   12 1     
   12    5   18 1     
   13    5   19 1     
   14    6   13 ar    
   15    6   20 1     
   16    7   14 ar    
   17    7   21 1     
   18    8   15 1     
   19    8   22 1     
   20   10   15 1     
   21   10   23 1     
   22   12   24 1     
   23   12   25 1     
   24   12   26 1     
   25   13   16 ar    
   26   13   27 1     
   27   14   16 ar    
   28   14   28 1     
   29   15   17 2     
   30   16   29 1     
@<TRIPOS>SUBSTRUCTURE
      1 RES1           1
@<TRIPOS>SET
DONOR_HYDROGENS      STATIC     ATOMS    <user>   **** ""
2 22 23
ATOM$RED        STATIC     ATOMS    COLORGROUP SYSTEM
2 22 23
@<TRIPOS>COMMENT
> <Gold.Version>
2022.3.0

> <Gold.Id.Protein>
unknown|3ovv_clean|pdb

> <Gold.Protein.RotatedTorsions>
[  604  597  595  592 ] final  -64.42 input   59.96 | X-H torsion
[  622  617  616  613 ] final  -77.80 input   59.98 | X-H torsion
[ 2635 2624 2623 2622 ] final  -48.78 input   60.00 | X-H torsion
[ 3186 3179 3177 3174 ] final  -68.77 input   59.97 | X-H torsion
[ 5212 5203 5202 5200 ] final  -13.69 input   59.98 | X-H torsion

> <Gold.Protein.ActiveResidues>
 GLY50   THR51   GLY52   SER53   PHE54   GLY55   ARG56   VAL57   LYS72   GLU127 
 PHE129  ASP166  LYS168  GLU170  ASN171  THR183  ASP184  THR201  TYR330 

> <Gold.Protein.RotatedAtoms>
   -5.6426   -2.8138   13.0754 H   0  0  0  0  0  0  0  0  0  0  0  0  # atno 604  bound_to 597 
   -7.1574    2.5500   20.5043 H   0  0  0  0  0  0  0  0  0  0  0  0  # atno 622  bound_to 617 
  -14.9718   -0.6084   18.3078 H   0  0  0  0  0  0  0  0  0  0  0  0  # atno 2635 bound_to 2624
  -15.1285   -0.8182   19.9439 H   0  0  0  0  0  0  0  0  0  0  0  0  # atno 2636 bound_to 2624
  -13.7954   -1.4095   19.1561 H   0  0  0  0  0  0  0  0  0  0  0  0  # atno 2637 bound_to 2624
  -15.7161    0.8184   20.4857 H   0  0  0  0  0  0  0  0  0  0  0  0  # atno 3186 bound_to 3179
   -8.8823   -5.7240   10.2860 H   0  0  0  0  0  0  0  0  0  0  0  0  # atno 5212 bound_to 5203
   -4.8029   -1.4334   13.2686 LP  0  0  0  0  0  0  0  0  0  0  0  0  # atno 5529 bound_to 597 
   -5.9451   -1.8567   14.3562 LP  0  0  0  0  0  0  0  0  0  0  0  0  # atno 5530 bound_to 597 
   -7.5767    2.0652   22.0001 LP  0  0  0  0  0  0  0  0  0  0  0  0  # atno 5533 bound_to 617 
   -7.3847    0.9672   20.8067 LP  0  0  0  0  0  0  0  0  0  0  0  0  # atno 5534 bound_to 617 
  -16.5070   -0.5428   20.0725 LP  0  0  0  0  0  0  0  0  0  0  0  0  # atno 5539 bound_to 3179
  -16.5147   -0.0292   21.6226 LP  0  0  0  0  0  0  0  0  0  0  0  0  # atno 5540 bound_to 3179
   -8.8823   -4.0968   10.2744 LP  0  0  0  0  0  0  0  0  0  0  0  0  # atno 5541 bound_to 5203
   -8.5333   -4.9064   11.6490 LP  0  0  0  0  0  0  0  0  0  0  0  0  # atno 5542 bound_to 5203

> <Gold.Score>
     Fitness  S(hb_ext) S(vdw_ext)  S(hb_int)    S(int)      intcor
     42.96       2.23      30.85       0.00      -1.70      -0.80

> <Gold.Goldscore.Fitness>
42.9592

> <Gold.Goldscore.Internal.Vdw>
-2.0619

> <Gold.Goldscore.Internal.Torsion>
-0.4377

> <Gold.Goldscore.External.Vdw>
30.8546

> <Gold.Goldscore.Internal.HBond>
0.0000

> <Gold.Goldscore.External.HBond>
2.2298

> <Gold.Goldscore.Internal.Correction>
-0.8038

> <Gold.Goldscore.Hbonds>
donor molecule, donor type, donor heavy atom, donor atom, acceptor molecule, acceptor atom, score
      P1  H   932   945       L1    11  0.37

> <Gold.Goldscore.Internal.Vdw.Weighted>
-2.0619

> <Gold.Goldscore.Internal.Torsion.Weighted>
-0.4377

> <Gold.Goldscore.External.Vdw.Weighted>
42.4251

> <Gold.Goldscore.Internal.HBond.Weighted>
0.0000

> <Gold.Goldscore.External.HBond.Weighted>
2.2298

> <Gold.Goldscore.Internal.Correction.Weighted>
-0.8038

> <Gold.Rescore>
     Score     S(PLP)   S(hbond)     S(cho)   S(metal)  DE(clash)   DE(tors)     intcor
     41.11     -40.48       1.00       0.00       0.00       0.00       1.19       ----

> <Gold.PLP.Fitness>
41.1052

> <Gold.PLP.PLP>
-40.4811

> <Gold.PLP.part.hbond>
-1.0000

> <Gold.PLP.part.metal>
0.0000

> <Gold.PLP.part.buried>
-2.8176

> <Gold.PLP.part.nonpolar>
-38.8361

> <Gold.PLP.part.repulsive>
0.3276

> <Gold.PLP.ligand.clash>
0.0000

> <Gold.PLP.ligand.torsion>
1.1880

> <Gold.PLP.Chemscore.Hbond>
1.0000

> <Gold.PLP.Chemscore.CHOScore>
0.0000

> <Gold.PLP.Chemscore.Metal>
0.0000

> <Gold.Chemscore.Hbonds>
donor molecule, donor type, donor heavy atom, donor atom, acceptor molecule, acceptor atom, score
      P1  H   932   945       L1    11  1.00

> <Gold.PLP.Chemscore.Internal.Correction>
   9.000000E+99

