#       Name:                CT1002167954
#       Creating user name   hitesit
#       Creation time:       Sun Apr 16 20:16:44 2023


#       File generated by GOLD software.
#

@<TRIPOS>MOLECULE
CT1002167954|ligand_prepared|mol2|1|dock8
    29    30     1
SMALL
NO_CHARGES


@<TRIPOS>ATOM
      1 C1          -9.3543  -7.0166  17.2851 C.3            1 RES1               0.0000
      2 C2          -8.2114  -6.3917  18.1109 C.ar           1 RES1               0.0000
      3 C3         -10.4889  -7.2958  18.2665 C.2            1 RES1               0.0000
      4 C4          -9.7036  -6.0009  16.2030 C.2            1 RES1               0.0000
      5 C5          -8.9694  -8.3429  16.5891 C.3            1 RES1               0.0000
      6 C6          -6.9298  -6.2841  17.5792 C.ar           1 RES1               0.0000
      7 C7          -8.4234  -5.9168  19.4024 C.ar           1 RES1               0.0000
      8 N8         -11.5796  -6.4784  18.2205 N.am           1 RES1               0.0000
      9 O9         -10.4107  -8.1949  19.0946 O.2            1 RES1               0.0000
     10 N10        -10.9423  -5.4167  16.2465 N.am           1 RES1               0.0000
     11 O11         -8.9111  -5.6888  15.3227 O.2            1 RES1               0.0000
     12 C12        -10.1529  -9.0882  15.9924 C.3            1 RES1               0.0000
     13 C13         -5.8982  -5.7194  18.3109 C.ar           1 RES1               0.0000
     14 C14         -7.3904  -5.3527  20.1326 C.ar           1 RES1               0.0000
     15 C15        -11.8848  -5.5866  17.2239 C.2            1 RES1               0.0000
     16 C16         -6.1278  -5.2530  19.5877 C.ar           1 RES1               0.0000
     17 O17        -12.9544  -4.9842  17.2225 O.2            1 RES1               0.0000
     18 H18         -8.2493  -8.1264  15.7903 H              1 RES1               0.0000
     19 H19         -8.4740  -8.9943  17.3197 H              1 RES1               0.0000
     20 H20         -6.7296  -6.6478  16.5769 H              1 RES1               0.0000
     21 H21         -9.4083  -5.9858  19.8518 H              1 RES1               0.0000
     22 H22        -12.2282  -6.5355  18.9991 H              1 RES1               0.0000
     23 H23        -11.1844  -4.7979  15.4792 H              1 RES1               0.0000
     24 H24         -9.8275 -10.0109  15.5166 H              1 RES1               0.0000
     25 H25        -10.8775  -9.3417  16.7633 H              1 RES1               0.0000
     26 H26        -10.6542  -8.4790  15.2431 H              1 RES1               0.0000
     27 H27         -4.9061  -5.6446  17.8780 H              1 RES1               0.0000
     28 H28         -7.5755  -4.9875  21.1373 H              1 RES1               0.0000
     29 H29         -5.3197  -4.8104  20.1606 H              1 RES1               0.0000
@<TRIPOS>BOND
    1    1    2 1     
    2    1    3 1     
    3    1    4 1     
    4    1    5 1     
    5    2    6 ar    
    6    2    7 ar    
    7    3    8 1     
    8    3    9 2     
    9    4   10 1     
   10    4   11 2     
   11    5   12 1     
   12    5   18 1     
   13    5   19 1     
   14    6   13 ar    
   15    6   20 1     
   16    7   14 ar    
   17    7   21 1     
   18    8   15 1     
   19    8   22 1     
   20   10   15 1     
   21   10   23 1     
   22   12   24 1     
   23   12   25 1     
   24   12   26 1     
   25   13   16 ar    
   26   13   27 1     
   27   14   16 ar    
   28   14   28 1     
   29   15   17 2     
   30   16   29 1     
@<TRIPOS>SUBSTRUCTURE
      1 RES1           1
@<TRIPOS>SET
DONOR_HYDROGENS      STATIC     ATOMS    <user>   **** ""
2 22 23
ATOM$RED        STATIC     ATOMS    COLORGROUP SYSTEM
2 22 23
@<TRIPOS>COMMENT
> <Gold.Version>
2022.3.0

> <Gold.Id.Protein>
unknown|3ovv_clean|pdb

> <Gold.Protein.RotatedTorsions>
[  604  597  595  592 ] final   -3.82 input   59.96 | X-H torsion
[  622  617  616  613 ] final  161.70 input   59.98 | X-H torsion
[ 2635 2624 2623 2622 ] final -109.53 input   60.00 | X-H torsion
[ 3186 3179 3177 3174 ] final  -12.83 input   59.97 | X-H torsion
[ 5212 5203 5202 5200 ] final   59.90 input   59.98 | X-H torsion

> <Gold.Protein.ActiveResidues>
 GLY50   THR51   GLY52   SER53   PHE54   GLY55   ARG56   VAL57   LYS72   GLU127 
 PHE129  ASP166  LYS168  GLU170  ASN171  THR183  ASP184  THR201  TYR330 

> <Gold.Protein.RotatedAtoms>
   -6.1216   -2.6299   13.8684 H   0  0  0  0  0  0  0  0  0  0  0  0  # atno 604  bound_to 597 
   -7.5741    2.0556   21.9959 H   0  0  0  0  0  0  0  0  0  0  0  0  # atno 622  bound_to 617 
  -14.1267   -1.0784   18.3347 H   0  0  0  0  0  0  0  0  0  0  0  0  # atno 2635 bound_to 2624
  -15.4671   -0.4796   19.1031 H   0  0  0  0  0  0  0  0  0  0  0  0  # atno 2636 bound_to 2624
  -14.3019   -1.2782   19.9702 H   0  0  0  0  0  0  0  0  0  0  0  0  # atno 2637 bound_to 2624
  -15.9530    0.7395   21.3280 H   0  0  0  0  0  0  0  0  0  0  0  0  # atno 3186 bound_to 3179
   -8.6062   -5.5859   11.3641 H   0  0  0  0  0  0  0  0  0  0  0  0  # atno 5212 bound_to 5203
   -4.9888   -2.2238   12.7730 LP  0  0  0  0  0  0  0  0  0  0  0  0  # atno 5529 bound_to 597 
   -5.2767   -1.2515   14.0530 LP  0  0  0  0  0  0  0  0  0  0  0  0  # atno 5530 bound_to 597 
   -7.3825    0.9698   20.7991 LP  0  0  0  0  0  0  0  0  0  0  0  0  # atno 5533 bound_to 617 
   -7.1592    2.5606   20.5056 LP  0  0  0  0  0  0  0  0  0  0  0  0  # atno 5534 bound_to 617 
  -16.0068    0.1400   19.8159 LP  0  0  0  0  0  0  0  0  0  0  0  0  # atno 5539 bound_to 3179
  -16.7765   -0.6326   21.0313 LP  0  0  0  0  0  0  0  0  0  0  0  0  # atno 5540 bound_to 3179
   -8.9942   -5.1370    9.8489 LP  0  0  0  0  0  0  0  0  0  0  0  0  # atno 5541 bound_to 5203
   -8.6995   -4.0053   10.9886 LP  0  0  0  0  0  0  0  0  0  0  0  0  # atno 5542 bound_to 5203

> <Gold.Score>
     Fitness  S(hb_ext) S(vdw_ext)  S(hb_int)    S(int)      intcor
     38.77       0.07      29.14       0.00      -1.38      -0.77

> <Gold.Goldscore.Fitness>
38.7666

> <Gold.Goldscore.Internal.Vdw>
-1.5899

> <Gold.Goldscore.Internal.Torsion>
-0.5522

> <Gold.Goldscore.External.Vdw>
29.1447

> <Gold.Goldscore.Internal.HBond>
0.0000

> <Gold.Goldscore.External.HBond>
0.0695

> <Gold.Goldscore.Internal.Correction>
-0.7653

> <Gold.Goldscore.Hbonds>
donor molecule, donor type, donor heavy atom, donor atom, acceptor molecule, acceptor atom, score
      L1  H     8    22       P1  2674  0.03

> <Gold.Goldscore.Internal.Vdw.Weighted>
-1.5899

> <Gold.Goldscore.Internal.Torsion.Weighted>
-0.5522

> <Gold.Goldscore.External.Vdw.Weighted>
40.0739

> <Gold.Goldscore.Internal.HBond.Weighted>
0.0000

> <Gold.Goldscore.External.HBond.Weighted>
0.0695

> <Gold.Goldscore.Internal.Correction.Weighted>
-0.7653

> <Gold.Rescore>
     Score     S(PLP)   S(hbond)     S(cho)   S(metal)  DE(clash)   DE(tors)     intcor
     33.37     -33.37       0.69       0.00       0.00       0.97       0.54       ----

> <Gold.PLP.Fitness>
33.3726

> <Gold.PLP.PLP>
-33.3716

> <Gold.PLP.part.hbond>
-1.9571

> <Gold.PLP.part.metal>
0.0000

> <Gold.PLP.part.buried>
-1.7495

> <Gold.PLP.part.nonpolar>
-32.1422

> <Gold.PLP.part.repulsive>
1.8514

> <Gold.PLP.ligand.clash>
0.9736

> <Gold.PLP.ligand.torsion>
0.5447

> <Gold.PLP.Chemscore.Hbond>
0.6880

> <Gold.PLP.Chemscore.CHOScore>
0.0000

> <Gold.PLP.Chemscore.Metal>
0.0000

> <Gold.Chemscore.Hbonds>
donor molecule, donor type, donor heavy atom, donor atom, acceptor molecule, acceptor atom, score
      L1  H     8    22       P1  2674  0.53

> <Gold.PLP.Chemscore.Internal.Correction>
   9.000000E+99

