#       Name:                CT1002167954
#       Creating user name   hitesit
#       Creation time:       Sun Apr 16 20:16:46 2023


#       File generated by GOLD software.
#

@<TRIPOS>MOLECULE
CT1002167954|ligand_prepared|mol2|1|dock10
    29    30     1
SMALL
NO_CHARGES


@<TRIPOS>ATOM
      1 C1          -9.5285  -7.5020  17.9164 C.3            1 RES1               0.0000
      2 C2          -9.3929  -9.0293  17.7498 C.ar           1 RES1               0.0000
      3 C3          -8.7692  -6.8747  16.7510 C.2            1 RES1               0.0000
      4 C4         -11.0238  -7.2040  17.9170 C.2            1 RES1               0.0000
      5 C5          -8.9334  -6.9623  19.2378 C.3            1 RES1               0.0000
      6 C6          -9.5622  -9.6239  16.5030 C.ar           1 RES1               0.0000
      7 C7          -9.0966  -9.8549  18.8311 C.ar           1 RES1               0.0000
      8 N8          -9.5030  -6.3233  15.7424 N.am           1 RES1               0.0000
      9 O9          -7.5457  -6.8987  16.6986 O.2            1 RES1               0.0000
     10 N10        -11.5330  -6.4713  16.8769 N.am           1 RES1               0.0000
     11 O11        -11.7685  -7.6113  18.8000 O.2            1 RES1               0.0000
     12 C12         -8.8412  -5.4456  19.2943 C.3            1 RES1               0.0000
     13 C13         -9.4370 -10.9938  16.3423 C.ar           1 RES1               0.0000
     14 C14         -8.9721 -11.2247  18.6682 C.ar           1 RES1               0.0000
     15 C15        -10.8456  -6.0436  15.7738 C.2            1 RES1               0.0000
     16 C16         -9.1415 -11.7951  17.4246 C.ar           1 RES1               0.0000
     17 O17        -11.3850  -5.4364  14.8532 O.2            1 RES1               0.0000
     18 H18         -9.5544  -7.3097  20.0726 H              1 RES1               0.0000
     19 H19         -7.9286  -7.3822  19.3699 H              1 RES1               0.0000
     20 H20         -9.7976  -9.0097  15.6401 H              1 RES1               0.0000
     21 H21         -8.9602  -9.4282  19.8190 H              1 RES1               0.0000
     22 H22         -9.0078  -6.0980  14.8854 H              1 RES1               0.0000
     23 H23        -12.5154  -6.2215  16.9300 H              1 RES1               0.0000
     24 H24         -8.4171  -5.1200  20.2419 H              1 RES1               0.0000
     25 H25         -8.2100  -5.0673  18.4929 H              1 RES1               0.0000
     26 H26         -9.8262  -4.9952  19.1914 H              1 RES1               0.0000
     27 H27         -9.5726 -11.4380  15.3617 H              1 RES1               0.0000
     28 H28         -8.7400 -11.8515  19.5229 H              1 RES1               0.0000
     29 H29         -9.0431 -12.8682  17.2984 H              1 RES1               0.0000
@<TRIPOS>BOND
    1    1    2 1     
    2    1    3 1     
    3    1    4 1     
    4    1    5 1     
    5    2    6 ar    
    6    2    7 ar    
    7    3    8 1     
    8    3    9 2     
    9    4   10 1     
   10    4   11 2     
   11    5   12 1     
   12    5   18 1     
   13    5   19 1     
   14    6   13 ar    
   15    6   20 1     
   16    7   14 ar    
   17    7   21 1     
   18    8   15 1     
   19    8   22 1     
   20   10   15 1     
   21   10   23 1     
   22   12   24 1     
   23   12   25 1     
   24   12   26 1     
   25   13   16 ar    
   26   13   27 1     
   27   14   16 ar    
   28   14   28 1     
   29   15   17 2     
   30   16   29 1     
@<TRIPOS>SUBSTRUCTURE
      1 RES1           1
@<TRIPOS>SET
DONOR_HYDROGENS      STATIC     ATOMS    <user>   **** ""
2 22 23
ATOM$RED        STATIC     ATOMS    COLORGROUP SYSTEM
2 22 23
@<TRIPOS>COMMENT
> <Gold.Version>
2022.3.0

> <Gold.Id.Protein>
unknown|3ovv_clean|pdb

> <Gold.Protein.RotatedTorsions>
[  604  597  595  592 ] final   68.95 input   59.96 | X-H torsion
[  622  617  616  613 ] final  177.45 input   59.98 | X-H torsion
[ 2635 2624 2623 2622 ] final   25.88 input   60.00 | X-H torsion
[ 3186 3179 3177 3174 ] final -124.40 input   59.97 | X-H torsion
[ 5212 5203 5202 5200 ] final  108.70 input   59.98 | X-H torsion

> <Gold.Protein.ActiveResidues>
 GLY50   THR51   GLY52   SER53   PHE54   GLY55   ARG56   VAL57   LYS72   GLU127 
 PHE129  ASP166  LYS168  GLU170  ASN171  THR183  ASP184  THR201  TYR330 

> <Gold.Protein.RotatedAtoms>
   -5.8157   -1.6804   14.3566 H   0  0  0  0  0  0  0  0  0  0  0  0  # atno 604  bound_to 597 
   -7.5317    2.2960   21.9166 H   0  0  0  0  0  0  0  0  0  0  0  0  # atno 622  bound_to 617 
  -15.4639   -0.5273   19.3552 H   0  0  0  0  0  0  0  0  0  0  0  0  # atno 2635 bound_to 2624
  -14.1083   -1.3577   19.8225 H   0  0  0  0  0  0  0  0  0  0  0  0  # atno 2636 bound_to 2624
  -14.3237   -0.9510   18.2302 H   0  0  0  0  0  0  0  0  0  0  0  0  # atno 2637 bound_to 2624
  -15.9431    0.2559   19.8567 H   0  0  0  0  0  0  0  0  0  0  0  0  # atno 3186 bound_to 3179
   -8.5333   -4.8674   11.6410 H   0  0  0  0  0  0  0  0  0  0  0  0  # atno 5212 bound_to 5203
   -5.7929   -2.8537   13.2293 LP  0  0  0  0  0  0  0  0  0  0  0  0  # atno 5529 bound_to 597 
   -4.7808   -1.5781   13.1050 LP  0  0  0  0  0  0  0  0  0  0  0  0  # atno 5530 bound_to 597 
   -7.4478    0.9244   21.0450 LP  0  0  0  0  0  0  0  0  0  0  0  0  # atno 5533 bound_to 617 
   -7.1366    2.3638   20.3395 LP  0  0  0  0  0  0  0  0  0  0  0  0  # atno 5534 bound_to 617 
  -16.7756   -0.6759   20.8996 LP  0  0  0  0  0  0  0  0  0  0  0  0  # atno 5539 bound_to 3179
  -16.0175    0.6702   21.4288 LP  0  0  0  0  0  0  0  0  0  0  0  0  # atno 5540 bound_to 3179
   -8.8764   -5.7486   10.3168 LP  0  0  0  0  0  0  0  0  0  0  0  0  # atno 5541 bound_to 5203
   -8.8907   -4.1174   10.2418 LP  0  0  0  0  0  0  0  0  0  0  0  0  # atno 5542 bound_to 5203

> <Gold.Score>
     Fitness  S(hb_ext) S(vdw_ext)  S(hb_int)    S(int)      intcor
     44.09       0.00      32.17       0.00      -0.14      -0.76

> <Gold.Goldscore.Fitness>
44.0915

> <Gold.Goldscore.Internal.Vdw>
-0.3708

> <Gold.Goldscore.Internal.Torsion>
-0.5389

> <Gold.Goldscore.External.Vdw>
32.1718

> <Gold.Goldscore.Internal.HBond>
0.0000

> <Gold.Goldscore.External.HBond>
0.0000

> <Gold.Goldscore.Internal.Correction>
-0.7650

> <Gold.Goldscore.Internal.Vdw.Weighted>
-0.3708

> <Gold.Goldscore.Internal.Torsion.Weighted>
-0.5389

> <Gold.Goldscore.External.Vdw.Weighted>
44.2362

> <Gold.Goldscore.Internal.HBond.Weighted>
0.0000

> <Gold.Goldscore.External.HBond.Weighted>
0.0000

> <Gold.Goldscore.Internal.Correction.Weighted>
-0.7650

> <Gold.Rescore>
     Score     S(PLP)   S(hbond)     S(cho)   S(metal)  DE(clash)   DE(tors)     intcor
     49.26     -46.34       1.94       0.00       0.00       0.00       1.45       ----

> <Gold.PLP.Fitness>
49.2589

> <Gold.PLP.PLP>
-46.3422

> <Gold.PLP.part.hbond>
-3.0000

> <Gold.PLP.part.metal>
0.0000

> <Gold.PLP.part.buried>
-1.8741

> <Gold.PLP.part.nonpolar>
-42.9644

> <Gold.PLP.part.repulsive>
0.5838

> <Gold.PLP.ligand.clash>
0.0000

> <Gold.PLP.ligand.torsion>
1.4457

> <Gold.PLP.Chemscore.Hbond>
1.9360

> <Gold.PLP.Chemscore.CHOScore>
0.0000

> <Gold.PLP.Chemscore.Metal>
0.0000

> <Gold.Chemscore.Hbonds>
donor molecule, donor type, donor heavy atom, donor atom, acceptor molecule, acceptor atom, score
      L1  H    10    23       P1  2655  0.08

> <Gold.PLP.Chemscore.Internal.Correction>
   9.000000E+99

