#       Name:                CT1002167954
#       Creating user name   hitesit
#       Creation time:       Sun Apr 16 20:30:35 2023


#       File generated by GOLD software.
#

@<TRIPOS>MOLECULE
CT1002167954|ligand_prepared|mol2|1|dock8
    29    30     1
SMALL
NO_CHARGES


@<TRIPOS>ATOM
      1 C1         134.2797 144.1319 129.6615 C.3            1 RES1               0.0000
      2 C2         133.8511 143.9215 128.1949 C.ar           1 RES1               0.0000
      3 C3         135.2343 142.9898 129.9970 C.2            1 RES1               0.0000
      4 C4         134.9178 145.5152 129.7251 C.2            1 RES1               0.0000
      5 C5         133.1046 144.1012 130.6664 C.3            1 RES1               0.0000
      6 C6         134.7878 143.5754 127.2256 C.ar           1 RES1               0.0000
      7 C7         132.5247 144.0670 127.7973 C.ar           1 RES1               0.0000
      8 N8         136.5623 143.2843 130.0942 N.am           1 RES1               0.0000
      9 O9         134.8326 141.8410 130.1351 O.2            1 RES1               0.0000
     10 N10        136.2548 145.5927 130.0153 N.am           1 RES1               0.0000
     11 O11        134.2786 146.5377 129.5103 O.2            1 RES1               0.0000
     12 C12        133.5425 144.1137 132.1225 C.3            1 RES1               0.0000
     13 C13        134.4118 143.3789 125.9072 C.ar           1 RES1               0.0000
     14 C14        132.1508 143.8703 126.4782 C.ar           1 RES1               0.0000
     15 C15        137.1126 144.5383 130.1724 C.2            1 RES1               0.0000
     16 C16        133.0932 143.5258 125.5327 C.ar           1 RES1               0.0000
     17 O17        138.3137 144.6883 130.3776 O.2            1 RES1               0.0000
     18 H18        132.4610 144.9706 130.4837 H              1 RES1               0.0000
     19 H19        132.5082 143.1985 130.4848 H              1 RES1               0.0000
     20 H20        135.8306 143.4578 127.5011 H              1 RES1               0.0000
     21 H21        131.7664 144.3386 128.5238 H              1 RES1               0.0000
     22 H22        137.2058 142.4994 130.1102 H              1 RES1               0.0000
     23 H23        136.6470 146.5226 130.1243 H              1 RES1               0.0000
     24 H24        132.6798 144.0911 132.7849 H              1 RES1               0.0000
     25 H25        134.1640 143.2491 132.3458 H              1 RES1               0.0000
     26 H26        134.1171 145.0106 132.3447 H              1 RES1               0.0000
     27 H27        135.1575 143.1093 125.1666 H              1 RES1               0.0000
     28 H28        131.1120 143.9876 126.1878 H              1 RES1               0.0000
     29 H29        132.7988 143.3715 124.4998 H              1 RES1               0.0000
@<TRIPOS>BOND
    1    1    2 1     
    2    1    3 1     
    3    1    4 1     
    4    1    5 1     
    5    2    6 ar    
    6    2    7 ar    
    7    3    8 1     
    8    3    9 2     
    9    4   10 1     
   10    4   11 2     
   11    5   12 1     
   12    5   18 1     
   13    5   19 1     
   14    6   13 ar    
   15    6   20 1     
   16    7   14 ar    
   17    7   21 1     
   18    8   15 1     
   19    8   22 1     
   20   10   15 1     
   21   10   23 1     
   22   12   24 1     
   23   12   25 1     
   24   12   26 1     
   25   13   16 ar    
   26   13   27 1     
   27   14   16 ar    
   28   14   28 1     
   29   15   17 2     
   30   16   29 1     
@<TRIPOS>SUBSTRUCTURE
      1 RES1           1
@<TRIPOS>SET
DONOR_HYDROGENS      STATIC     ATOMS    <user>   **** ""
2 22 23
ATOM$RED        STATIC     ATOMS    COLORGROUP SYSTEM
2 22 23
@<TRIPOS>COMMENT
> <Gold.Version>
2022.3.0

> <Gold.Id.Protein>
unknown|7rmi_cavity_clean|pdb

> <Gold.Protein.RotatedTorsions>
[ 7275 7267 7268 7269 ] final  -65.49 input   86.30 | X-H torsion
[ 7259 7254 7253 7250 ] final   52.98 input   59.97 | X-H torsion
[ 3787 3780 3778 3775 ] final   86.31 input   60.01 | X-H torsion
[ 7241 7225 7224 7223 ] final   30.52 input   60.01 | X-H torsion
[ 7244 7226 7227 7228 ] final -155.24 input   59.90 | X-H torsion
[ 7633 7625 7626 7627 ] final -104.63 input   88.29 | X-H torsion
[ 8107 8100 8094 8093 ] final   59.99 input   59.99 | X-H torsion
[ 14346 7229 7228 7227 ] final  -99.70 input    0.00 | X-H torsion
[ 14355 7628 7627 7626 ] final    8.52 input    0.00 | X-H torsion

> <Gold.Protein.ActiveResidues>
 THR47   ARG48   ARG49   LYS280  SER281  LEU284  LEU286  CYS294  ASN295  VAL296 
 GLY306  VAL307  LEU308  VAL320  GLY324  MET325  ALA326  VAL327  TRP339  ASN340 
 ASP48   PRO49   LEU50  

> <Gold.Protein.RotatedAtoms>
  128.6199  152.2279  149.0836 H   0  0  0  0  0  0  0  0  0  0  0  0  # atno 3787 bound_to 3780
  134.6740  164.6276  170.4914 H   0  0  0  0  0  0  0  0  0  0  0  0  # atno 7241 bound_to 7225
  134.0762  165.8649  171.4181 H   0  0  0  0  0  0  0  0  0  0  0  0  # atno 7242 bound_to 7225
  133.6547  164.2977  171.7556 H   0  0  0  0  0  0  0  0  0  0  0  0  # atno 7243 bound_to 7225
  123.7258  134.5196   85.8960 H   0  0  0  0  0  0  0  0  0  0  0  0  # atno 7244 bound_to 7226
  125.7156  161.3277  168.5417 H   0  0  0  0  0  0  0  0  0  0  0  0  # atno 7259 bound_to 7254
  123.8381  157.6559  168.3262 H   0  0  0  0  0  0  0  0  0  0  0  0  # atno 7275 bound_to 7267
  122.5850  123.5162  129.8180 H   0  0  0  0  0  0  0  0  0  0  0  0  # atno 7633 bound_to 7625
  127.5370  161.3050  155.7080 H   0  0  0  0  0  0  0  0  0  0  0  0  # atno 8107 bound_to 8100
  126.5161  162.0818  167.3417 LP  0  0  0  0  0  0  0  0  0  0  0  0  # atno 14309 bound_to 7254
  125.0001  162.5456  167.7329 LP  0  0  0  0  0  0  0  0  0  0  0  0  # atno 14310 bound_to 7254
  129.4118  152.4244  150.4915 LP  0  0  0  0  0  0  0  0  0  0  0  0  # atno 14331 bound_to 3780
  129.9200  151.3070  149.4145 LP  0  0  0  0  0  0  0  0  0  0  0  0  # atno 14332 bound_to 3780
  124.1039  133.9354   87.5033 LP  0  0  0  0  0  0  0  0  0  0  0  0  # atno 14345 bound_to 7226
  123.2331  134.0063   89.9459 LP  0  0  0  0  0  0  0  0  0  0  0  0  # atno 14346 bound_to 7229
  123.1960  135.6798   89.5006 LP  0  0  0  0  0  0  0  0  0  0  0  0  # atno 14347 bound_to 7229
  123.4127  125.0537  129.8080 LP  0  0  0  0  0  0  0  0  0  0  0  0  # atno 14354 bound_to 7625
  124.0317  122.3476  133.2913 LP  0  0  0  0  0  0  0  0  0  0  0  0  # atno 14355 bound_to 7628
  123.6659  123.6827  134.3323 LP  0  0  0  0  0  0  0  0  0  0  0  0  # atno 14356 bound_to 7628
  126.1565  160.7598  155.1919 LP  0  0  0  0  0  0  0  0  0  0  0  0  # atno 14361 bound_to 8100

> <Gold.Score>
     Fitness  S(hb_ext) S(vdw_ext)  S(hb_int)    S(int)      intcor
     28.33       0.00      20.70       0.00      -0.13      -0.76

> <Gold.Goldscore.Fitness>
28.3276

> <Gold.Goldscore.Internal.Vdw>
-0.4197

> <Gold.Goldscore.Internal.Torsion>
-0.4734

> <Gold.Goldscore.External.Vdw>
20.6998

> <Gold.Goldscore.Internal.HBond>
0.0000

> <Gold.Goldscore.External.HBond>
0.0000

> <Gold.Goldscore.Internal.Correction>
-0.7585

> <Gold.Goldscore.Internal.Vdw.Weighted>
-0.4197

> <Gold.Goldscore.Internal.Torsion.Weighted>
-0.4734

> <Gold.Goldscore.External.Vdw.Weighted>
28.4622

> <Gold.Goldscore.Internal.HBond.Weighted>
0.0000

> <Gold.Goldscore.External.HBond.Weighted>
0.0000

> <Gold.Goldscore.Internal.Correction.Weighted>
-0.7585

> <Gold.Rescore>
     Score     S(PLP)   S(hbond)     S(cho)   S(metal)  DE(clash)   DE(tors)     intcor
     32.45     -32.88       0.00       0.00       0.00       0.00       0.21       ----

> <Gold.PLP.Fitness>
32.4510

> <Gold.PLP.PLP>
-32.8774

> <Gold.PLP.part.hbond>
0.0000

> <Gold.PLP.part.metal>
0.0000

> <Gold.PLP.part.buried>
-3.6244

> <Gold.PLP.part.nonpolar>
-30.9401

> <Gold.PLP.part.repulsive>
0.6142

> <Gold.PLP.ligand.clash>
0.0000

> <Gold.PLP.ligand.torsion>
0.2132

> <Gold.PLP.Chemscore.Hbond>
0.0000

> <Gold.PLP.Chemscore.CHOScore>
0.0000

> <Gold.PLP.Chemscore.Metal>
0.0000

> <Gold.PLP.Chemscore.Internal.Correction>
   9.000000E+99

