#       Name:                CT1002167954
#       Creating user name   hitesit
#       Creation time:       Sun Apr 16 20:30:51 2023


#       File generated by GOLD software.
#

@<TRIPOS>MOLECULE
CT1002167954|ligand_prepared|mol2|1|dock10
    29    30     1
SMALL
NO_CHARGES


@<TRIPOS>ATOM
      1 C1         142.8263 128.9452 150.6924 C.3            1 RES1               0.0000
      2 C2         141.8887 127.7205 150.6986 C.ar           1 RES1               0.0000
      3 C3         141.9240 130.1754 150.6654 C.2            1 RES1               0.0000
      4 C4         143.6853 128.8311 151.9469 C.2            1 RES1               0.0000
      5 C5         143.7714 129.0023 149.4697 C.3            1 RES1               0.0000
      6 C6         141.4287 127.1863 151.8985 C.ar           1 RES1               0.0000
      7 C7         141.4738 127.1168 149.5146 C.ar           1 RES1               0.0000
      8 N8         141.8097 130.9005 151.8147 N.am           1 RES1               0.0000
      9 O9         141.2914 130.4819 149.6623 O.2            1 RES1               0.0000
     10 N10        143.5303 129.7834 152.9200 N.am           1 RES1               0.0000
     11 O11        144.4831 127.9159 152.1087 O.2            1 RES1               0.0000
     12 C12        144.8166 130.1035 149.5536 C.3            1 RES1               0.0000
     13 C13        140.5822 126.0902 151.9142 C.ar           1 RES1               0.0000
     14 C14        140.6274 126.0206 149.5325 C.ar           1 RES1               0.0000
     15 C15        142.6096 130.7955 152.9242 C.2            1 RES1               0.0000
     16 C16        140.1807 125.5069 150.7313 C.ar           1 RES1               0.0000
     17 O17        142.4943 131.5803 153.8612 O.2            1 RES1               0.0000
     18 H18        144.2829 128.0366 149.3734 H              1 RES1               0.0000
     19 H19        143.1698 129.1547 148.5651 H              1 RES1               0.0000
     20 H20        141.7360 127.6305 152.8395 H              1 RES1               0.0000
     21 H21        141.8135 127.5033 148.5596 H              1 RES1               0.0000
     22 H22        141.0602 131.5839 151.8529 H              1 RES1               0.0000
     23 H23        144.1597 129.7332 153.7147 H              1 RES1               0.0000
     24 H24        145.4530 130.0993 148.6712 H              1 RES1               0.0000
     25 H25        144.3428 131.0804 149.6250 H              1 RES1               0.0000
     26 H26        145.4493 129.9689 150.4284 H              1 RES1               0.0000
     27 H27        140.2345 125.6889 152.8604 H              1 RES1               0.0000
     28 H28        140.3144 125.5643 148.5991 H              1 RES1               0.0000
     29 H29        139.5172 124.6485 150.7439 H              1 RES1               0.0000
@<TRIPOS>BOND
    1    1    2 1     
    2    1    3 1     
    3    1    4 1     
    4    1    5 1     
    5    2    6 ar    
    6    2    7 ar    
    7    3    8 1     
    8    3    9 2     
    9    4   10 1     
   10    4   11 2     
   11    5   12 1     
   12    5   18 1     
   13    5   19 1     
   14    6   13 ar    
   15    6   20 1     
   16    7   14 ar    
   17    7   21 1     
   18    8   15 1     
   19    8   22 1     
   20   10   15 1     
   21   10   23 1     
   22   12   24 1     
   23   12   25 1     
   24   12   26 1     
   25   13   16 ar    
   26   13   27 1     
   27   14   16 ar    
   28   14   28 1     
   29   15   17 2     
   30   16   29 1     
@<TRIPOS>SUBSTRUCTURE
      1 RES1           1
@<TRIPOS>SET
DONOR_HYDROGENS      STATIC     ATOMS    <user>   **** ""
2 22 23
ATOM$RED        STATIC     ATOMS    COLORGROUP SYSTEM
2 22 23
@<TRIPOS>COMMENT
> <Gold.Version>
2022.3.0

> <Gold.Id.Protein>
unknown|7rmh_cavity_clean|pdb

> <Gold.Protein.RotatedTorsions>
[ 4334 4326 4327 4328 ] final  -76.25 input   45.76 | X-H torsion
[ 1444 1430 1431 1432 ] final    7.38 input   54.63 | X-H torsion
[ 4376 4367 4366 4364 ] final -116.10 input   59.97 | X-H torsion
[  415  400  401  402 ] final   38.65 input   82.00 | X-H torsion
[  331  328  327  326 ] final  -38.34 input   59.97 | X-H torsion
[  388  379  378  376 ] final  -35.62 input   59.98 | X-H torsion
[  529  513  514  515 ] final  -89.83 input  105.58 | X-H torsion
[  474  463  461  458 ] final    7.42 input   59.98 | X-H torsion
[  476  464  465  466 ] final -113.98 input  115.28 | X-H torsion
[  482  470  468  465 ] final  108.93 input   59.99 | X-H torsion
[ 4698 4679 4680 4681 ] final  174.36 input   46.48 | X-H torsion
[ 3627 3618 3617 3615 ] final   36.17 input   60.02 | X-H torsion
[ 1139 1124 1125 1126 ] final  -50.79 input   64.50 | X-H torsion
[ 3038 3033 3034 3035 ] final  -32.71 input   60.01 | X-H torsion
[ 1489 1482 1480 1477 ] final  -46.72 input   59.97 | X-H torsion
[ 3081 3072 3071 3069 ] final   98.69 input   59.99 | X-H torsion
[ 3113 3104 3103 3101 ] final  -45.82 input   60.00 | X-H torsion
[ 5109 5102 5100 5097 ] final  -22.26 input   60.01 | X-H torsion
[ 2099 2094 2093 2090 ] final -116.41 input   60.02 | X-H torsion
[ 4286 4281 4282 4283 ] final  -64.63 input  108.09 | X-H torsion
[ 2038 2027 2028 2029 ] final   87.92 input  103.58 | X-H torsion
[  246  231  232  233 ] final  173.96 input  105.30 | X-H torsion
[  279  266  267  268 ] final   45.65 input  114.84 | X-H torsion
[ 2069 2062 2060 2057 ] final  -80.33 input   60.00 | X-H torsion
[ 14711 4329 4328 4327 ] final   54.46 input    0.00 | X-H torsion
[ 14722 1433 1432 1431 ] final   88.03 input   -0.00 | X-H torsion
[ 14743  403  402  401 ] final  -39.54 input   -0.00 | X-H torsion
[ 14770  516  515  514 ] final   -7.65 input    0.00 | X-H torsion
[ 14779  467  466  465 ] final  141.14 input    0.00 | X-H torsion
[ 14790 4682 4681 4680 ] final  170.72 input   -0.00 | X-H torsion
[ 14818 1127 1126 1125 ] final  -94.74 input   -0.00 | X-H torsion
[ 14891 4284 4283 4282 ] final   97.56 input    0.00 | X-H torsion
[ 14902 2030 2029 2028 ] final  142.31 input    0.00 | X-H torsion
[ 14907  234  233  232 ] final  115.12 input   -0.00 | X-H torsion
[ 14920  269  268  267 ] final  -41.00 input    0.00 | X-H torsion

> <Gold.Protein.ActiveResidues>
 GLU27   LEU30   GLN31   ASP33   LYS34   GLN35   VAL36   TYR37   ARG38   THR40  
 HIS41   ARG42   ILE207  GLU209  HIS220  PHE222  CYS237  PHE238  ASN239  ASP240 
 VAL241  THR242  ARG280  TRP281  ARG283  THR284  ILE285  SER286  ARG356  HIS357 
 TYR358  TYR360  ASP381  ILE382  ILE383  GLN384  ARG385  MET386  HIS387  LEU388 
 ARG389  GLN390  TYR391  GLU392  LEU393  LEU394  ALA56   LYS57   ILE58   TYR59  
 ALA60   MET61   LEU79   ILE80   ILE81   TRP82   ILE93   VAL100  MET101  THR102 
 CYS103  CYS121  ASP312  ASN313  TRP332  ASP333  SER334  PHE335 

> <Gold.Protein.RotatedAtoms>
  122.8760  155.6914  187.1041 H   0  0  0  0  0  0  0  0  0  0  0  0  # atno 246  bound_to 231 
  110.7239  141.3516  101.9219 H   0  0  0  0  0  0  0  0  0  0  0  0  # atno 279  bound_to 266 
  149.2281  143.6379  145.6944 H   0  0  0  0  0  0  0  0  0  0  0  0  # atno 331  bound_to 328 
  150.0754  144.1067  147.0390 H   0  0  0  0  0  0  0  0  0  0  0  0  # atno 332  bound_to 328 
  149.0350  145.1660  146.3043 H   0  0  0  0  0  0  0  0  0  0  0  0  # atno 333  bound_to 328 
  150.9892  137.0541  154.2929 H   0  0  0  0  0  0  0  0  0  0  0  0  # atno 388  bound_to 379 
  137.4788  115.7802  183.3334 H   0  0  0  0  0  0  0  0  0  0  0  0  # atno 415  bound_to 400 
  156.4129  130.7070  150.3750 H   0  0  0  0  0  0  0  0  0  0  0  0  # atno 474  bound_to 463 
  118.1455  143.1332  113.6211 H   0  0  0  0  0  0  0  0  0  0  0  0  # atno 476  bound_to 464 
  114.7653  144.1510  113.2920 H   0  0  0  0  0  0  0  0  0  0  0  0  # atno 482  bound_to 470 
  121.8344  163.1844  166.5619 H   0  0  0  0  0  0  0  0  0  0  0  0  # atno 529  bound_to 513 
  138.1534  144.8315  190.0132 H   0  0  0  0  0  0  0  0  0  0  0  0  # atno 1139 bound_to 1124
  138.7961  159.7397  184.8181 H   0  0  0  0  0  0  0  0  0  0  0  0  # atno 1444 bound_to 1430
  148.1660  129.6786  150.8352 H   0  0  0  0  0  0  0  0  0  0  0  0  # atno 1489 bound_to 1482
  132.5948  163.8725  174.8219 H   0  0  0  0  0  0  0  0  0  0  0  0  # atno 2038 bound_to 2027
  139.1347  130.1338  153.1687 H   0  0  0  0  0  0  0  0  0  0  0  0  # atno 2069 bound_to 2062
  142.6289  124.2364  152.0468 H   0  0  0  0  0  0  0  0  0  0  0  0  # atno 2099 bound_to 2094
  134.4540  124.2081  150.2803 H   0  0  0  0  0  0  0  0  0  0  0  0  # atno 3038 bound_to 3033
  133.4369  124.2270  151.5895 H   0  0  0  0  0  0  0  0  0  0  0  0  # atno 3039 bound_to 3033
  134.8460  119.6322  146.6568 H   0  0  0  0  0  0  0  0  0  0  0  0  # atno 3081 bound_to 3072
  141.1322  120.5829  149.2287 H   0  0  0  0  0  0  0  0  0  0  0  0  # atno 3113 bound_to 3104
  144.3929  133.5725  137.4686 H   0  0  0  0  0  0  0  0  0  0  0  0  # atno 3627 bound_to 3618
  120.3645  119.4283  173.3684 H   0  0  0  0  0  0  0  0  0  0  0  0  # atno 4286 bound_to 4281
  125.0206  117.0522  171.8936 H   0  0  0  0  0  0  0  0  0  0  0  0  # atno 4334 bound_to 4326
  144.4466  140.2316  167.1265 H   0  0  0  0  0  0  0  0  0  0  0  0  # atno 4376 bound_to 4367
  123.1203  123.5070  185.6413 H   0  0  0  0  0  0  0  0  0  0  0  0  # atno 4698 bound_to 4679
  151.3164  148.2923  170.2570 H   0  0  0  0  0  0  0  0  0  0  0  0  # atno 5109 bound_to 5102
  123.5954  116.0543  172.1066 LP  0  0  0  0  0  0  0  0  0  0  0  0  # atno 14710 bound_to 4326
  125.4852  114.1223  171.6009 LP  0  0  0  0  0  0  0  0  0  0  0  0  # atno 14711 bound_to 4329
  126.0702  112.9794  172.7635 LP  0  0  0  0  0  0  0  0  0  0  0  0  # atno 14712 bound_to 4329
  139.8413  160.6206  185.9104 LP  0  0  0  0  0  0  0  0  0  0  0  0  # atno 14721 bound_to 1430
  135.8066  158.1792  187.5163 LP  0  0  0  0  0  0  0  0  0  0  0  0  # atno 14722 bound_to 1433
  136.9744  156.9365  187.8199 LP  0  0  0  0  0  0  0  0  0  0  0  0  # atno 14723 bound_to 1433
  145.8608  139.4282  167.1797 LP  0  0  0  0  0  0  0  0  0  0  0  0  # atno 14738 bound_to 4367
  144.8309  139.1924  165.9346 LP  0  0  0  0  0  0  0  0  0  0  0  0  # atno 14739 bound_to 4367
  136.0236  116.1920  184.2122 LP  0  0  0  0  0  0  0  0  0  0  0  0  # atno 14742 bound_to 400 
  139.4461  115.5585  183.6407 LP  0  0  0  0  0  0  0  0  0  0  0  0  # atno 14743 bound_to 403 
  140.3362  116.4947  184.7945 LP  0  0  0  0  0  0  0  0  0  0  0  0  # atno 14744 bound_to 403 
  149.8426  137.6849  153.3252 LP  0  0  0  0  0  0  0  0  0  0  0  0  # atno 14765 bound_to 379 
  150.6108  138.6327  154.4105 LP  0  0  0  0  0  0  0  0  0  0  0  0  # atno 14766 bound_to 379 
  121.1547  164.1875  165.3028 LP  0  0  0  0  0  0  0  0  0  0  0  0  # atno 14769 bound_to 513 
  123.1552  164.8571  163.9659 LP  0  0  0  0  0  0  0  0  0  0  0  0  # atno 14770 bound_to 516 
  124.8534  164.5267  163.8824 LP  0  0  0  0  0  0  0  0  0  0  0  0  # atno 14771 bound_to 516 
  156.6203  131.8485  151.5161 LP  0  0  0  0  0  0  0  0  0  0  0  0  # atno 14776 bound_to 463 
  157.8995  131.3051  150.6587 LP  0  0  0  0  0  0  0  0  0  0  0  0  # atno 14777 bound_to 463 
  116.7603  142.0846  113.8214 LP  0  0  0  0  0  0  0  0  0  0  0  0  # atno 14778 bound_to 464 
  117.0156  143.0294  118.5051 LP  0  0  0  0  0  0  0  0  0  0  0  0  # atno 14779 bound_to 467 
  118.1916  143.9315  117.6088 LP  0  0  0  0  0  0  0  0  0  0  0  0  # atno 14780 bound_to 467 
  116.2466  144.8134  113.4156 LP  0  0  0  0  0  0  0  0  0  0  0  0  # atno 14781 bound_to 470 
  114.9343  145.6399  113.9268 LP  0  0  0  0  0  0  0  0  0  0  0  0  # atno 14782 bound_to 470 
  122.9510  122.3978  186.9844 LP  0  0  0  0  0  0  0  0  0  0  0  0  # atno 14789 bound_to 4679
  124.6070  119.4417  187.6139 LP  0  0  0  0  0  0  0  0  0  0  0  0  # atno 14790 bound_to 4682
  125.2060  121.0030  187.1628 LP  0  0  0  0  0  0  0  0  0  0  0  0  # atno 14791 bound_to 4682
  143.8694  135.0941  137.2294 LP  0  0  0  0  0  0  0  0  0  0  0  0  # atno 14805 bound_to 3618
  144.2189  134.1374  135.9529 LP  0  0  0  0  0  0  0  0  0  0  0  0  # atno 14806 bound_to 3618
  138.5101  146.4204  189.3659 LP  0  0  0  0  0  0  0  0  0  0  0  0  # atno 14817 bound_to 1124
  136.7164  144.3584  186.4313 LP  0  0  0  0  0  0  0  0  0  0  0  0  # atno 14818 bound_to 1127
  137.6416  143.4958  187.6145 LP  0  0  0  0  0  0  0  0  0  0  0  0  # atno 14819 bound_to 1127
  133.1251  125.1788  150.2844 LP  0  0  0  0  0  0  0  0  0  0  0  0  # atno 14820 bound_to 3033
  149.5316  128.9326  150.3575 LP  0  0  0  0  0  0  0  0  0  0  0  0  # atno 14846 bound_to 1482
  149.4888  129.7293  151.7823 LP  0  0  0  0  0  0  0  0  0  0  0  0  # atno 14847 bound_to 1482
  133.7924  119.9605  147.8533 LP  0  0  0  0  0  0  0  0  0  0  0  0  # atno 14850 bound_to 3072
  134.1892  118.4135  147.5127 LP  0  0  0  0  0  0  0  0  0  0  0  0  # atno 14851 bound_to 3072
  141.4025  119.6192  147.9462 LP  0  0  0  0  0  0  0  0  0  0  0  0  # atno 14856 bound_to 3104
  142.5060  120.7449  148.3725 LP  0  0  0  0  0  0  0  0  0  0  0  0  # atno 14857 bound_to 3104
  151.7235  147.6747  171.7064 LP  0  0  0  0  0  0  0  0  0  0  0  0  # atno 14868 bound_to 5102
  150.1522  147.7899  171.2768 LP  0  0  0  0  0  0  0  0  0  0  0  0  # atno 14869 bound_to 5102
  143.5280  122.9247  152.3921 LP  0  0  0  0  0  0  0  0  0  0  0  0  # atno 14886 bound_to 2094
  143.5564  124.2217  153.3838 LP  0  0  0  0  0  0  0  0  0  0  0  0  # atno 14887 bound_to 2094
  120.1588  120.8217  172.3359 LP  0  0  0  0  0  0  0  0  0  0  0  0  # atno 14890 bound_to 4281
  121.0835  116.7510  169.6105 LP  0  0  0  0  0  0  0  0  0  0  0  0  # atno 14891 bound_to 4284
  120.9267  116.2153  171.2502 LP  0  0  0  0  0  0  0  0  0  0  0  0  # atno 14892 bound_to 4284
  132.3691  163.0283  176.3356 LP  0  0  0  0  0  0  0  0  0  0  0  0  # atno 14901 bound_to 2027
  128.8023  160.8903  173.7993 LP  0  0  0  0  0  0  0  0  0  0  0  0  # atno 14902 bound_to 2030
  128.9222  161.2104  175.4973 LP  0  0  0  0  0  0  0  0  0  0  0  0  # atno 14903 bound_to 2030
  121.3403  155.7070  186.2724 LP  0  0  0  0  0  0  0  0  0  0  0  0  # atno 14906 bound_to 231 
  121.7473  159.0316  183.2478 LP  0  0  0  0  0  0  0  0  0  0  0  0  # atno 14907 bound_to 234 
  121.1542  159.4168  184.8289 LP  0  0  0  0  0  0  0  0  0  0  0  0  # atno 14908 bound_to 234 
  110.1456  139.7388  102.2611 LP  0  0  0  0  0  0  0  0  0  0  0  0  # atno 14919 bound_to 266 
  113.4546  139.8140  104.8804 LP  0  0  0  0  0  0  0  0  0  0  0  0  # atno 14920 bound_to 269 
  114.5795  141.0715  104.4884 LP  0  0  0  0  0  0  0  0  0  0  0  0  # atno 14921 bound_to 269 
  137.7061  130.7809  152.7356 LP  0  0  0  0  0  0  0  0  0  0  0  0  # atno 14924 bound_to 2062
  137.8801  129.1593  152.8173 LP  0  0  0  0  0  0  0  0  0  0  0  0  # atno 14925 bound_to 2062

> <Gold.Score>
     Fitness  S(hb_ext) S(vdw_ext)  S(hb_int)    S(int)      intcor
     32.16       0.75      23.26       0.00      -0.58      -0.76

> <Gold.Goldscore.Fitness>
32.1594

> <Gold.Goldscore.Internal.Vdw>
-0.8766

> <Gold.Goldscore.Internal.Torsion>
-0.4572

> <Gold.Goldscore.External.Vdw>
23.2611

> <Gold.Goldscore.Internal.HBond>
0.0000

> <Gold.Goldscore.External.HBond>
0.7506

> <Gold.Goldscore.Internal.Correction>
-0.7585

> <Gold.Goldscore.Hbonds>
donor molecule, donor type, donor heavy atom, donor atom, acceptor molecule, acceptor atom, score
      L1  H    10    23       P1  1463  0.38

> <Gold.Goldscore.Internal.Vdw.Weighted>
-0.8766

> <Gold.Goldscore.Internal.Torsion.Weighted>
-0.4572

> <Gold.Goldscore.External.Vdw.Weighted>
31.9840

> <Gold.Goldscore.Internal.HBond.Weighted>
0.0000

> <Gold.Goldscore.External.HBond.Weighted>
0.7506

> <Gold.Goldscore.Internal.Correction.Weighted>
-0.7585

> <Gold.Rescore>
     Score     S(PLP)   S(hbond)     S(cho)   S(metal)  DE(clash)   DE(tors)     intcor
      9.73      -9.08       1.00       0.00       0.00       0.00       1.17       ----

> <Gold.PLP.Fitness>
9.7315

> <Gold.PLP.PLP>
-9.0754

> <Gold.PLP.part.hbond>
-1.0000

> <Gold.PLP.part.metal>
0.0000

> <Gold.PLP.part.buried>
10.7476

> <Gold.PLP.part.nonpolar>
-25.3856

> <Gold.PLP.part.repulsive>
8.0099

> <Gold.PLP.ligand.clash>
0.0000

> <Gold.PLP.ligand.torsion>
1.1719

> <Gold.PLP.Chemscore.Hbond>
1.0000

> <Gold.PLP.Chemscore.CHOScore>
0.0000

> <Gold.PLP.Chemscore.Metal>
0.0000

> <Gold.Chemscore.Hbonds>
donor molecule, donor type, donor heavy atom, donor atom, acceptor molecule, acceptor atom, score
      L1  H    10    23       P1  1463  1.00

> <Gold.PLP.Chemscore.Internal.Correction>
   9.000000E+99

