#       Name:                CT1002167954
#       Creating user name   hitesit
#       Creation time:       Sun Apr 16 20:29:44 2023


#       File generated by GOLD software.
#

@<TRIPOS>MOLECULE
CT1002167954|ligand_prepared|mol2|1|dock5
    29    30     1
SMALL
NO_CHARGES


@<TRIPOS>ATOM
      1 C1         142.9837 141.7883 169.0551 C.3            1 RES1               0.0000
      2 C2         144.3699 141.5093 169.6709 C.ar           1 RES1               0.0000
      3 C3         143.2315 142.1788 167.6010 C.2            1 RES1               0.0000
      4 C4         142.1752 140.5070 169.2261 C.2            1 RES1               0.0000
      5 C5         142.2120 142.9360 169.7472 C.3            1 RES1               0.0000
      6 C6         144.8923 140.2195 169.6854 C.ar           1 RES1               0.0000
      7 C7         145.1379 142.5301 170.2248 C.ar           1 RES1               0.0000
      8 N8         142.9168 141.2649 166.6389 N.am           1 RES1               0.0000
      9 O9         143.7322 143.2568 167.3053 O.2            1 RES1               0.0000
     10 N10        141.8076 139.8241 168.0963 N.am           1 RES1               0.0000
     11 O11        141.8675 140.0736 170.3296 O.2            1 RES1               0.0000
     12 C12        140.7668 143.0647 169.2925 C.3            1 RES1               0.0000
     13 C13        146.1385 139.9599 170.2311 C.ar           1 RES1               0.0000
     14 C14        146.3838 142.2683 170.7703 C.ar           1 RES1               0.0000
     15 C15        142.1680 140.1286 166.8119 C.2            1 RES1               0.0000
     16 C16        146.8853 140.9841 170.7735 C.ar           1 RES1               0.0000
     17 O17        141.8436 139.4350 165.8523 O.2            1 RES1               0.0000
     18 H18        142.2275 142.7684 170.8313 H              1 RES1               0.0000
     19 H19        142.7308 143.8815 169.5467 H              1 RES1               0.0000
     20 H20        144.3181 139.4004 169.2653 H              1 RES1               0.0000
     21 H21        144.7631 143.5480 170.2343 H              1 RES1               0.0000
     22 H22        143.2709 141.4427 165.7045 H              1 RES1               0.0000
     23 H23        141.2098 139.0139 168.2246 H              1 RES1               0.0000
     24 H24        140.2715 143.8844 169.8087 H              1 RES1               0.0000
     25 H25        140.7146 143.2571 168.2228 H              1 RES1               0.0000
     26 H26        140.2143 142.1506 169.4998 H              1 RES1               0.0000
     27 H27        146.5281 138.9473 170.2324 H              1 RES1               0.0000
     28 H28        146.9678 143.0773 171.1967 H              1 RES1               0.0000
     29 H29        147.8617 140.7805 171.2007 H              1 RES1               0.0000
@<TRIPOS>BOND
    1    1    2 1     
    2    1    3 1     
    3    1    4 1     
    4    1    5 1     
    5    2    6 ar    
    6    2    7 ar    
    7    3    8 1     
    8    3    9 2     
    9    4   10 1     
   10    4   11 2     
   11    5   12 1     
   12    5   18 1     
   13    5   19 1     
   14    6   13 ar    
   15    6   20 1     
   16    7   14 ar    
   17    7   21 1     
   18    8   15 1     
   19    8   22 1     
   20   10   15 1     
   21   10   23 1     
   22   12   24 1     
   23   12   25 1     
   24   12   26 1     
   25   13   16 ar    
   26   13   27 1     
   27   14   16 ar    
   28   14   28 1     
   29   15   17 2     
   30   16   29 1     
@<TRIPOS>SUBSTRUCTURE
      1 RES1           1
@<TRIPOS>SET
DONOR_HYDROGENS      STATIC     ATOMS    <user>   **** ""
2 22 23
ATOM$RED        STATIC     ATOMS    COLORGROUP SYSTEM
2 22 23
@<TRIPOS>COMMENT
> <Gold.Version>
2022.3.0

> <Gold.Id.Protein>
unknown|7rmh_cavity_clean|pdb

> <Gold.Protein.RotatedTorsions>
[ 4334 4326 4327 4328 ] final  -50.27 input   45.76 | X-H torsion
[ 1444 1430 1431 1432 ] final  177.50 input   54.63 | X-H torsion
[ 4376 4367 4366 4364 ] final  143.23 input   59.97 | X-H torsion
[  415  400  401  402 ] final  102.21 input   82.00 | X-H torsion
[  331  328  327  326 ] final   -4.59 input   59.97 | X-H torsion
[  388  379  378  376 ] final  163.24 input   59.98 | X-H torsion
[  529  513  514  515 ] final   70.62 input  105.58 | X-H torsion
[  474  463  461  458 ] final -163.89 input   59.98 | X-H torsion
[  476  464  465  466 ] final -161.33 input  115.28 | X-H torsion
[  482  470  468  465 ] final  159.03 input   59.99 | X-H torsion
[ 4698 4679 4680 4681 ] final   35.62 input   46.48 | X-H torsion
[ 3627 3618 3617 3615 ] final  -36.88 input   60.02 | X-H torsion
[ 1139 1124 1125 1126 ] final  -43.60 input   64.50 | X-H torsion
[ 3038 3033 3034 3035 ] final  -89.46 input   60.01 | X-H torsion
[ 1489 1482 1480 1477 ] final  -66.79 input   59.97 | X-H torsion
[ 3081 3072 3071 3069 ] final  138.38 input   59.99 | X-H torsion
[ 3113 3104 3103 3101 ] final   43.19 input   60.00 | X-H torsion
[ 5109 5102 5100 5097 ] final -120.12 input   60.01 | X-H torsion
[ 2099 2094 2093 2090 ] final  139.19 input   60.02 | X-H torsion
[ 4286 4281 4282 4283 ] final -179.30 input  108.09 | X-H torsion
[ 2038 2027 2028 2029 ] final    0.90 input  103.58 | X-H torsion
[  246  231  232  233 ] final  -17.79 input  105.30 | X-H torsion
[  279  266  267  268 ] final  154.10 input  114.84 | X-H torsion
[ 2069 2062 2060 2057 ] final   -8.19 input   60.00 | X-H torsion
[ 14711 4329 4328 4327 ] final  -20.55 input    0.00 | X-H torsion
[ 14722 1433 1432 1431 ] final -101.91 input   -0.00 | X-H torsion
[ 14743  403  402  401 ] final   92.51 input   -0.00 | X-H torsion
[ 14770  516  515  514 ] final  120.08 input    0.00 | X-H torsion
[ 14779  467  466  465 ] final  -53.37 input    0.00 | X-H torsion
[ 14790 4682 4681 4680 ] final  159.72 input   -0.00 | X-H torsion
[ 14818 1127 1126 1125 ] final  -36.48 input   -0.00 | X-H torsion
[ 14891 4284 4283 4282 ] final   77.67 input    0.00 | X-H torsion
[ 14902 2030 2029 2028 ] final  -91.08 input    0.00 | X-H torsion
[ 14907  234  233  232 ] final -170.14 input   -0.00 | X-H torsion
[ 14920  269  268  267 ] final  -15.43 input    0.00 | X-H torsion

> <Gold.Protein.ActiveResidues>
 GLU27   LEU30   GLN31   ASP33   LYS34   GLN35   VAL36   TYR37   ARG38   THR40  
 HIS41   ARG42   ILE207  GLU209  HIS220  PHE222  CYS237  PHE238  ASN239  ASP240 
 VAL241  THR242  ARG280  TRP281  ARG283  THR284  ILE285  SER286  ARG356  HIS357 
 TYR358  TYR360  ASP381  ILE382  ILE383  GLN384  ARG385  MET386  HIS387  LEU388 
 ARG389  GLN390  TYR391  GLU392  LEU393  LEU394  ALA56   LYS57   ILE58   TYR59  
 ALA60   MET61   LEU79   ILE80   ILE81   TRP82   ILE93   VAL100  MET101  THR102 
 CYS103  CYS121  ASP312  ASN313  TRP332  ASP333  SER334  PHE335 

> <Gold.Protein.RotatedAtoms>
  121.2756  155.8200  186.3960 H   0  0  0  0  0  0  0  0  0  0  0  0  # atno 246  bound_to 231 
  110.4536  140.0697  101.3454 H   0  0  0  0  0  0  0  0  0  0  0  0  # atno 279  bound_to 266 
  149.5986  143.4100  146.0399 H   0  0  0  0  0  0  0  0  0  0  0  0  # atno 331  bound_to 328 
  149.9073  144.6301  147.1177 H   0  0  0  0  0  0  0  0  0  0  0  0  # atno 332  bound_to 328 
  148.8327  144.8703  145.8800 H   0  0  0  0  0  0  0  0  0  0  0  0  # atno 333  bound_to 328 
  149.8615  138.3090  153.5395 H   0  0  0  0  0  0  0  0  0  0  0  0  # atno 388  bound_to 379 
  136.7354  115.2142  183.3470 H   0  0  0  0  0  0  0  0  0  0  0  0  # atno 415  bound_to 400 
  157.4218  131.9071  151.3890 H   0  0  0  0  0  0  0  0  0  0  0  0  # atno 474  bound_to 463 
  117.5630  143.3614  113.2820 H   0  0  0  0  0  0  0  0  0  0  0  0  # atno 476  bound_to 464 
  114.3849  144.7708  113.6077 H   0  0  0  0  0  0  0  0  0  0  0  0  # atno 482  bound_to 470 
  121.4126  164.3341  165.3236 H   0  0  0  0  0  0  0  0  0  0  0  0  # atno 529  bound_to 513 
  138.1844  144.7916  189.9131 H   0  0  0  0  0  0  0  0  0  0  0  0  # atno 1139 bound_to 1124
  139.7413  160.7348  185.9352 H   0  0  0  0  0  0  0  0  0  0  0  0  # atno 1444 bound_to 1430
  148.2287  129.5077  150.5643 H   0  0  0  0  0  0  0  0  0  0  0  0  # atno 1489 bound_to 1482
  132.6562  162.7002  175.1452 H   0  0  0  0  0  0  0  0  0  0  0  0  # atno 2038 bound_to 2027
  138.6108  129.1738  153.0332 H   0  0  0  0  0  0  0  0  0  0  0  0  # atno 2069 bound_to 2062
  143.3700  122.9644  152.1958 H   0  0  0  0  0  0  0  0  0  0  0  0  # atno 2099 bound_to 2094
  133.9431  124.8208  149.8422 H   0  0  0  0  0  0  0  0  0  0  0  0  # atno 3038 bound_to 3033
  134.1881  123.8970  151.1970 H   0  0  0  0  0  0  0  0  0  0  0  0  # atno 3039 bound_to 3033
  134.8604  118.9972  146.6896 H   0  0  0  0  0  0  0  0  0  0  0  0  # atno 3081 bound_to 3072
  142.3022  120.9649  148.7750 H   0  0  0  0  0  0  0  0  0  0  0  0  # atno 3113 bound_to 3104
  144.0359  134.5879  137.7549 H   0  0  0  0  0  0  0  0  0  0  0  0  # atno 3627 bound_to 3618
  119.4328  120.4308  172.7926 H   0  0  0  0  0  0  0  0  0  0  0  0  # atno 4286 bound_to 4281
  125.1198  116.7115  171.7045 H   0  0  0  0  0  0  0  0  0  0  0  0  # atno 4334 bound_to 4326
  145.7363  139.6393  167.3786 H   0  0  0  0  0  0  0  0  0  0  0  0  # atno 4376 bound_to 4367
  123.5262  122.6224  186.9916 H   0  0  0  0  0  0  0  0  0  0  0  0  # atno 4698 bound_to 4679
  151.9225  147.8015  171.4336 H   0  0  0  0  0  0  0  0  0  0  0  0  # atno 5109 bound_to 5102
  123.5003  116.3811  172.2880 LP  0  0  0  0  0  0  0  0  0  0  0  0  # atno 14710 bound_to 4326
  124.9354  113.6418  172.3617 LP  0  0  0  0  0  0  0  0  0  0  0  0  # atno 14711 bound_to 4329
  126.6200  113.4599  172.0026 LP  0  0  0  0  0  0  0  0  0  0  0  0  # atno 14712 bound_to 4329
  138.9243  159.6553  184.8268 LP  0  0  0  0  0  0  0  0  0  0  0  0  # atno 14721 bound_to 1430
  136.9023  156.8606  187.7124 LP  0  0  0  0  0  0  0  0  0  0  0  0  # atno 14722 bound_to 1433
  135.8787  158.2550  187.6239 LP  0  0  0  0  0  0  0  0  0  0  0  0  # atno 14723 bound_to 1433
  145.1141  139.0623  165.9899 LP  0  0  0  0  0  0  0  0  0  0  0  0  # atno 14738 bound_to 4367
  144.2787  140.1548  166.8704 LP  0  0  0  0  0  0  0  0  0  0  0  0  # atno 14739 bound_to 4367
  136.7457  116.7418  184.1990 LP  0  0  0  0  0  0  0  0  0  0  0  0  # atno 14742 bound_to 400 
  139.7608  116.8164  184.5481 LP  0  0  0  0  0  0  0  0  0  0  0  0  # atno 14743 bound_to 403 
  140.0215  115.2368  183.8871 LP  0  0  0  0  0  0  0  0  0  0  0  0  # atno 14744 bound_to 403 
  151.0151  138.1828  154.6807 LP  0  0  0  0  0  0  0  0  0  0  0  0  # atno 14765 bound_to 379 
  150.5736  136.8714  153.8136 LP  0  0  0  0  0  0  0  0  0  0  0  0  # atno 14766 bound_to 379 
  121.5671  163.0635  166.5133 LP  0  0  0  0  0  0  0  0  0  0  0  0  # atno 14769 bound_to 513 
  124.5773  164.6948  164.5735 LP  0  0  0  0  0  0  0  0  0  0  0  0  # atno 14770 bound_to 516 
  123.4314  164.6891  163.2748 LP  0  0  0  0  0  0  0  0  0  0  0  0  # atno 14771 bound_to 516 
  157.4584  130.7804  150.2154 LP  0  0  0  0  0  0  0  0  0  0  0  0  # atno 14776 bound_to 463 
  156.0455  131.1648  150.9384 LP  0  0  0  0  0  0  0  0  0  0  0  0  # atno 14777 bound_to 463 
  117.3275  141.8624  114.1515 LP  0  0  0  0  0  0  0  0  0  0  0  0  # atno 14778 bound_to 464 
  118.3143  143.7540  117.6446 LP  0  0  0  0  0  0  0  0  0  0  0  0  # atno 14779 bound_to 467 
  116.8929  143.2068  118.4693 LP  0  0  0  0  0  0  0  0  0  0  0  0  # atno 14780 bound_to 467 
  115.8357  144.1712  113.1788 LP  0  0  0  0  0  0  0  0  0  0  0  0  # atno 14781 bound_to 470 
  115.7283  145.6579  113.8457 LP  0  0  0  0  0  0  0  0  0  0  0  0  # atno 14782 bound_to 470 
  122.5582  123.2540  185.6775 LP  0  0  0  0  0  0  0  0  0  0  0  0  # atno 14789 bound_to 4679
  124.4943  119.5276  187.7004 LP  0  0  0  0  0  0  0  0  0  0  0  0  # atno 14790 bound_to 4682
  125.3187  120.9172  187.0764 LP  0  0  0  0  0  0  0  0  0  0  0  0  # atno 14791 bound_to 4682
  143.9781  134.8223  136.1460 LP  0  0  0  0  0  0  0  0  0  0  0  0  # atno 14805 bound_to 3618
  144.4700  133.3861  136.7479 LP  0  0  0  0  0  0  0  0  0  0  0  0  # atno 14806 bound_to 3618
  138.4803  146.4588  189.4620 LP  0  0  0  0  0  0  0  0  0  0  0  0  # atno 14817 bound_to 1124
  137.3697  144.7422  186.8011 LP  0  0  0  0  0  0  0  0  0  0  0  0  # atno 14818 bound_to 1127
  136.9882  143.1120  187.2448 LP  0  0  0  0  0  0  0  0  0  0  0  0  # atno 14819 bound_to 1127
  132.8880  124.9007  151.1026 LP  0  0  0  0  0  0  0  0  0  0  0  0  # atno 14820 bound_to 3033
  149.7660  128.9733  150.5840 LP  0  0  0  0  0  0  0  0  0  0  0  0  # atno 14846 bound_to 1482
  149.1913  129.8607  151.8285 LP  0  0  0  0  0  0  0  0  0  0  0  0  # atno 14847 bound_to 1482
  134.1471  120.2667  147.4169 LP  0  0  0  0  0  0  0  0  0  0  0  0  # atno 14850 bound_to 3072
  133.8200  118.7466  147.9160 LP  0  0  0  0  0  0  0  0  0  0  0  0  # atno 14851 bound_to 3072
  140.8777  120.2133  149.0040 LP  0  0  0  0  0  0  0  0  0  0  0  0  # atno 14856 bound_to 3104
  141.8517  119.7658  147.7720 LP  0  0  0  0  0  0  0  0  0  0  0  0  # atno 14857 bound_to 3104
  150.3076  147.6641  171.5786 LP  0  0  0  0  0  0  0  0  0  0  0  0  # atno 14868 bound_to 5102
  150.9576  148.2948  170.2198 LP  0  0  0  0  0  0  0  0  0  0  0  0  # atno 14869 bound_to 5102
  143.6846  124.0017  153.4096 LP  0  0  0  0  0  0  0  0  0  0  0  0  # atno 14886 bound_to 2094
  142.6536  124.4254  152.2163 LP  0  0  0  0  0  0  0  0  0  0  0  0  # atno 14887 bound_to 2094
  121.0723  119.8388  172.9004 LP  0  0  0  0  0  0  0  0  0  0  0  0  # atno 14890 bound_to 4281
  120.7867  116.7697  169.6428 LP  0  0  0  0  0  0  0  0  0  0  0  0  # atno 14891 bound_to 4284
  121.2234  116.1967  171.2179 LP  0  0  0  0  0  0  0  0  0  0  0  0  # atno 14892 bound_to 4284
  132.3092  164.1732  176.0199 LP  0  0  0  0  0  0  0  0  0  0  0  0  # atno 14901 bound_to 2027
  129.2791  160.5701  175.2362 LP  0  0  0  0  0  0  0  0  0  0  0  0  # atno 14902 bound_to 2030
  128.4454  161.5306  174.0604 LP  0  0  0  0  0  0  0  0  0  0  0  0  # atno 14903 bound_to 2030
  122.9090  155.5810  186.9665 LP  0  0  0  0  0  0  0  0  0  0  0  0  # atno 14906 bound_to 231 
  120.7516  158.9920  183.5831 LP  0  0  0  0  0  0  0  0  0  0  0  0  # atno 14907 bound_to 234 
  122.1498  159.4564  184.4937 LP  0  0  0  0  0  0  0  0  0  0  0  0  # atno 14908 bound_to 234 
  110.4105  140.9951  102.8261 LP  0  0  0  0  0  0  0  0  0  0  0  0  # atno 14919 bound_to 266 
  113.6843  139.6455  104.6240 LP  0  0  0  0  0  0  0  0  0  0  0  0  # atno 14920 bound_to 269 
  114.3498  141.2400  104.7449 LP  0  0  0  0  0  0  0  0  0  0  0  0  # atno 14921 bound_to 269 
  138.7716  130.7928  153.0479 LP  0  0  0  0  0  0  0  0  0  0  0  0  # atno 14924 bound_to 2062
  137.3426  130.1148  152.6416 LP  0  0  0  0  0  0  0  0  0  0  0  0  # atno 14925 bound_to 2062

> <Gold.Score>
     Fitness  S(hb_ext) S(vdw_ext)  S(hb_int)    S(int)      intcor
     34.41       0.00      25.51       0.00      -0.66      -0.76

> <Gold.Goldscore.Fitness>
34.4077

> <Gold.Goldscore.Internal.Vdw>
-0.9211

> <Gold.Goldscore.Internal.Torsion>
-0.5012

> <Gold.Goldscore.External.Vdw>
25.5065

> <Gold.Goldscore.Internal.HBond>
0.0000

> <Gold.Goldscore.External.HBond>
0.0000

> <Gold.Goldscore.Internal.Correction>
-0.7585

> <Gold.Goldscore.Internal.Vdw.Weighted>
-0.9211

> <Gold.Goldscore.Internal.Torsion.Weighted>
-0.5012

> <Gold.Goldscore.External.Vdw.Weighted>
35.0715

> <Gold.Goldscore.Internal.HBond.Weighted>
0.0000

> <Gold.Goldscore.External.HBond.Weighted>
0.0000

> <Gold.Goldscore.Internal.Correction.Weighted>
-0.7585

> <Gold.Rescore>
     Score     S(PLP)   S(hbond)     S(cho)   S(metal)  DE(clash)   DE(tors)     intcor
     26.32     -28.48       0.00       0.00       0.00       2.02       0.07       ----

> <Gold.PLP.Fitness>
26.3236

> <Gold.PLP.PLP>
-28.4838

> <Gold.PLP.part.hbond>
-3.3155

> <Gold.PLP.part.metal>
0.0000

> <Gold.PLP.part.buried>
1.8190

> <Gold.PLP.part.nonpolar>
-28.7735

> <Gold.PLP.part.repulsive>
0.5986

> <Gold.PLP.ligand.clash>
2.0207

> <Gold.PLP.ligand.torsion>
0.0697

> <Gold.PLP.Chemscore.Hbond>
0.0000

> <Gold.PLP.Chemscore.CHOScore>
0.0000

> <Gold.PLP.Chemscore.Metal>
0.0000

> <Gold.PLP.Chemscore.Internal.Correction>
   9.000000E+99

