#       Name:                CT1002167954
#       Creating user name   hitesit
#       Creation time:       Sun Apr 16 20:30:10 2023


#       File generated by GOLD software.
#

@<TRIPOS>MOLECULE
CT1002167954|ligand_prepared|mol2|1|dock7
    29    30     1
SMALL
NO_CHARGES


@<TRIPOS>ATOM
      1 C1         140.2139 127.0947 149.9823 C.3            1 RES1               0.0000
      2 C2         139.6357 128.5102 149.7802 C.ar           1 RES1               0.0000
      3 C3         141.6794 127.1667 149.5633 C.2            1 RES1               0.0000
      4 C4         140.0035 126.7540 151.4534 C.2            1 RES1               0.0000
      5 C5         139.5137 126.0069 149.1351 C.3            1 RES1               0.0000
      6 C6         139.8374 129.5012 150.7362 C.ar           1 RES1               0.0000
      7 C7         138.9022 128.8401 148.6436 C.ar           1 RES1               0.0000
      8 N8         142.6205 127.1454 150.5502 N.am           1 RES1               0.0000
      9 O9         142.0030 127.2802 148.3875 O.2            1 RES1               0.0000
     10 N10        141.1135 126.6032 152.2427 N.am           1 RES1               0.0000
     11 O11        138.8862 126.6312 151.9400 O.2            1 RES1               0.0000
     12 C12        139.9326 124.5889 149.4903 C.3            1 RES1               0.0000
     13 C13        139.3268 130.7767 150.5611 C.ar           1 RES1               0.0000
     14 C14        138.3922 130.1163 148.4706 C.ar           1 RES1               0.0000
     15 C15        142.4116 126.8137 151.8647 C.2            1 RES1               0.0000
     16 C16        138.6043 131.0852 149.4282 C.ar           1 RES1               0.0000
     17 O17        143.3526 126.7112 152.6464 O.2            1 RES1               0.0000
     18 H18        138.4288 126.0987 149.2693 H              1 RES1               0.0000
     19 H19        139.7368 126.1860 148.0760 H              1 RES1               0.0000
     20 H20        140.4013 129.2763 151.6353 H              1 RES1               0.0000
     21 H21        138.7219 128.0936 147.8777 H              1 RES1               0.0000
     22 H22        143.5671 127.3997 150.2864 H              1 RES1               0.0000
     23 H23        140.9576 126.3064 153.2008 H              1 RES1               0.0000
     24 H24        139.4120 123.8652 148.8666 H              1 RES1               0.0000
     25 H25        141.0024 124.4547 149.3442 H              1 RES1               0.0000
     26 H26        139.7021 124.3678 150.5304 H              1 RES1               0.0000
     27 H27        139.4953 131.5353 151.3183 H              1 RES1               0.0000
     28 H28        137.8237 130.3545 147.5777 H              1 RES1               0.0000
     29 H29        138.2048 132.0846 149.2911 H              1 RES1               0.0000
@<TRIPOS>BOND
    1    1    2 1     
    2    1    3 1     
    3    1    4 1     
    4    1    5 1     
    5    2    6 ar    
    6    2    7 ar    
    7    3    8 1     
    8    3    9 2     
    9    4   10 1     
   10    4   11 2     
   11    5   12 1     
   12    5   18 1     
   13    5   19 1     
   14    6   13 ar    
   15    6   20 1     
   16    7   14 ar    
   17    7   21 1     
   18    8   15 1     
   19    8   22 1     
   20   10   15 1     
   21   10   23 1     
   22   12   24 1     
   23   12   25 1     
   24   12   26 1     
   25   13   16 ar    
   26   13   27 1     
   27   14   16 ar    
   28   14   28 1     
   29   15   17 2     
   30   16   29 1     
@<TRIPOS>SUBSTRUCTURE
      1 RES1           1
@<TRIPOS>SET
DONOR_HYDROGENS      STATIC     ATOMS    <user>   **** ""
2 22 23
ATOM$RED        STATIC     ATOMS    COLORGROUP SYSTEM
2 22 23
@<TRIPOS>COMMENT
> <Gold.Version>
2022.3.0

> <Gold.Id.Protein>
unknown|7rmh_cavity_clean|pdb

> <Gold.Protein.RotatedTorsions>
[ 4334 4326 4327 4328 ] final  -12.73 input   45.76 | X-H torsion
[ 1444 1430 1431 1432 ] final  162.18 input   54.63 | X-H torsion
[ 4376 4367 4366 4364 ] final   96.04 input   59.97 | X-H torsion
[  415  400  401  402 ] final   77.55 input   82.00 | X-H torsion
[  331  328  327  326 ] final  -40.54 input   59.97 | X-H torsion
[  388  379  378  376 ] final   80.87 input   59.98 | X-H torsion
[  529  513  514  515 ] final   11.87 input  105.58 | X-H torsion
[  474  463  461  458 ] final -116.56 input   59.98 | X-H torsion
[  476  464  465  466 ] final  118.83 input  115.28 | X-H torsion
[  482  470  468  465 ] final    1.68 input   59.99 | X-H torsion
[ 4698 4679 4680 4681 ] final  161.77 input   46.48 | X-H torsion
[ 3627 3618 3617 3615 ] final  101.18 input   60.02 | X-H torsion
[ 1139 1124 1125 1126 ] final  -49.37 input   64.50 | X-H torsion
[ 3038 3033 3034 3035 ] final   57.32 input   60.01 | X-H torsion
[ 1489 1482 1480 1477 ] final  -94.74 input   59.97 | X-H torsion
[ 3081 3072 3071 3069 ] final -122.92 input   59.99 | X-H torsion
[ 3113 3104 3103 3101 ] final   72.91 input   60.00 | X-H torsion
[ 5109 5102 5100 5097 ] final  -75.21 input   60.01 | X-H torsion
[ 2099 2094 2093 2090 ] final -167.46 input   60.02 | X-H torsion
[ 4286 4281 4282 4283 ] final  158.19 input  108.09 | X-H torsion
[ 2038 2027 2028 2029 ] final  -20.26 input  103.58 | X-H torsion
[  246  231  232  233 ] final  -32.69 input  105.30 | X-H torsion
[  279  266  267  268 ] final -132.86 input  114.84 | X-H torsion
[ 2069 2062 2060 2057 ] final   15.74 input   60.00 | X-H torsion
[ 14711 4329 4328 4327 ] final   60.01 input    0.00 | X-H torsion
[ 14722 1433 1432 1431 ] final   26.80 input   -0.00 | X-H torsion
[ 14743  403  402  401 ] final  154.35 input   -0.00 | X-H torsion
[ 14770  516  515  514 ] final  -43.85 input    0.00 | X-H torsion
[ 14779  467  466  465 ] final -100.46 input    0.00 | X-H torsion
[ 14790 4682 4681 4680 ] final -115.40 input   -0.00 | X-H torsion
[ 14818 1127 1126 1125 ] final   52.36 input   -0.00 | X-H torsion
[ 14891 4284 4283 4282 ] final   31.95 input    0.00 | X-H torsion
[ 14902 2030 2029 2028 ] final  -54.79 input    0.00 | X-H torsion
[ 14907  234  233  232 ] final   77.17 input   -0.00 | X-H torsion
[ 14920  269  268  267 ] final   41.60 input    0.00 | X-H torsion

> <Gold.Protein.ActiveResidues>
 GLU27   LEU30   GLN31   ASP33   LYS34   GLN35   VAL36   TYR37   ARG38   THR40  
 HIS41   ARG42   ILE207  GLU209  HIS220  PHE222  CYS237  PHE238  ASN239  ASP240 
 VAL241  THR242  ARG280  TRP281  ARG283  THR284  ILE285  SER286  ARG356  HIS357 
 TYR358  TYR360  ASP381  ILE382  ILE383  GLN384  ARG385  MET386  HIS387  LEU388 
 ARG389  GLN390  TYR391  GLU392  LEU393  LEU394  ALA56   LYS57   ILE58   TYR59  
 ALA60   MET61   LEU79   ILE80   ILE81   TRP82   ILE93   VAL100  MET101  THR102 
 CYS103  CYS121  ASP312  ASN313  TRP332  ASP333  SER334  PHE335 

> <Gold.Protein.RotatedAtoms>
  121.2628  155.9551  186.5801 H   0  0  0  0  0  0  0  0  0  0  0  0  # atno 246  bound_to 231 
  110.1371  139.7285  102.2864 H   0  0  0  0  0  0  0  0  0  0  0  0  # atno 279  bound_to 266 
  149.2052  143.6619  145.6786 H   0  0  0  0  0  0  0  0  0  0  0  0  # atno 331  bound_to 328 
  150.0792  144.0731  147.0250 H   0  0  0  0  0  0  0  0  0  0  0  0  # atno 332  bound_to 328 
  149.0540  145.1758  146.3341 H   0  0  0  0  0  0  0  0  0  0  0  0  # atno 333  bound_to 328 
  150.6515  138.6036  154.4398 H   0  0  0  0  0  0  0  0  0  0  0  0  # atno 388  bound_to 379 
  137.0804  115.3489  183.2674 H   0  0  0  0  0  0  0  0  0  0  0  0  # atno 415  bound_to 400 
  156.6824  131.8693  151.5193 H   0  0  0  0  0  0  0  0  0  0  0  0  # atno 474  bound_to 463 
  116.6320  142.7166  113.3862 H   0  0  0  0  0  0  0  0  0  0  0  0  # atno 476  bound_to 464 
  116.1955  144.6253  113.3407 H   0  0  0  0  0  0  0  0  0  0  0  0  # atno 482  bound_to 470 
  122.1366  164.2809  165.7975 H   0  0  0  0  0  0  0  0  0  0  0  0  # atno 529  bound_to 513 
  138.1594  144.8226  189.9937 H   0  0  0  0  0  0  0  0  0  0  0  0  # atno 1139 bound_to 1124
  139.5501  160.8687  185.8959 H   0  0  0  0  0  0  0  0  0  0  0  0  # atno 1444 bound_to 1430
  148.4801  129.2620  150.2796 H   0  0  0  0  0  0  0  0  0  0  0  0  # atno 1489 bound_to 1482
  132.6054  162.5820  175.4434 H   0  0  0  0  0  0  0  0  0  0  0  0  # atno 2038 bound_to 2027
  138.2469  129.0894  152.9281 H   0  0  0  0  0  0  0  0  0  0  0  0  # atno 2069 bound_to 2062
  142.8413  123.4939  151.8127 H   0  0  0  0  0  0  0  0  0  0  0  0  # atno 2099 bound_to 2094
  133.8542  123.9868  151.4744 H   0  0  0  0  0  0  0  0  0  0  0  0  # atno 3038 bound_to 3033
  132.8952  125.1039  150.7121 H   0  0  0  0  0  0  0  0  0  0  0  0  # atno 3039 bound_to 3033
  134.0046  118.5256  147.7217 H   0  0  0  0  0  0  0  0  0  0  0  0  # atno 3081 bound_to 3072
  142.4970  120.7524  148.3914 H   0  0  0  0  0  0  0  0  0  0  0  0  # atno 3113 bound_to 3104
  144.4396  133.4760  136.4686 H   0  0  0  0  0  0  0  0  0  0  0  0  # atno 3627 bound_to 3618
  119.5977  120.6518  172.5867 H   0  0  0  0  0  0  0  0  0  0  0  0  # atno 4286 bound_to 4281
  124.9727  116.1768  171.5501 H   0  0  0  0  0  0  0  0  0  0  0  0  # atno 4334 bound_to 4326
  145.8662  139.1735  166.8059 H   0  0  0  0  0  0  0  0  0  0  0  0  # atno 4376 bound_to 4367
  123.3002  123.5317  185.7122 H   0  0  0  0  0  0  0  0  0  0  0  0  # atno 4698 bound_to 4679
  151.9352  148.0909  170.7796 H   0  0  0  0  0  0  0  0  0  0  0  0  # atno 5109 bound_to 5102
  123.6413  116.8942  172.4362 LP  0  0  0  0  0  0  0  0  0  0  0  0  # atno 14710 bound_to 4326
  125.5634  114.1253  171.5706 LP  0  0  0  0  0  0  0  0  0  0  0  0  # atno 14711 bound_to 4329
  125.9920  112.9764  172.7938 LP  0  0  0  0  0  0  0  0  0  0  0  0  # atno 14712 bound_to 4329
  139.1098  159.5254  184.8649 LP  0  0  0  0  0  0  0  0  0  0  0  0  # atno 14721 bound_to 1430
  136.4312  158.2896  188.1295 LP  0  0  0  0  0  0  0  0  0  0  0  0  # atno 14722 bound_to 1433
  136.3498  156.8261  187.2067 LP  0  0  0  0  0  0  0  0  0  0  0  0  # atno 14723 bound_to 1433
  144.4727  139.4594  166.0155 LP  0  0  0  0  0  0  0  0  0  0  0  0  # atno 14738 bound_to 4367
  144.7893  140.2268  167.4217 LP  0  0  0  0  0  0  0  0  0  0  0  0  # atno 14739 bound_to 4367
  136.4106  116.6110  184.2763 LP  0  0  0  0  0  0  0  0  0  0  0  0  # atno 14742 bound_to 400 
  140.4617  116.3271  184.7957 LP  0  0  0  0  0  0  0  0  0  0  0  0  # atno 14743 bound_to 403 
  139.3206  115.7261  183.6395 LP  0  0  0  0  0  0  0  0  0  0  0  0  # atno 14744 bound_to 403 
  150.9630  137.0166  154.2573 LP  0  0  0  0  0  0  0  0  0  0  0  0  # atno 14765 bound_to 379 
  149.8304  137.7410  153.3305 LP  0  0  0  0  0  0  0  0  0  0  0  0  # atno 14766 bound_to 379 
  120.8592  163.1155  166.0501 LP  0  0  0  0  0  0  0  0  0  0  0  0  # atno 14769 bound_to 513 
  123.2792  164.7476  163.4539 LP  0  0  0  0  0  0  0  0  0  0  0  0  # atno 14770 bound_to 516 
  124.7294  164.6362  164.3944 LP  0  0  0  0  0  0  0  0  0  0  0  0  # atno 14771 bound_to 516 
  157.8888  131.2592  150.6135 LP  0  0  0  0  0  0  0  0  0  0  0  0  # atno 14776 bound_to 463 
  156.3596  130.7242  150.4091 LP  0  0  0  0  0  0  0  0  0  0  0  0  # atno 14777 bound_to 463 
  118.2340  142.4902  114.0501 LP  0  0  0  0  0  0  0  0  0  0  0  0  # atno 14778 bound_to 464 
  118.3801  143.1225  117.9194 LP  0  0  0  0  0  0  0  0  0  0  0  0  # atno 14779 bound_to 467 
  116.8271  143.8383  118.1946 LP  0  0  0  0  0  0  0  0  0  0  0  0  # atno 14780 bound_to 467 
  115.1328  145.7057  113.9335 LP  0  0  0  0  0  0  0  0  0  0  0  0  # atno 14781 bound_to 470 
  114.6076  144.2699  113.3599 LP  0  0  0  0  0  0  0  0  0  0  0  0  # atno 14782 bound_to 470 
  122.7769  122.3739  186.9157 LP  0  0  0  0  0  0  0  0  0  0  0  0  # atno 14789 bound_to 4679
  125.4187  119.6455  186.9948 LP  0  0  0  0  0  0  0  0  0  0  0  0  # atno 14790 bound_to 4682
  124.3943  120.7993  187.7819 LP  0  0  0  0  0  0  0  0  0  0  0  0  # atno 14791 bound_to 4682
  144.1316  134.3181  137.8260 LP  0  0  0  0  0  0  0  0  0  0  0  0  # atno 14805 bound_to 3618
  143.9097  135.0106  136.3639 LP  0  0  0  0  0  0  0  0  0  0  0  0  # atno 14806 bound_to 3618
  138.5043  146.4290  189.3846 LP  0  0  0  0  0  0  0  0  0  0  0  0  # atno 14817 bound_to 1124
  137.8447  143.9406  187.5767 LP  0  0  0  0  0  0  0  0  0  0  0  0  # atno 14818 bound_to 1127
  136.5133  143.9136  186.4691 LP  0  0  0  0  0  0  0  0  0  0  0  0  # atno 14819 bound_to 1127
  134.2495  124.5328  149.9731 LP  0  0  0  0  0  0  0  0  0  0  0  0  # atno 14820 bound_to 3033
  149.9455  129.1235  150.9746 LP  0  0  0  0  0  0  0  0  0  0  0  0  # atno 14846 bound_to 1482
  148.7588  129.9578  151.7245 LP  0  0  0  0  0  0  0  0  0  0  0  0  # atno 14847 bound_to 1482
  134.8913  119.3370  146.6241 LP  0  0  0  0  0  0  0  0  0  0  0  0  # atno 14850 bound_to 3072
  133.9373  120.1510  147.6699 LP  0  0  0  0  0  0  0  0  0  0  0  0  # atno 14851 bound_to 3072
  141.1130  120.5719  149.2272 LP  0  0  0  0  0  0  0  0  0  0  0  0  # atno 14856 bound_to 3104
  141.4202  119.6214  147.9354 LP  0  0  0  0  0  0  0  0  0  0  0  0  # atno 14857 bound_to 3104
  150.9244  147.5386  171.9289 LP  0  0  0  0  0  0  0  0  0  0  0  0  # atno 14868 bound_to 5102
  150.3281  148.1289  170.5280 LP  0  0  0  0  0  0  0  0  0  0  0  0  # atno 14869 bound_to 5102
  143.8374  123.2397  153.0742 LP  0  0  0  0  0  0  0  0  0  0  0  0  # atno 14886 bound_to 2094
  143.0331  124.6543  152.9374 LP  0  0  0  0  0  0  0  0  0  0  0  0  # atno 14887 bound_to 2094
  120.9106  119.6222  173.1023 LP  0  0  0  0  0  0  0  0  0  0  0  0  # atno 14890 bound_to 4281
  120.2554  116.6865  170.0474 LP  0  0  0  0  0  0  0  0  0  0  0  0  # atno 14891 bound_to 4284
  121.7547  116.2798  170.8134 LP  0  0  0  0  0  0  0  0  0  0  0  0  # atno 14892 bound_to 4284
  132.3588  164.2887  175.7287 LP  0  0  0  0  0  0  0  0  0  0  0  0  # atno 14901 bound_to 2027
  129.0591  160.9924  175.4897 LP  0  0  0  0  0  0  0  0  0  0  0  0  # atno 14902 bound_to 2030
  128.6653  161.1083  173.8070 LP  0  0  0  0  0  0  0  0  0  0  0  0  # atno 14903 bound_to 2030
  122.9216  155.4486  186.7860 LP  0  0  0  0  0  0  0  0  0  0  0  0  # atno 14906 bound_to 231 
  122.1800  159.1881  183.5726 LP  0  0  0  0  0  0  0  0  0  0  0  0  # atno 14907 bound_to 234 
  120.7215  159.2603  184.5041 LP  0  0  0  0  0  0  0  0  0  0  0  0  # atno 14908 bound_to 234 
  110.7208  141.3296  101.9038 LP  0  0  0  0  0  0  0  0  0  0  0  0  # atno 14919 bound_to 266 
  114.3457  139.8330  104.1646 LP  0  0  0  0  0  0  0  0  0  0  0  0  # atno 14920 bound_to 269 
  113.6884  141.0524  105.2043 LP  0  0  0  0  0  0  0  0  0  0  0  0  # atno 14921 bound_to 269 
  139.0239  130.5049  153.1273 LP  0  0  0  0  0  0  0  0  0  0  0  0  # atno 14924 bound_to 2062
  137.4569  130.4878  152.6681 LP  0  0  0  0  0  0  0  0  0  0  0  0  # atno 14925 bound_to 2062

> <Gold.Score>
     Fitness  S(hb_ext) S(vdw_ext)  S(hb_int)    S(int)      intcor
     33.43       2.00      22.97       0.00      -0.15      -0.76

> <Gold.Goldscore.Fitness>
33.4315

> <Gold.Goldscore.Internal.Vdw>
-0.4146

> <Gold.Goldscore.Internal.Torsion>
-0.4930

> <Gold.Goldscore.External.Vdw>
22.9677

> <Gold.Goldscore.Internal.HBond>
0.0000

> <Gold.Goldscore.External.HBond>
2.0000

> <Gold.Goldscore.Internal.Correction>
-0.7585

> <Gold.Goldscore.Hbonds>
donor molecule, donor type, donor heavy atom, donor atom, acceptor molecule, acceptor atom, score
      P1  H  2089  2095       L1    17  1.00

> <Gold.Goldscore.Internal.Vdw.Weighted>
-0.4146

> <Gold.Goldscore.Internal.Torsion.Weighted>
-0.4930

> <Gold.Goldscore.External.Vdw.Weighted>
31.5805

> <Gold.Goldscore.Internal.HBond.Weighted>
0.0000

> <Gold.Goldscore.External.HBond.Weighted>
2.0000

> <Gold.Goldscore.Internal.Correction.Weighted>
-0.7585

> <Gold.Rescore>
     Score     S(PLP)   S(hbond)     S(cho)   S(metal)  DE(clash)   DE(tors)     intcor
    -10.97      12.11       1.00       0.00       0.00       0.00       0.93       ----

> <Gold.PLP.Fitness>
-10.9727

> <Gold.PLP.PLP>
12.1090

> <Gold.PLP.part.hbond>
-2.7416

> <Gold.PLP.part.metal>
0.0000

> <Gold.PLP.part.buried>
19.5547

> <Gold.PLP.part.nonpolar>
-26.8466

> <Gold.PLP.part.repulsive>
17.5341

> <Gold.PLP.ligand.clash>
0.0000

> <Gold.PLP.ligand.torsion>
0.9319

> <Gold.PLP.Chemscore.Hbond>
1.0000

> <Gold.PLP.Chemscore.CHOScore>
0.0000

> <Gold.PLP.Chemscore.Metal>
0.0000

> <Gold.Chemscore.Hbonds>
donor molecule, donor type, donor heavy atom, donor atom, acceptor molecule, acceptor atom, score
      P1  H  2089  2095       L1    17  0.93

> <Gold.PLP.Chemscore.Internal.Correction>
   9.000000E+99

