#       Name:                CT1002167954
#       Creating user name   hitesit
#       Creation time:       Sun Apr 16 20:29:18 2023


#       File generated by GOLD software.
#

@<TRIPOS>MOLECULE
CT1002167954|ligand_prepared|mol2|1|dock3
    29    30     1
SMALL
NO_CHARGES


@<TRIPOS>ATOM
      1 C1         147.2089 132.4612 149.8403 C.3            1 RES1               0.0000
      2 C2         145.9804 131.5289 149.8280 C.ar           1 RES1               0.0000
      3 C3         147.3022 133.0284 151.2537 C.2            1 RES1               0.0000
      4 C4         148.4010 131.6014 149.4350 C.2            1 RES1               0.0000
      5 C5         147.1091 133.6396 148.8437 C.3            1 RES1               0.0000
      6 C6         144.6935 132.0535 149.7536 C.ar           1 RES1               0.0000
      7 C7         146.1178 130.1447 149.8876 C.ar           1 RES1               0.0000
      8 N8         148.2887 132.5478 152.0636 N.am           1 RES1               0.0000
      9 O9         146.4981 133.8560 151.6645 O.2            1 RES1               0.0000
     10 N10        149.3824 131.3844 150.3665 N.am           1 RES1               0.0000
     11 O11        148.4913 131.0961 148.3229 O.2            1 RES1               0.0000
     12 C12        148.4025 134.4244 148.6907 C.3            1 RES1               0.0000
     13 C13        143.5843 131.2242 149.7365 C.ar           1 RES1               0.0000
     14 C14        145.0072 129.3172 149.8706 C.ar           1 RES1               0.0000
     15 C15        149.3653 131.7932 151.6722 C.2            1 RES1               0.0000
     16 C16        143.7403 129.8557 149.7945 C.ar           1 RES1               0.0000
     17 O17        150.2600 131.5124 152.4645 O.2            1 RES1               0.0000
     18 H18        146.8154 133.2479 147.8621 H              1 RES1               0.0000
     19 H19        146.3199 134.3223 149.1821 H              1 RES1               0.0000
     20 H20        144.5509 133.1281 149.7097 H              1 RES1               0.0000
     21 H21        147.1048 129.6989 149.9490 H              1 RES1               0.0000
     22 H22        148.2194 132.7698 153.0516 H              1 RES1               0.0000
     23 H23        150.2016 130.8706 150.0579 H              1 RES1               0.0000
     24 H24        148.2775 135.2392 147.9806 H              1 RES1               0.0000
     25 H25        148.7108 134.8496 149.6435 H              1 RES1               0.0000
     26 H26        149.2034 133.7816 148.3313 H              1 RES1               0.0000
     27 H27        142.5893 131.6531 149.6779 H              1 RES1               0.0000
     28 H28        145.1347 128.2407 149.9171 H              1 RES1               0.0000
     29 H29        142.8712 129.2063 149.7807 H              1 RES1               0.0000
@<TRIPOS>BOND
    1    1    2 1     
    2    1    3 1     
    3    1    4 1     
    4    1    5 1     
    5    2    6 ar    
    6    2    7 ar    
    7    3    8 1     
    8    3    9 2     
    9    4   10 1     
   10    4   11 2     
   11    5   12 1     
   12    5   18 1     
   13    5   19 1     
   14    6   13 ar    
   15    6   20 1     
   16    7   14 ar    
   17    7   21 1     
   18    8   15 1     
   19    8   22 1     
   20   10   15 1     
   21   10   23 1     
   22   12   24 1     
   23   12   25 1     
   24   12   26 1     
   25   13   16 ar    
   26   13   27 1     
   27   14   16 ar    
   28   14   28 1     
   29   15   17 2     
   30   16   29 1     
@<TRIPOS>SUBSTRUCTURE
      1 RES1           1
@<TRIPOS>SET
DONOR_HYDROGENS      STATIC     ATOMS    <user>   **** ""
2 22 23
ATOM$RED        STATIC     ATOMS    COLORGROUP SYSTEM
2 22 23
@<TRIPOS>COMMENT
> <Gold.Version>
2022.3.0

> <Gold.Id.Protein>
unknown|7rmh_cavity_clean|pdb

> <Gold.Protein.RotatedTorsions>
[ 4334 4326 4327 4328 ] final  -43.16 input   45.76 | X-H torsion
[ 1444 1430 1431 1432 ] final  -15.93 input   54.63 | X-H torsion
[ 4376 4367 4366 4364 ] final  -34.51 input   59.97 | X-H torsion
[  415  400  401  402 ] final   60.45 input   82.00 | X-H torsion
[  331  328  327  326 ] final -148.33 input   59.97 | X-H torsion
[  388  379  378  376 ] final   79.32 input   59.98 | X-H torsion
[  529  513  514  515 ] final  126.40 input  105.58 | X-H torsion
[  474  463  461  458 ] final   48.71 input   59.98 | X-H torsion
[  476  464  465  466 ] final  -30.72 input  115.28 | X-H torsion
[  482  470  468  465 ] final    1.46 input   59.99 | X-H torsion
[ 4698 4679 4680 4681 ] final   -1.41 input   46.48 | X-H torsion
[ 3627 3618 3617 3615 ] final -177.80 input   60.02 | X-H torsion
[ 1139 1124 1125 1126 ] final -166.43 input   64.50 | X-H torsion
[ 3038 3033 3034 3035 ] final -149.70 input   60.01 | X-H torsion
[ 1489 1482 1480 1477 ] final -154.96 input   59.97 | X-H torsion
[ 3081 3072 3071 3069 ] final  149.88 input   59.99 | X-H torsion
[ 3113 3104 3103 3101 ] final -153.82 input   60.00 | X-H torsion
[ 5109 5102 5100 5097 ] final    8.92 input   60.01 | X-H torsion
[ 2099 2094 2093 2090 ] final   -6.67 input   60.02 | X-H torsion
[ 4286 4281 4282 4283 ] final   62.66 input  108.09 | X-H torsion
[ 2038 2027 2028 2029 ] final  -59.80 input  103.58 | X-H torsion
[  246  231  232  233 ] final  -62.03 input  105.30 | X-H torsion
[  279  266  267  268 ] final  -44.08 input  114.84 | X-H torsion
[ 2069 2062 2060 2057 ] final    1.93 input   60.00 | X-H torsion
[ 14711 4329 4328 4327 ] final  179.83 input    0.00 | X-H torsion
[ 14722 1433 1432 1431 ] final  -67.64 input   -0.00 | X-H torsion
[ 14743  403  402  401 ] final   73.70 input   -0.00 | X-H torsion
[ 14770  516  515  514 ] final  -11.29 input    0.00 | X-H torsion
[ 14779  467  466  465 ] final -115.28 input    0.00 | X-H torsion
[ 14790 4682 4681 4680 ] final   92.68 input   -0.00 | X-H torsion
[ 14818 1127 1126 1125 ] final  169.59 input   -0.00 | X-H torsion
[ 14891 4284 4283 4282 ] final  -58.01 input    0.00 | X-H torsion
[ 14902 2030 2029 2028 ] final  120.23 input    0.00 | X-H torsion
[ 14907  234  233  232 ] final   96.63 input   -0.00 | X-H torsion
[ 14920  269  268  267 ] final -159.55 input    0.00 | X-H torsion

> <Gold.Protein.ActiveResidues>
 GLU27   LEU30   GLN31   ASP33   LYS34   GLN35   VAL36   TYR37   ARG38   THR40  
 HIS41   ARG42   ILE207  GLU209  HIS220  PHE222  CYS237  PHE238  ASN239  ASP240 
 VAL241  THR242  ARG280  TRP281  ARG283  THR284  ILE285  SER286  ARG356  HIS357 
 TYR358  TYR360  ASP381  ILE382  ILE383  GLN384  ARG385  MET386  HIS387  LEU388 
 ARG389  GLN390  TYR391  GLU392  LEU393  LEU394  ALA56   LYS57   ILE58   TYR59  
 ALA60   MET61   LEU79   ILE80   ILE81   TRP82   ILE93   VAL100  MET101  THR102 
 CYS103  CYS121  ASP312  ASN313  TRP332  ASP333  SER334  PHE335 

> <Gold.Protein.RotatedAtoms>
  121.3995  156.1634  186.9510 H   0  0  0  0  0  0  0  0  0  0  0  0  # atno 246  bound_to 231 
  110.3132  140.7617  102.9379 H   0  0  0  0  0  0  0  0  0  0  0  0  # atno 279  bound_to 266 
  148.9562  145.1062  146.1703 H   0  0  0  0  0  0  0  0  0  0  0  0  # atno 331  bound_to 328 
  149.3365  143.5418  145.7783 H   0  0  0  0  0  0  0  0  0  0  0  0  # atno 332  bound_to 328 
  150.0462  144.2631  147.0898 H   0  0  0  0  0  0  0  0  0  0  0  0  # atno 333  bound_to 328 
  150.6689  138.5921  154.4540 H   0  0  0  0  0  0  0  0  0  0  0  0  # atno 388  bound_to 379 
  137.2870  115.5129  183.2674 H   0  0  0  0  0  0  0  0  0  0  0  0  # atno 415  bound_to 400 
  157.0368  130.6456  150.1681 H   0  0  0  0  0  0  0  0  0  0  0  0  # atno 474  bound_to 463 
  118.0053  142.1281  114.2178 H   0  0  0  0  0  0  0  0  0  0  0  0  # atno 476  bound_to 464 
  116.1967  144.6284  113.3419 H   0  0  0  0  0  0  0  0  0  0  0  0  # atno 482  bound_to 470 
  120.7836  163.8043  165.4074 H   0  0  0  0  0  0  0  0  0  0  0  0  # atno 529  bound_to 513 
  138.1780  146.3278  190.2341 H   0  0  0  0  0  0  0  0  0  0  0  0  # atno 1139 bound_to 1124
  139.0710  159.5120  184.8549 H   0  0  0  0  0  0  0  0  0  0  0  0  # atno 1444 bound_to 1430
  149.3626  128.9393  150.2648 H   0  0  0  0  0  0  0  0  0  0  0  0  # atno 1489 bound_to 1482
  132.4716  162.6736  176.0190 H   0  0  0  0  0  0  0  0  0  0  0  0  # atno 2038 bound_to 2027
  138.4612  129.1188  152.9904 H   0  0  0  0  0  0  0  0  0  0  0  0  # atno 2069 bound_to 2062
  143.4550  124.3454  153.3317 H   0  0  0  0  0  0  0  0  0  0  0  0  # atno 2099 bound_to 2094
  133.1455  125.1836  150.2365 H   0  0  0  0  0  0  0  0  0  0  0  0  # atno 3038 bound_to 3033
  134.4623  124.1798  150.3213 H   0  0  0  0  0  0  0  0  0  0  0  0  # atno 3039 bound_to 3033
  134.8113  118.8303  146.7597 H   0  0  0  0  0  0  0  0  0  0  0  0  # atno 3081 bound_to 3072
  141.2473  119.6192  148.0668 H   0  0  0  0  0  0  0  0  0  0  0  0  # atno 3113 bound_to 3104
  144.0776  134.5343  135.9925 H   0  0  0  0  0  0  0  0  0  0  0  0  # atno 3627 bound_to 3618
  120.8846  120.5535  172.3881 H   0  0  0  0  0  0  0  0  0  0  0  0  # atno 4286 bound_to 4281
  125.1181  116.6088  171.6624 H   0  0  0  0  0  0  0  0  0  0  0  0  # atno 4334 bound_to 4326
  144.3736  139.5754  166.0965 H   0  0  0  0  0  0  0  0  0  0  0  0  # atno 4376 bound_to 4367
  123.0170  122.3788  187.0108 H   0  0  0  0  0  0  0  0  0  0  0  0  # atno 4698 bound_to 4679
  150.8137  148.2725  170.2481 H   0  0  0  0  0  0  0  0  0  0  0  0  # atno 5109 bound_to 5102
  123.5019  116.4797  172.3285 LP  0  0  0  0  0  0  0  0  0  0  0  0  # atno 14710 bound_to 4326
  126.5942  113.2680  172.2401 LP  0  0  0  0  0  0  0  0  0  0  0  0  # atno 14711 bound_to 4329
  124.9612  113.8336  172.1242 LP  0  0  0  0  0  0  0  0  0  0  0  0  # atno 14712 bound_to 4329
  139.5746  160.8415  185.8748 LP  0  0  0  0  0  0  0  0  0  0  0  0  # atno 14721 bound_to 1430
  137.0737  157.1950  188.0576 LP  0  0  0  0  0  0  0  0  0  0  0  0  # atno 14722 bound_to 1433
  135.7074  157.9207  187.2787 LP  0  0  0  0  0  0  0  0  0  0  0  0  # atno 14723 bound_to 1433
  144.9415  140.1859  167.4940 LP  0  0  0  0  0  0  0  0  0  0  0  0  # atno 14738 bound_to 4367
  145.8238  139.0956  166.6577 LP  0  0  0  0  0  0  0  0  0  0  0  0  # atno 14739 bound_to 4367
  136.2098  116.4517  184.2763 LP  0  0  0  0  0  0  0  0  0  0  0  0  # atno 14742 bound_to 400 
  139.5365  116.8006  184.3761 LP  0  0  0  0  0  0  0  0  0  0  0  0  # atno 14743 bound_to 403 
  140.2458  115.2525  184.0592 LP  0  0  0  0  0  0  0  0  0  0  0  0  # atno 14744 bound_to 403 
  150.9500  137.0034  154.2399 LP  0  0  0  0  0  0  0  0  0  0  0  0  # atno 14765 bound_to 379 
  149.8257  137.7658  153.3336 LP  0  0  0  0  0  0  0  0  0  0  0  0  # atno 14766 bound_to 379 
  122.1820  163.5815  166.4314 LP  0  0  0  0  0  0  0  0  0  0  0  0  # atno 14769 bound_to 513 
  123.1527  164.8485  163.9117 LP  0  0  0  0  0  0  0  0  0  0  0  0  # atno 14770 bound_to 516 
  124.8560  164.5354  163.9366 LP  0  0  0  0  0  0  0  0  0  0  0  0  # atno 14771 bound_to 516 
  156.1412  131.4782  151.2417 LP  0  0  0  0  0  0  0  0  0  0  0  0  # atno 14776 bound_to 463 
  157.7504  131.7372  151.1414 LP  0  0  0  0  0  0  0  0  0  0  0  0  # atno 14777 bound_to 463 
  116.8969  143.0632  113.2404 LP  0  0  0  0  0  0  0  0  0  0  0  0  # atno 14778 bound_to 464 
  118.2907  142.9537  118.0353 LP  0  0  0  0  0  0  0  0  0  0  0  0  # atno 14779 bound_to 467 
  116.9166  144.0072  118.0787 LP  0  0  0  0  0  0  0  0  0  0  0  0  # atno 14780 bound_to 467 
  115.1293  145.7049  113.9336 LP  0  0  0  0  0  0  0  0  0  0  0  0  # atno 14781 bound_to 470 
  114.6099  144.2675  113.3585 LP  0  0  0  0  0  0  0  0  0  0  0  0  # atno 14782 bound_to 470 
  123.0510  123.4898  185.6590 LP  0  0  0  0  0  0  0  0  0  0  0  0  # atno 14789 bound_to 4679
  124.2382  120.4273  187.8996 LP  0  0  0  0  0  0  0  0  0  0  0  0  # atno 14790 bound_to 4682
  125.5748  120.0175  186.8771 LP  0  0  0  0  0  0  0  0  0  0  0  0  # atno 14791 bound_to 4682
  144.4619  133.3966  137.0900 LP  0  0  0  0  0  0  0  0  0  0  0  0  # atno 14805 bound_to 3618
  143.9442  134.8659  137.5796 LP  0  0  0  0  0  0  0  0  0  0  0  0  # atno 14806 bound_to 3618
  138.4865  144.9832  189.1536 LP  0  0  0  0  0  0  0  0  0  0  0  0  # atno 14817 bound_to 1124
  136.7167  143.1962  186.9768 LP  0  0  0  0  0  0  0  0  0  0  0  0  # atno 14818 bound_to 1127
  137.6413  144.6580  187.0690 LP  0  0  0  0  0  0  0  0  0  0  0  0  # atno 14819 bound_to 1127
  133.4032  124.2648  151.5772 LP  0  0  0  0  0  0  0  0  0  0  0  0  # atno 14820 bound_to 3033
  149.6413  129.6351  151.7097 LP  0  0  0  0  0  0  0  0  0  0  0  0  # atno 14846 bound_to 1482
  148.1748  129.7709  151.0043 LP  0  0  0  0  0  0  0  0  0  0  0  0  # atno 14847 bound_to 1482
  134.2696  120.2766  147.2736 LP  0  0  0  0  0  0  0  0  0  0  0  0  # atno 14850 bound_to 3072
  133.7468  118.9048  147.9888 LP  0  0  0  0  0  0  0  0  0  0  0  0  # atno 14851 bound_to 3072
  142.5210  120.6195  148.2213 LP  0  0  0  0  0  0  0  0  0  0  0  0  # atno 14856 bound_to 3104
  141.2716  120.7157  149.2684 LP  0  0  0  0  0  0  0  0  0  0  0  0  # atno 14857 bound_to 3104
  151.9767  147.8620  171.3094 LP  0  0  0  0  0  0  0  0  0  0  0  0  # atno 14868 bound_to 5102
  150.4052  147.6227  171.6828 LP  0  0  0  0  0  0  0  0  0  0  0  0  # atno 14869 bound_to 5102
  142.6336  124.0999  151.9485 LP  0  0  0  0  0  0  0  0  0  0  0  0  # atno 14886 bound_to 2094
  143.6191  122.9367  152.5337 LP  0  0  0  0  0  0  0  0  0  0  0  0  # atno 14887 bound_to 2094
  119.6489  119.7186  173.2970 LP  0  0  0  0  0  0  0  0  0  0  0  0  # atno 14890 bound_to 4281
  120.5786  116.2814  171.1566 LP  0  0  0  0  0  0  0  0  0  0  0  0  # atno 14891 bound_to 4284
  121.4315  116.6849  169.7041 LP  0  0  0  0  0  0  0  0  0  0  0  0  # atno 14892 bound_to 4284
  132.4895  164.1992  175.1664 LP  0  0  0  0  0  0  0  0  0  0  0  0  # atno 14901 bound_to 2027
  128.6282  161.1717  173.8234 LP  0  0  0  0  0  0  0  0  0  0  0  0  # atno 14902 bound_to 2030
  129.0963  160.9291  175.4732 LP  0  0  0  0  0  0  0  0  0  0  0  0  # atno 14903 bound_to 2030
  122.7875  155.2443  186.4224 LP  0  0  0  0  0  0  0  0  0  0  0  0  # atno 14906 bound_to 231 
  121.9874  159.1012  183.3699 LP  0  0  0  0  0  0  0  0  0  0  0  0  # atno 14907 bound_to 234 
  120.9141  159.3472  184.7068 LP  0  0  0  0  0  0  0  0  0  0  0  0  # atno 14908 bound_to 234 
  110.5481  140.3169  101.2653 LP  0  0  0  0  0  0  0  0  0  0  0  0  # atno 14919 bound_to 266 
  113.9306  141.2115  105.0736 LP  0  0  0  0  0  0  0  0  0  0  0  0  # atno 14920 bound_to 269 
  114.1036  139.6739  104.2952 LP  0  0  0  0  0  0  0  0  0  0  0  0  # atno 14921 bound_to 269 
  138.8923  130.6848  153.0853 LP  0  0  0  0  0  0  0  0  0  0  0  0  # atno 14924 bound_to 2062
  137.3726  130.2782  152.6473 LP  0  0  0  0  0  0  0  0  0  0  0  0  # atno 14925 bound_to 2062

> <Gold.Score>
     Fitness  S(hb_ext) S(vdw_ext)  S(hb_int)    S(int)      intcor
     30.85       2.59      21.35       0.00      -1.10      -0.76

> <Gold.Goldscore.Fitness>
30.8482

> <Gold.Goldscore.Internal.Vdw>
-1.3622

> <Gold.Goldscore.Internal.Torsion>
-0.5024

> <Gold.Goldscore.External.Vdw>
21.3491

> <Gold.Goldscore.Internal.HBond>
0.0000

> <Gold.Goldscore.External.HBond>
2.5929

> <Gold.Goldscore.Internal.Correction>
-0.7650

> <Gold.Goldscore.Hbonds>
donor molecule, donor type, donor heavy atom, donor atom, acceptor molecule, acceptor atom, score
      P1  H   492   499       L1    11  0.11
      P1  H   502   535       L1    17  0.95
      L1  H     8    22       P1  1453  0.24

> <Gold.Goldscore.Internal.Vdw.Weighted>
-1.3622

> <Gold.Goldscore.Internal.Torsion.Weighted>
-0.5024

> <Gold.Goldscore.External.Vdw.Weighted>
29.3550

> <Gold.Goldscore.Internal.HBond.Weighted>
0.0000

> <Gold.Goldscore.External.HBond.Weighted>
2.5929

> <Gold.Goldscore.Internal.Correction.Weighted>
-0.7650

> <Gold.Rescore>
     Score     S(PLP)   S(hbond)     S(cho)   S(metal)  DE(clash)   DE(tors)     intcor
     28.62     -21.58       2.88       0.00       0.00       1.33       0.14       ----

> <Gold.PLP.Fitness>
28.6184

> <Gold.PLP.PLP>
-21.5810

> <Gold.PLP.part.hbond>
-6.1436

> <Gold.PLP.part.metal>
0.0000

> <Gold.PLP.part.buried>
5.2557

> <Gold.PLP.part.nonpolar>
-22.3746

> <Gold.PLP.part.repulsive>
0.7297

> <Gold.PLP.ligand.clash>
1.3317

> <Gold.PLP.ligand.torsion>
0.1357

> <Gold.PLP.Chemscore.Hbond>
2.8802

> <Gold.PLP.Chemscore.CHOScore>
0.0000

> <Gold.PLP.Chemscore.Metal>
0.0000

> <Gold.Chemscore.Hbonds>
donor molecule, donor type, donor heavy atom, donor atom, acceptor molecule, acceptor atom, score
      L1  H     8    22       P1  1453  0.50
      P1  H   492   499       L1    11  0.64
      P1  H   502   535       L1    17  1.00
      P1  H   509   528       L1    17  0.10

> <Gold.PLP.Chemscore.Internal.Correction>
   9.000000E+99

