#       Name:                CT1002167954
#       Creating user name   hitesit
#       Creation time:       Sun Apr 16 20:29:05 2023


#       File generated by GOLD software.
#

@<TRIPOS>MOLECULE
CT1002167954|ligand_prepared|mol2|1|dock2
    29    30     1
SMALL
NO_CHARGES


@<TRIPOS>ATOM
      1 C1         145.7938 131.6178 150.2545 C.3            1 RES1               0.0000
      2 C2         144.9857 130.4552 150.8662 C.ar           1 RES1               0.0000
      3 C3         145.7824 132.7387 151.2897 C.2            1 RES1               0.0000
      4 C4         147.1814 131.0617 149.9549 C.2            1 RES1               0.0000
      5 C5         145.2022 132.1629 148.9337 C.3            1 RES1               0.0000
      6 C6         144.5339 129.4089 150.0674 C.ar           1 RES1               0.0000
      7 C7         144.6871 130.4137 152.2255 C.ar           1 RES1               0.0000
      8 N8         146.9334 132.9694 151.9838 N.am           1 RES1               0.0000
      9 O9         144.7676 133.3842 151.5215 O.2            1 RES1               0.0000
     10 N10        148.2420 131.5681 150.6595 N.am           1 RES1               0.0000
     11 O11        147.3638 130.1777 149.1269 O.2            1 RES1               0.0000
     12 C12        145.8790 133.4302 148.4358 C.3            1 RES1               0.0000
     13 C13        143.8123 128.3578 150.6084 C.ar           1 RES1               0.0000
     14 C14        143.9651 129.3617 152.7644 C.ar           1 RES1               0.0000
     15 C15        148.1769 132.4750 151.6821 C.2            1 RES1               0.0000
     16 C16        143.5278 128.3332 151.9572 C.ar           1 RES1               0.0000
     17 O17        149.1694 132.8415 152.3048 O.2            1 RES1               0.0000
     18 H18        145.2901 131.3888 148.1614 H              1 RES1               0.0000
     19 H19        144.1349 132.3680 149.0830 H              1 RES1               0.0000
     20 H20        144.7460 129.4123 149.0035 H              1 RES1               0.0000
     21 H21        145.0201 131.2125 152.8795 H              1 RES1               0.0000
     22 H22        146.8631 133.5646 152.8031 H              1 RES1               0.0000
     23 H23        149.1656 131.2387 150.3974 H              1 RES1               0.0000
     24 H24        145.4259 133.7700 147.5068 H              1 RES1               0.0000
     25 H25        145.7890 134.2292 149.1688 H              1 RES1               0.0000
     26 H26        146.9373 133.2559 148.2527 H              1 RES1               0.0000
     27 H27        143.4691 127.5515 149.9686 H              1 RES1               0.0000
     28 H28        143.7430 129.3468 153.8263 H              1 RES1               0.0000
     29 H29        142.9628 127.5095 152.3808 H              1 RES1               0.0000
@<TRIPOS>BOND
    1    1    2 1     
    2    1    3 1     
    3    1    4 1     
    4    1    5 1     
    5    2    6 ar    
    6    2    7 ar    
    7    3    8 1     
    8    3    9 2     
    9    4   10 1     
   10    4   11 2     
   11    5   12 1     
   12    5   18 1     
   13    5   19 1     
   14    6   13 ar    
   15    6   20 1     
   16    7   14 ar    
   17    7   21 1     
   18    8   15 1     
   19    8   22 1     
   20   10   15 1     
   21   10   23 1     
   22   12   24 1     
   23   12   25 1     
   24   12   26 1     
   25   13   16 ar    
   26   13   27 1     
   27   14   16 ar    
   28   14   28 1     
   29   15   17 2     
   30   16   29 1     
@<TRIPOS>SUBSTRUCTURE
      1 RES1           1
@<TRIPOS>SET
DONOR_HYDROGENS      STATIC     ATOMS    <user>   **** ""
2 22 23
ATOM$RED        STATIC     ATOMS    COLORGROUP SYSTEM
2 22 23
@<TRIPOS>COMMENT
> <Gold.Version>
2022.3.0

> <Gold.Id.Protein>
unknown|7rmh_cavity_clean|pdb

> <Gold.Protein.RotatedTorsions>
[ 4334 4326 4327 4328 ] final  168.68 input   45.76 | X-H torsion
[ 1444 1430 1431 1432 ] final -170.34 input   54.63 | X-H torsion
[ 4376 4367 4366 4364 ] final   99.86 input   59.97 | X-H torsion
[  415  400  401  402 ] final  -90.12 input   82.00 | X-H torsion
[  331  328  327  326 ] final  -76.93 input   59.97 | X-H torsion
[  388  379  378  376 ] final  -64.61 input   59.98 | X-H torsion
[  529  513  514  515 ] final  147.15 input  105.58 | X-H torsion
[  474  463  461  458 ] final -165.72 input   59.98 | X-H torsion
[  476  464  465  466 ] final  -57.24 input  115.28 | X-H torsion
[  482  470  468  465 ] final  115.38 input   59.99 | X-H torsion
[ 4698 4679 4680 4681 ] final   26.79 input   46.48 | X-H torsion
[ 3627 3618 3617 3615 ] final -138.16 input   60.02 | X-H torsion
[ 1139 1124 1125 1126 ] final   85.64 input   64.50 | X-H torsion
[ 3038 3033 3034 3035 ] final  108.95 input   60.01 | X-H torsion
[ 1489 1482 1480 1477 ] final  173.29 input   59.97 | X-H torsion
[ 3081 3072 3071 3069 ] final -170.70 input   59.99 | X-H torsion
[ 3113 3104 3103 3101 ] final  -49.86 input   60.00 | X-H torsion
[ 5109 5102 5100 5097 ] final  -75.06 input   60.01 | X-H torsion
[ 2099 2094 2093 2090 ] final -122.37 input   60.02 | X-H torsion
[ 4286 4281 4282 4283 ] final -100.72 input  108.09 | X-H torsion
[ 2038 2027 2028 2029 ] final  -34.67 input  103.58 | X-H torsion
[  246  231  232  233 ] final    2.16 input  105.30 | X-H torsion
[  279  266  267  268 ] final  149.26 input  114.84 | X-H torsion
[ 2069 2062 2060 2057 ] final  -74.16 input   60.00 | X-H torsion
[ 14711 4329 4328 4327 ] final  -69.34 input    0.00 | X-H torsion
[ 14722 1433 1432 1431 ] final  147.16 input   -0.00 | X-H torsion
[ 14743  403  402  401 ] final -164.06 input   -0.00 | X-H torsion
[ 14770  516  515  514 ] final  133.06 input    0.00 | X-H torsion
[ 14779  467  466  465 ] final  -35.66 input    0.00 | X-H torsion
[ 14790 4682 4681 4680 ] final  -92.33 input   -0.00 | X-H torsion
[ 14818 1127 1126 1125 ] final  -38.91 input   -0.00 | X-H torsion
[ 14891 4284 4283 4282 ] final -102.25 input    0.00 | X-H torsion
[ 14902 2030 2029 2028 ] final  112.98 input    0.00 | X-H torsion
[ 14907  234  233  232 ] final  178.86 input   -0.00 | X-H torsion
[ 14920  269  268  267 ] final   67.92 input    0.00 | X-H torsion

> <Gold.Protein.ActiveResidues>
 GLU27   LEU30   GLN31   ASP33   LYS34   GLN35   VAL36   TYR37   ARG38   THR40  
 HIS41   ARG42   ILE207  GLU209  HIS220  PHE222  CYS237  PHE238  ASN239  ASP240 
 VAL241  THR242  ARG280  TRP281  ARG283  THR284  ILE285  SER286  ARG356  HIS357 
 TYR358  TYR360  ASP381  ILE382  ILE383  GLN384  ARG385  MET386  HIS387  LEU388 
 ARG389  GLN390  TYR391  GLU392  LEU393  LEU394  ALA56   LYS57   ILE58   TYR59  
 ALA60   MET61   LEU79   ILE80   ILE81   TRP82   ILE93   VAL100  MET101  THR102 
 CYS103  CYS121  ASP312  ASN313  TRP332  ASP333  SER334  PHE335 

> <Gold.Protein.RotatedAtoms>
  121.3788  155.6281  186.1819 H   0  0  0  0  0  0  0  0  0  0  0  0  # atno 246  bound_to 231 
  110.4801  140.1307  101.3118 H   0  0  0  0  0  0  0  0  0  0  0  0  # atno 279  bound_to 266 
  148.9011  144.1649  145.5722 H   0  0  0  0  0  0  0  0  0  0  0  0  # atno 331  bound_to 328 
  150.0077  143.5995  146.6682 H   0  0  0  0  0  0  0  0  0  0  0  0  # atno 332  bound_to 328 
  149.4297  145.1465  146.7975 H   0  0  0  0  0  0  0  0  0  0  0  0  # atno 333  bound_to 328 
  150.7122  136.8828  153.9557 H   0  0  0  0  0  0  0  0  0  0  0  0  # atno 388  bound_to 379 
  136.5747  116.7066  184.2740 H   0  0  0  0  0  0  0  0  0  0  0  0  # atno 415  bound_to 400 
  157.4474  131.8998  151.3755 H   0  0  0  0  0  0  0  0  0  0  0  0  # atno 474  bound_to 463 
  118.2325  142.4411  114.0928 H   0  0  0  0  0  0  0  0  0  0  0  0  # atno 476  bound_to 464 
  114.6843  144.2087  113.3265 H   0  0  0  0  0  0  0  0  0  0  0  0  # atno 482  bound_to 470 
  120.6927  163.5485  165.5737 H   0  0  0  0  0  0  0  0  0  0  0  0  # atno 529  bound_to 513 
  138.6035  145.9757  188.8985 H   0  0  0  0  0  0  0  0  0  0  0  0  # atno 1139 bound_to 1124
  139.8725  160.6001  185.9382 H   0  0  0  0  0  0  0  0  0  0  0  0  # atno 1444 bound_to 1430
  149.7601  128.9741  150.5866 H   0  0  0  0  0  0  0  0  0  0  0  0  # atno 1489 bound_to 1482
  132.5605  162.5677  175.6600 H   0  0  0  0  0  0  0  0  0  0  0  0  # atno 2038 bound_to 2027
  139.1402  130.0333  153.1722 H   0  0  0  0  0  0  0  0  0  0  0  0  # atno 2069 bound_to 2062
  142.6305  124.1568  151.9908 H   0  0  0  0  0  0  0  0  0  0  0  0  # atno 2099 bound_to 2094
  133.1675  124.4569  151.5272 H   0  0  0  0  0  0  0  0  0  0  0  0  # atno 3038 bound_to 3033
  133.3701  125.1353  150.0281 H   0  0  0  0  0  0  0  0  0  0  0  0  # atno 3039 bound_to 3033
  134.4996  118.4457  147.1523 H   0  0  0  0  0  0  0  0  0  0  0  0  # atno 3081 bound_to 3072
  141.0891  120.5368  149.2098 H   0  0  0  0  0  0  0  0  0  0  0  0  # atno 3113 bound_to 3104
  143.9071  135.0097  136.3767 H   0  0  0  0  0  0  0  0  0  0  0  0  # atno 3627 bound_to 3618
  119.8360  119.5667  173.3742 H   0  0  0  0  0  0  0  0  0  0  0  0  # atno 4286 bound_to 4281
  123.6392  116.9153  172.4857 H   0  0  0  0  0  0  0  0  0  0  0  0  # atno 4334 bound_to 4326
  145.8765  139.2039  166.8596 H   0  0  0  0  0  0  0  0  0  0  0  0  # atno 4376 bound_to 4367
  123.4157  122.5479  187.0232 H   0  0  0  0  0  0  0  0  0  0  0  0  # atno 4698 bound_to 4679
  151.9344  148.0917  170.7777 H   0  0  0  0  0  0  0  0  0  0  0  0  # atno 5109 bound_to 5102
  124.9209  116.1856  171.5385 LP  0  0  0  0  0  0  0  0  0  0  0  0  # atno 14710 bound_to 4326
  125.2809  113.1841  172.7893 LP  0  0  0  0  0  0  0  0  0  0  0  0  # atno 14711 bound_to 4329
  126.2745  113.9176  171.5750 LP  0  0  0  0  0  0  0  0  0  0  0  0  # atno 14712 bound_to 4329
  138.7970  159.7859  184.8239 LP  0  0  0  0  0  0  0  0  0  0  0  0  # atno 14721 bound_to 1430
  135.7760  157.4530  187.0670 LP  0  0  0  0  0  0  0  0  0  0  0  0  # atno 14722 bound_to 1433
  137.0050  157.6627  188.2693 LP  0  0  0  0  0  0  0  0  0  0  0  0  # atno 14723 bound_to 1433
  144.5156  139.4190  165.9934 LP  0  0  0  0  0  0  0  0  0  0  0  0  # atno 14738 bound_to 4367
  144.7360  140.2367  167.3897 LP  0  0  0  0  0  0  0  0  0  0  0  0  # atno 14739 bound_to 4367
  136.9018  115.2921  183.2984 LP  0  0  0  0  0  0  0  0  0  0  0  0  # atno 14742 bound_to 400 
  140.6188  115.7634  184.6066 LP  0  0  0  0  0  0  0  0  0  0  0  0  # atno 14743 bound_to 403 
  139.1635  116.2897  183.8287 LP  0  0  0  0  0  0  0  0  0  0  0  0  # atno 14744 bound_to 403 
  149.8162  138.1411  153.4430 LP  0  0  0  0  0  0  0  0  0  0  0  0  # atno 14765 bound_to 379 
  150.9159  138.3490  154.6321 LP  0  0  0  0  0  0  0  0  0  0  0  0  # atno 14766 bound_to 379 
  122.2708  163.8316  166.2688 LP  0  0  0  0  0  0  0  0  0  0  0  0  # atno 14769 bound_to 513 
  124.7043  164.6472  164.4322 LP  0  0  0  0  0  0  0  0  0  0  0  0  # atno 14770 bound_to 516 
  123.3044  164.7366  163.4162 LP  0  0  0  0  0  0  0  0  0  0  0  0  # atno 14771 bound_to 516 
  157.4327  130.7669  150.2073 LP  0  0  0  0  0  0  0  0  0  0  0  0  # atno 14776 bound_to 463 
  156.0454  131.1857  150.9601 LP  0  0  0  0  0  0  0  0  0  0  0  0  # atno 14777 bound_to 463 
  116.6757  142.7585  113.3621 LP  0  0  0  0  0  0  0  0  0  0  0  0  # atno 14778 bound_to 464 
  118.1591  143.9672  117.6047 LP  0  0  0  0  0  0  0  0  0  0  0  0  # atno 14779 bound_to 467 
  117.0481  142.9937  118.5092 LP  0  0  0  0  0  0  0  0  0  0  0  0  # atno 14780 bound_to 467 
  116.2295  144.7169  113.3751 LP  0  0  0  0  0  0  0  0  0  0  0  0  # atno 14781 bound_to 470 
  115.0329  145.6782  113.9326 LP  0  0  0  0  0  0  0  0  0  0  0  0  # atno 14782 bound_to 470 
  122.6651  123.3261  185.6470 LP  0  0  0  0  0  0  0  0  0  0  0  0  # atno 14789 bound_to 4679
  125.5578  119.9446  186.8898 LP  0  0  0  0  0  0  0  0  0  0  0  0  # atno 14790 bound_to 4682
  124.2551  120.5001  187.8870 LP  0  0  0  0  0  0  0  0  0  0  0  0  # atno 14791 bound_to 4682
  144.4427  133.4755  136.4559 LP  0  0  0  0  0  0  0  0  0  0  0  0  # atno 14805 bound_to 3618
  144.1351  134.3080  137.8266 LP  0  0  0  0  0  0  0  0  0  0  0  0  # atno 14806 bound_to 3618
  138.0777  145.3213  190.4366 LP  0  0  0  0  0  0  0  0  0  0  0  0  # atno 14817 bound_to 1124
  137.3415  144.7416  186.7776 LP  0  0  0  0  0  0  0  0  0  0  0  0  # atno 14818 bound_to 1127
  137.0164  143.1126  187.2682 LP  0  0  0  0  0  0  0  0  0  0  0  0  # atno 14819 bound_to 1127
  134.4577  124.0389  150.5951 LP  0  0  0  0  0  0  0  0  0  0  0  0  # atno 14820 bound_to 3033
  149.1926  129.8602  151.8285 LP  0  0  0  0  0  0  0  0  0  0  0  0  # atno 14846 bound_to 1482
  148.2235  129.5107  150.5615 LP  0  0  0  0  0  0  0  0  0  0  0  0  # atno 14847 bound_to 1482
  134.6622  120.0341  146.8360 LP  0  0  0  0  0  0  0  0  0  0  0  0  # atno 14850 bound_to 3072
  133.6680  119.5344  148.0312 LP  0  0  0  0  0  0  0  0  0  0  0  0  # atno 14851 bound_to 3072
  141.4592  119.6274  147.9127 LP  0  0  0  0  0  0  0  0  0  0  0  0  # atno 14856 bound_to 3104
  142.4927  120.7831  148.4252 LP  0  0  0  0  0  0  0  0  0  0  0  0  # atno 14857 bound_to 3104
  150.9267  147.5385  171.9293 LP  0  0  0  0  0  0  0  0  0  0  0  0  # atno 14868 bound_to 5102
  150.3266  148.1281  170.5297 LP  0  0  0  0  0  0  0  0  0  0  0  0  # atno 14869 bound_to 5102
  143.5822  122.9283  152.4737 LP  0  0  0  0  0  0  0  0  0  0  0  0  # atno 14886 bound_to 2094
  143.5006  124.2983  153.3586 LP  0  0  0  0  0  0  0  0  0  0  0  0  # atno 14887 bound_to 2094
  120.6769  120.6860  172.3302 LP  0  0  0  0  0  0  0  0  0  0  0  0  # atno 14890 bound_to 4281
  121.2223  116.1967  171.2182 LP  0  0  0  0  0  0  0  0  0  0  0  0  # atno 14891 bound_to 4284
  120.7878  116.7696  169.6425 LP  0  0  0  0  0  0  0  0  0  0  0  0  # atno 14892 bound_to 4284
  132.4027  164.3026  175.5171 LP  0  0  0  0  0  0  0  0  0  0  0  0  # atno 14901 bound_to 2027
  128.5774  161.2622  173.8584 LP  0  0  0  0  0  0  0  0  0  0  0  0  # atno 14902 bound_to 2030
  129.1470  160.8386  175.4383 LP  0  0  0  0  0  0  0  0  0  0  0  0  # atno 14903 bound_to 2030
  122.8078  155.7690  187.1763 LP  0  0  0  0  0  0  0  0  0  0  0  0  # atno 14906 bound_to 231 
  120.8595  158.9702  183.4587 LP  0  0  0  0  0  0  0  0  0  0  0  0  # atno 14907 bound_to 234 
  122.0419  159.4782  184.6180 LP  0  0  0  0  0  0  0  0  0  0  0  0  # atno 14908 bound_to 234 
  110.3846  140.9354  102.8590 LP  0  0  0  0  0  0  0  0  0  0  0  0  # atno 14919 bound_to 266 
  114.5820  140.1423  104.1009 LP  0  0  0  0  0  0  0  0  0  0  0  0  # atno 14920 bound_to 269 
  113.4521  140.7432  105.2680 LP  0  0  0  0  0  0  0  0  0  0  0  0  # atno 14921 bound_to 269 
  137.7875  130.8371  152.7584 LP  0  0  0  0  0  0  0  0  0  0  0  0  # atno 14924 bound_to 2062
  137.7931  129.2044  152.7910 LP  0  0  0  0  0  0  0  0  0  0  0  0  # atno 14925 bound_to 2062

> <Gold.Score>
     Fitness  S(hb_ext) S(vdw_ext)  S(hb_int)    S(int)      intcor
     31.28       3.65      20.97       0.00      -1.21      -0.78

> <Gold.Goldscore.Fitness>
31.2841

> <Gold.Goldscore.Internal.Vdw>
-1.5115

> <Gold.Goldscore.Internal.Torsion>
-0.4798

> <Gold.Goldscore.External.Vdw>
20.9742

> <Gold.Goldscore.Internal.HBond>
0.0000

> <Gold.Goldscore.External.HBond>
3.6521

> <Gold.Goldscore.Internal.Correction>
-0.7838

> <Gold.Goldscore.Hbonds>
donor molecule, donor type, donor heavy atom, donor atom, acceptor molecule, acceptor atom, score
      P1  H   492   499       L1    11  0.17
      P1  H   502   535       L1    17  0.04
      P1  H   509   528       L1    17  0.22
      P1  H   512   521       L1    17  0.32
      L1  H     8    22       P1  1453  0.01

> <Gold.Goldscore.Internal.Vdw.Weighted>
-1.5115

> <Gold.Goldscore.Internal.Torsion.Weighted>
-0.4798

> <Gold.Goldscore.External.Vdw.Weighted>
28.8395

> <Gold.Goldscore.Internal.HBond.Weighted>
0.0000

> <Gold.Goldscore.External.HBond.Weighted>
3.6521

> <Gold.Goldscore.Internal.Correction.Weighted>
-0.7838

> <Gold.Rescore>
     Score     S(PLP)   S(hbond)     S(cho)   S(metal)  DE(clash)   DE(tors)     intcor
     28.07     -21.72       2.60       0.00       0.00       1.27       0.09       ----

> <Gold.PLP.Fitness>
28.0702

> <Gold.PLP.PLP>
-21.7155

> <Gold.PLP.part.hbond>
-5.3230

> <Gold.PLP.part.metal>
0.0000

> <Gold.PLP.part.buried>
3.3870

> <Gold.PLP.part.nonpolar>
-21.5265

> <Gold.PLP.part.repulsive>
0.5573

> <Gold.PLP.ligand.clash>
1.2722

> <Gold.PLP.ligand.torsion>
0.0860

> <Gold.PLP.Chemscore.Hbond>
2.5996

> <Gold.PLP.Chemscore.CHOScore>
0.0000

> <Gold.PLP.Chemscore.Metal>
0.0000

> <Gold.Chemscore.Hbonds>
donor molecule, donor type, donor heavy atom, donor atom, acceptor molecule, acceptor atom, score
      L1  H     8    22       P1  1453  0.24
      P1  H   509   528       L1    17  0.81
      P1  H   512   521       L1    17  0.91

> <Gold.PLP.Chemscore.Internal.Correction>
   9.000000E+99

