#       Name:                CT1002167954
#       Creating user name   hitesit
#       Creation time:       Sun Apr 16 20:30:24 2023


#       File generated by GOLD software.
#

@<TRIPOS>MOLECULE
CT1002167954|ligand_prepared|mol2|1|dock8
    29    30     1
SMALL
NO_CHARGES


@<TRIPOS>ATOM
      1 C1         140.4502 127.9688 150.7459 C.3            1 RES1               0.0000
      2 C2         141.4634 128.6898 151.6582 C.ar           1 RES1               0.0000
      3 C3         139.3184 127.4950 151.6529 C.2            1 RES1               0.0000
      4 C4         140.0210 128.9878 149.6961 C.2            1 RES1               0.0000
      5 C5         141.0357 126.7416 150.0092 C.3            1 RES1               0.0000
      6 C6         141.4258 130.0732 151.8046 C.ar           1 RES1               0.0000
      7 C7         142.4380 127.9860 152.3606 C.ar           1 RES1               0.0000
      8 N8         138.1337 128.1676 151.5889 N.am           1 RES1               0.0000
      9 O9         139.4754 126.5705 152.4409 O.2            1 RES1               0.0000
     10 N10        138.7160 129.4058 149.7027 N.am           1 RES1               0.0000
     11 O11        140.8051 129.4450 148.8737 O.2            1 RES1               0.0000
     12 C12        140.1131 126.1672 148.9457 C.3            1 RES1               0.0000
     13 C13        142.3278 130.7292 152.6258 C.ar           1 RES1               0.0000
     14 C14        143.3393 128.6440 153.1812 C.ar           1 RES1               0.0000
     15 C15        137.7604 129.0649 150.6209 C.2            1 RES1               0.0000
     16 C16        143.2848 130.0151 153.3149 C.ar           1 RES1               0.0000
     17 O17        136.6226 129.5249 150.5924 O.2            1 RES1               0.0000
     18 H18        141.9820 127.0320 149.5363 H              1 RES1               0.0000
     19 H19        141.2554 125.9591 150.7460 H              1 RES1               0.0000
     20 H20        140.6813 130.6522 151.2684 H              1 RES1               0.0000
     21 H21        142.5004 126.9069 152.2698 H              1 RES1               0.0000
     22 H22        137.4634 127.9867 152.3294 H              1 RES1               0.0000
     23 H23        138.4304 130.0285 148.9538 H              1 RES1               0.0000
     24 H24        140.5720 125.3086 148.4599 H              1 RES1               0.0000
     25 H25        139.1715 125.8447 149.3852 H              1 RES1               0.0000
     26 H26        139.8938 126.9112 148.1827 H              1 RES1               0.0000
     27 H27        142.2816 131.8085 152.7266 H              1 RES1               0.0000
     28 H28        144.0912 128.0780 153.7211 H              1 RES1               0.0000
     29 H29        143.9912 130.5291 153.9584 H              1 RES1               0.0000
@<TRIPOS>BOND
    1    1    2 1     
    2    1    3 1     
    3    1    4 1     
    4    1    5 1     
    5    2    6 ar    
    6    2    7 ar    
    7    3    8 1     
    8    3    9 2     
    9    4   10 1     
   10    4   11 2     
   11    5   12 1     
   12    5   18 1     
   13    5   19 1     
   14    6   13 ar    
   15    6   20 1     
   16    7   14 ar    
   17    7   21 1     
   18    8   15 1     
   19    8   22 1     
   20   10   15 1     
   21   10   23 1     
   22   12   24 1     
   23   12   25 1     
   24   12   26 1     
   25   13   16 ar    
   26   13   27 1     
   27   14   16 ar    
   28   14   28 1     
   29   15   17 2     
   30   16   29 1     
@<TRIPOS>SUBSTRUCTURE
      1 RES1           1
@<TRIPOS>SET
DONOR_HYDROGENS      STATIC     ATOMS    <user>   **** ""
2 22 23
ATOM$RED        STATIC     ATOMS    COLORGROUP SYSTEM
2 22 23
@<TRIPOS>COMMENT
> <Gold.Version>
2022.3.0

> <Gold.Id.Protein>
unknown|7rmh_cavity_clean|pdb

> <Gold.Protein.RotatedTorsions>
[ 4334 4326 4327 4328 ] final  -15.35 input   45.76 | X-H torsion
[ 1444 1430 1431 1432 ] final  115.58 input   54.63 | X-H torsion
[ 4376 4367 4366 4364 ] final   51.27 input   59.97 | X-H torsion
[  415  400  401  402 ] final  128.22 input   82.00 | X-H torsion
[  331  328  327  326 ] final  -81.79 input   59.97 | X-H torsion
[  388  379  378  376 ] final  -77.57 input   59.98 | X-H torsion
[  529  513  514  515 ] final -122.11 input  105.58 | X-H torsion
[  474  463  461  458 ] final  -94.57 input   59.98 | X-H torsion
[  476  464  465  466 ] final   -9.88 input  115.28 | X-H torsion
[  482  470  468  465 ] final -143.92 input   59.99 | X-H torsion
[ 4698 4679 4680 4681 ] final   11.16 input   46.48 | X-H torsion
[ 3627 3618 3617 3615 ] final -174.22 input   60.02 | X-H torsion
[ 1139 1124 1125 1126 ] final    8.58 input   64.50 | X-H torsion
[ 3038 3033 3034 3035 ] final  -45.05 input   60.01 | X-H torsion
[ 1489 1482 1480 1477 ] final   18.68 input   59.97 | X-H torsion
[ 3081 3072 3071 3069 ] final -100.57 input   59.99 | X-H torsion
[ 3113 3104 3103 3101 ] final -106.54 input   60.00 | X-H torsion
[ 5109 5102 5100 5097 ] final -168.05 input   60.01 | X-H torsion
[ 2099 2094 2093 2090 ] final  -70.22 input   60.02 | X-H torsion
[ 4286 4281 4282 4283 ] final   33.17 input  108.09 | X-H torsion
[ 2038 2027 2028 2029 ] final  128.59 input  103.58 | X-H torsion
[  246  231  232  233 ] final -151.51 input  105.30 | X-H torsion
[  279  266  267  268 ] final -100.71 input  114.84 | X-H torsion
[ 2069 2062 2060 2057 ] final  -97.95 input   60.00 | X-H torsion
[ 14711 4329 4328 4327 ] final  176.86 input    0.00 | X-H torsion
[ 14722 1433 1432 1431 ] final   36.34 input   -0.00 | X-H torsion
[ 14743  403  402  401 ] final -156.85 input   -0.00 | X-H torsion
[ 14770  516  515  514 ] final  110.27 input    0.00 | X-H torsion
[ 14779  467  466  465 ] final -114.80 input    0.00 | X-H torsion
[ 14790 4682 4681 4680 ] final  -20.23 input   -0.00 | X-H torsion
[ 14818 1127 1126 1125 ] final  -24.55 input   -0.00 | X-H torsion
[ 14891 4284 4283 4282 ] final   89.88 input    0.00 | X-H torsion
[ 14902 2030 2029 2028 ] final   97.67 input    0.00 | X-H torsion
[ 14907  234  233  232 ] final  -28.91 input   -0.00 | X-H torsion
[ 14920  269  268  267 ] final -137.41 input    0.00 | X-H torsion

> <Gold.Protein.ActiveResidues>
 GLU27   LEU30   GLN31   ASP33   LYS34   GLN35   VAL36   TYR37   ARG38   THR40  
 HIS41   ARG42   ILE207  GLU209  HIS220  PHE222  CYS237  PHE238  ASN239  ASP240 
 VAL241  THR242  ARG280  TRP281  ARG283  THR284  ILE285  SER286  ARG356  HIS357 
 TYR358  TYR360  ASP381  ILE382  ILE383  GLN384  ARG385  MET386  HIS387  LEU388 
 ARG389  GLN390  TYR391  GLU392  LEU393  LEU394  ALA56   LYS57   ILE58   TYR59  
 ALA60   MET61   LEU79   ILE80   ILE81   TRP82   ILE93   VAL100  MET101  THR102 
 CYS103  CYS121  ASP312  ASN313  TRP332  ASP333  SER334  PHE335 

> <Gold.Protein.RotatedAtoms>
  122.5566  156.0072  187.3734 H   0  0  0  0  0  0  0  0  0  0  0  0  # atno 246  bound_to 231 
  110.1224  139.9812  102.7042 H   0  0  0  0  0  0  0  0  0  0  0  0  # atno 279  bound_to 266 
  148.8748  144.2411  145.5813 H   0  0  0  0  0  0  0  0  0  0  0  0  # atno 331  bound_to 328 
  149.9799  143.5540  146.6071 H   0  0  0  0  0  0  0  0  0  0  0  0  # atno 332  bound_to 328 
  149.4838  145.1159  146.8495 H   0  0  0  0  0  0  0  0  0  0  0  0  # atno 333  bound_to 328 
  150.5650  136.8791  153.8042 H   0  0  0  0  0  0  0  0  0  0  0  0  # atno 388  bound_to 379 
  136.3742  115.2248  183.5171 H   0  0  0  0  0  0  0  0  0  0  0  0  # atno 415  bound_to 400 
  156.3754  131.7121  151.4265 H   0  0  0  0  0  0  0  0  0  0  0  0  # atno 474  bound_to 463 
  117.7403  141.9499  114.2441 H   0  0  0  0  0  0  0  0  0  0  0  0  # atno 476  bound_to 464 
  114.7572  145.5295  113.9002 H   0  0  0  0  0  0  0  0  0  0  0  0  # atno 482  bound_to 470 
  121.3917  162.9966  166.4617 H   0  0  0  0  0  0  0  0  0  0  0  0  # atno 529  bound_to 513 
  138.4389  144.9110  189.1792 H   0  0  0  0  0  0  0  0  0  0  0  0  # atno 1139 bound_to 1124
  138.9308  160.9555  185.5757 H   0  0  0  0  0  0  0  0  0  0  0  0  # atno 1444 bound_to 1430
  148.6655  129.9584  151.6700 H   0  0  0  0  0  0  0  0  0  0  0  0  # atno 1489 bound_to 1482
  132.4544  164.2699  175.2691 H   0  0  0  0  0  0  0  0  0  0  0  0  # atno 2038 bound_to 2027
  139.0627  130.4099  153.1423 H   0  0  0  0  0  0  0  0  0  0  0  0  # atno 2069 bound_to 2062
  142.8271  124.6371  152.6296 H   0  0  0  0  0  0  0  0  0  0  0  0  # atno 2099 bound_to 2094
  134.3960  124.3341  150.1282 H   0  0  0  0  0  0  0  0  0  0  0  0  # atno 3038 bound_to 3033
  133.6075  124.1138  151.5699 H   0  0  0  0  0  0  0  0  0  0  0  0  # atno 3039 bound_to 3033
  133.8171  118.7640  147.9211 H   0  0  0  0  0  0  0  0  0  0  0  0  # atno 3081 bound_to 3072
  140.8603  119.8836  148.6528 H   0  0  0  0  0  0  0  0  0  0  0  0  # atno 3113 bound_to 3104
  144.0592  134.5863  136.0117 H   0  0  0  0  0  0  0  0  0  0  0  0  # atno 3627 bound_to 3618
  121.1019  120.2215  172.5982 H   0  0  0  0  0  0  0  0  0  0  0  0  # atno 4286 bound_to 4281
  124.9935  116.2118  171.5549 H   0  0  0  0  0  0  0  0  0  0  0  0  # atno 4334 bound_to 4326
  145.5003  138.9931  166.2212 H   0  0  0  0  0  0  0  0  0  0  0  0  # atno 4376 bound_to 4367
  123.2001  122.4396  187.0378 H   0  0  0  0  0  0  0  0  0  0  0  0  # atno 4698 bound_to 4679
  151.3629  147.5716  171.8943 H   0  0  0  0  0  0  0  0  0  0  0  0  # atno 5109 bound_to 5102
  123.6214  116.8607  172.4316 LP  0  0  0  0  0  0  0  0  0  0  0  0  # atno 14710 bound_to 4326
  126.6045  113.2943  172.2053 LP  0  0  0  0  0  0  0  0  0  0  0  0  # atno 14711 bound_to 4329
  124.9509  113.8074  172.1590 LP  0  0  0  0  0  0  0  0  0  0  0  0  # atno 14712 bound_to 4329
  139.7106  159.4412  185.1755 LP  0  0  0  0  0  0  0  0  0  0  0  0  # atno 14721 bound_to 1430
  136.3165  158.3304  188.0524 LP  0  0  0  0  0  0  0  0  0  0  0  0  # atno 14722 bound_to 1433
  136.4646  156.7853  187.2839 LP  0  0  0  0  0  0  0  0  0  0  0  0  # atno 14723 bound_to 1433
  144.1987  139.9355  166.4778 LP  0  0  0  0  0  0  0  0  0  0  0  0  # atno 14738 bound_to 4367
  145.4318  139.9324  167.5483 LP  0  0  0  0  0  0  0  0  0  0  0  0  # atno 14739 bound_to 4367
  137.0966  116.7316  184.0338 LP  0  0  0  0  0  0  0  0  0  0  0  0  # atno 14742 bound_to 400 
  140.6081  115.6715  184.5492 LP  0  0  0  0  0  0  0  0  0  0  0  0  # atno 14743 bound_to 403 
  139.1743  116.3817  183.8861 LP  0  0  0  0  0  0  0  0  0  0  0  0  # atno 14744 bound_to 403 
  149.8595  138.3227  153.5449 LP  0  0  0  0  0  0  0  0  0  0  0  0  # atno 14765 bound_to 379 
  151.0209  138.1710  154.6828 LP  0  0  0  0  0  0  0  0  0  0  0  0  # atno 14766 bound_to 379 
  121.5875  164.3712  165.4007 LP  0  0  0  0  0  0  0  0  0  0  0  0  # atno 14769 bound_to 513 
  124.4616  164.7307  164.6586 LP  0  0  0  0  0  0  0  0  0  0  0  0  # atno 14770 bound_to 516 
  123.5471  164.6532  163.1897 LP  0  0  0  0  0  0  0  0  0  0  0  0  # atno 14771 bound_to 516 
  157.8919  131.5091  150.8722 LP  0  0  0  0  0  0  0  0  0  0  0  0  # atno 14776 bound_to 463 
  156.6656  130.6326  150.2439 LP  0  0  0  0  0  0  0  0  0  0  0  0  # atno 14777 bound_to 463 
  117.1548  143.2368  113.2148 LP  0  0  0  0  0  0  0  0  0  0  0  0  # atno 14778 bound_to 464 
  118.2944  142.9587  118.0314 LP  0  0  0  0  0  0  0  0  0  0  0  0  # atno 14779 bound_to 467 
  116.9129  144.0022  118.0825 LP  0  0  0  0  0  0  0  0  0  0  0  0  # atno 14780 bound_to 467 
  114.9436  144.0587  113.2292 LP  0  0  0  0  0  0  0  0  0  0  0  0  # atno 14781 bound_to 470 
  116.2454  145.0063  113.5007 LP  0  0  0  0  0  0  0  0  0  0  0  0  # atno 14782 bound_to 470 
  122.8738  123.4309  185.6328 LP  0  0  0  0  0  0  0  0  0  0  0  0  # atno 14789 bound_to 4679
  125.3182  120.9176  187.0767 LP  0  0  0  0  0  0  0  0  0  0  0  0  # atno 14790 bound_to 4682
  124.4948  119.5271  187.7000 LP  0  0  0  0  0  0  0  0  0  0  0  0  # atno 14791 bound_to 4682
  144.4661  133.3864  137.0322 LP  0  0  0  0  0  0  0  0  0  0  0  0  # atno 14805 bound_to 3618
  143.9584  134.8236  137.6180 LP  0  0  0  0  0  0  0  0  0  0  0  0  # atno 14806 bound_to 3618
  138.2358  146.3440  190.1670 LP  0  0  0  0  0  0  0  0  0  0  0  0  # atno 14817 bound_to 1124
  137.5024  144.7240  186.9213 LP  0  0  0  0  0  0  0  0  0  0  0  0  # atno 14818 bound_to 1127
  136.8555  143.1302  187.1246 LP  0  0  0  0  0  0  0  0  0  0  0  0  # atno 14819 bound_to 1127
  133.0141  125.1664  150.4535 LP  0  0  0  0  0  0  0  0  0  0  0  0  # atno 14820 bound_to 3033
  148.5594  129.2087  150.2291 LP  0  0  0  0  0  0  0  0  0  0  0  0  # atno 14846 bound_to 1482
  149.9583  129.1716  151.0706 LP  0  0  0  0  0  0  0  0  0  0  0  0  # atno 14847 bound_to 1482
  134.8592  118.9789  146.6894 LP  0  0  0  0  0  0  0  0  0  0  0  0  # atno 14850 bound_to 3072
  134.1582  120.2691  147.4038 LP  0  0  0  0  0  0  0  0  0  0  0  0  # atno 14851 bound_to 3072
  142.2380  120.0555  147.8047 LP  0  0  0  0  0  0  0  0  0  0  0  0  # atno 14856 bound_to 3104
  141.9445  121.0133  149.0944 LP  0  0  0  0  0  0  0  0  0  0  0  0  # atno 14857 bound_to 3104
  150.1413  147.9594  170.8919 LP  0  0  0  0  0  0  0  0  0  0  0  0  # atno 14868 bound_to 5102
  151.6875  148.2310  170.4426 LP  0  0  0  0  0  0  0  0  0  0  0  0  # atno 14869 bound_to 5102
  143.0511  123.2005  151.8986 LP  0  0  0  0  0  0  0  0  0  0  0  0  # atno 14886 bound_to 2094
  143.8336  123.5424  153.2905 LP  0  0  0  0  0  0  0  0  0  0  0  0  # atno 14887 bound_to 2094
  119.4359  120.0440  173.0910 LP  0  0  0  0  0  0  0  0  0  0  0  0  # atno 14890 bound_to 4281
  120.9680  116.7622  169.6114 LP  0  0  0  0  0  0  0  0  0  0  0  0  # atno 14891 bound_to 4284
  121.0421  116.2041  171.2494 LP  0  0  0  0  0  0  0  0  0  0  0  0  # atno 14892 bound_to 4284
  132.5062  162.6402  175.8988 LP  0  0  0  0  0  0  0  0  0  0  0  0  # atno 14901 bound_to 2027
  128.4861  161.4404  173.9728 LP  0  0  0  0  0  0  0  0  0  0  0  0  # atno 14902 bound_to 2030
  129.2384  160.6604  175.3239 LP  0  0  0  0  0  0  0  0  0  0  0  0  # atno 14903 bound_to 2030
  121.6533  155.3975  186.0085 LP  0  0  0  0  0  0  0  0  0  0  0  0  # atno 14906 bound_to 231 
  121.6839  159.4906  184.8287 LP  0  0  0  0  0  0  0  0  0  0  0  0  # atno 14907 bound_to 234 
  121.2176  158.9578  183.2480 LP  0  0  0  0  0  0  0  0  0  0  0  0  # atno 14908 bound_to 234 
  110.7351  141.0818  101.4943 LP  0  0  0  0  0  0  0  0  0  0  0  0  # atno 14919 bound_to 266 
  113.6778  141.0427  105.2088 LP  0  0  0  0  0  0  0  0  0  0  0  0  # atno 14920 bound_to 269 
  114.3563  139.8428  104.1600 LP  0  0  0  0  0  0  0  0  0  0  0  0  # atno 14921 bound_to 269 
  137.5108  130.5750  152.6822 LP  0  0  0  0  0  0  0  0  0  0  0  0  # atno 14924 bound_to 2062
  138.1479  129.0869  152.8973 LP  0  0  0  0  0  0  0  0  0  0  0  0  # atno 14925 bound_to 2062

> <Gold.Score>
     Fitness  S(hb_ext) S(vdw_ext)  S(hb_int)    S(int)      intcor
     32.70       0.00      24.40       0.00      -0.84      -0.76

> <Gold.Goldscore.Fitness>
32.6998

> <Gold.Goldscore.Internal.Vdw>
-1.0999

> <Gold.Goldscore.Internal.Torsion>
-0.5027

> <Gold.Goldscore.External.Vdw>
24.3956

> <Gold.Goldscore.Internal.HBond>
0.0000

> <Gold.Goldscore.External.HBond>
0.0000

> <Gold.Goldscore.Internal.Correction>
-0.7585

> <Gold.Goldscore.Internal.Vdw.Weighted>
-1.0999

> <Gold.Goldscore.Internal.Torsion.Weighted>
-0.5027

> <Gold.Goldscore.External.Vdw.Weighted>
33.5439

> <Gold.Goldscore.Internal.HBond.Weighted>
0.0000

> <Gold.Goldscore.External.HBond.Weighted>
0.0000

> <Gold.Goldscore.Internal.Correction.Weighted>
-0.7585

> <Gold.Rescore>
     Score     S(PLP)   S(hbond)     S(cho)   S(metal)  DE(clash)   DE(tors)     intcor
      5.86      -7.99       0.04       0.00       0.00       0.29       0.99       ----

> <Gold.PLP.Fitness>
5.8581

> <Gold.PLP.PLP>
-7.9945

> <Gold.PLP.part.hbond>
-3.9880

> <Gold.PLP.part.metal>
0.0000

> <Gold.PLP.part.buried>
9.9047

> <Gold.PLP.part.nonpolar>
-17.1008

> <Gold.PLP.part.repulsive>
3.6772

> <Gold.PLP.ligand.clash>
0.2913

> <Gold.PLP.ligand.torsion>
0.9893

> <Gold.PLP.Chemscore.Hbond>
0.0445

> <Gold.PLP.Chemscore.CHOScore>
0.0000

> <Gold.PLP.Chemscore.Metal>
0.0000

> <Gold.PLP.Chemscore.Internal.Correction>
   9.000000E+99

