#       Name:                CT1002167954
#       Creating user name   hitesit
#       Creation time:       Sun Apr 16 20:29:57 2023


#       File generated by GOLD software.
#

@<TRIPOS>MOLECULE
CT1002167954|ligand_prepared|mol2|1|dock6
    29    30     1
SMALL
NO_CHARGES


@<TRIPOS>ATOM
      1 C1         141.6482 127.8558 151.9472 C.3            1 RES1               0.0000
      2 C2         141.6069 129.2600 152.5837 C.ar           1 RES1               0.0000
      3 C3         141.4953 128.0625 150.4431 C.2            1 RES1               0.0000
      4 C4         142.9811 127.2401 152.3582 C.2            1 RES1               0.0000
      5 C5         140.5187 126.9169 152.4313 C.3            1 RES1               0.0000
      6 C6         142.7665 129.8467 153.0817 C.ar           1 RES1               0.0000
      7 C7         140.4195 129.9809 152.6774 C.ar           1 RES1               0.0000
      8 N8         142.6039 127.8960 149.6665 N.am           1 RES1               0.0000
      9 O9         140.4274 128.4049 149.9505 O.2            1 RES1               0.0000
     10 N10        143.9029 126.9898 151.3757 N.am           1 RES1               0.0000
     11 O11        143.2478 126.9848 153.5261 O.2            1 RES1               0.0000
     12 C12        140.5859 125.5193 151.8361 C.3            1 RES1               0.0000
     13 C13        142.7406 131.1094 153.6501 C.ar           1 RES1               0.0000
     14 C14        140.3957 131.2435 153.2465 C.ar           1 RES1               0.0000
     15 C15        143.7867 127.3183 150.0525 C.2            1 RES1               0.0000
     16 C16        141.5554 131.8088 153.7325 C.ar           1 RES1               0.0000
     17 O17        144.6820 127.1101 149.2387 O.2            1 RES1               0.0000
     18 H18        140.5693 126.8381 153.5243 H              1 RES1               0.0000
     19 H19        139.5516 127.3650 152.1718 H              1 RES1               0.0000
     20 H20        143.7081 129.3104 153.0278 H              1 RES1               0.0000
     21 H21        139.4947 129.5556 152.3026 H              1 RES1               0.0000
     22 H22        142.5485 128.2323 148.7104 H              1 RES1               0.0000
     23 H23        144.7547 126.5145 151.6567 H              1 RES1               0.0000
     24 H24        139.7712 124.9019 152.2086 H              1 RES1               0.0000
     25 H25        140.5130 125.5581 150.7512 H              1 RES1               0.0000
     26 H26        141.5246 125.0343 152.0956 H              1 RES1               0.0000
     27 H27        143.6558 131.5493 154.0324 H              1 RES1               0.0000
     28 H28        139.4605 131.7901 153.3098 H              1 RES1               0.0000
     29 H29        141.5354 132.7982 154.1775 H              1 RES1               0.0000
@<TRIPOS>BOND
    1    1    2 1     
    2    1    3 1     
    3    1    4 1     
    4    1    5 1     
    5    2    6 ar    
    6    2    7 ar    
    7    3    8 1     
    8    3    9 2     
    9    4   10 1     
   10    4   11 2     
   11    5   12 1     
   12    5   18 1     
   13    5   19 1     
   14    6   13 ar    
   15    6   20 1     
   16    7   14 ar    
   17    7   21 1     
   18    8   15 1     
   19    8   22 1     
   20   10   15 1     
   21   10   23 1     
   22   12   24 1     
   23   12   25 1     
   24   12   26 1     
   25   13   16 ar    
   26   13   27 1     
   27   14   16 ar    
   28   14   28 1     
   29   15   17 2     
   30   16   29 1     
@<TRIPOS>SUBSTRUCTURE
      1 RES1           1
@<TRIPOS>SET
DONOR_HYDROGENS      STATIC     ATOMS    <user>   **** ""
2 22 23
ATOM$RED        STATIC     ATOMS    COLORGROUP SYSTEM
2 22 23
@<TRIPOS>COMMENT
> <Gold.Version>
2022.3.0

> <Gold.Id.Protein>
unknown|7rmh_cavity_clean|pdb

> <Gold.Protein.RotatedTorsions>
[ 4334 4326 4327 4328 ] final  160.54 input   45.76 | X-H torsion
[ 1444 1430 1431 1432 ] final   15.92 input   54.63 | X-H torsion
[ 4376 4367 4366 4364 ] final   36.40 input   59.97 | X-H torsion
[  415  400  401  402 ] final  114.92 input   82.00 | X-H torsion
[  331  328  327  326 ] final  149.02 input   59.97 | X-H torsion
[  388  379  378  376 ] final  -92.95 input   59.98 | X-H torsion
[  529  513  514  515 ] final   11.66 input  105.58 | X-H torsion
[  474  463  461  458 ] final  -88.70 input   59.98 | X-H torsion
[  476  464  465  466 ] final -132.47 input  115.28 | X-H torsion
[  482  470  468  465 ] final   12.24 input   59.99 | X-H torsion
[ 4698 4679 4680 4681 ] final   61.97 input   46.48 | X-H torsion
[ 3627 3618 3617 3615 ] final    3.47 input   60.02 | X-H torsion
[ 1139 1124 1125 1126 ] final  -45.26 input   64.50 | X-H torsion
[ 3038 3033 3034 3035 ] final  -38.91 input   60.01 | X-H torsion
[ 1489 1482 1480 1477 ] final    8.41 input   59.97 | X-H torsion
[ 3081 3072 3071 3069 ] final  -56.87 input   59.99 | X-H torsion
[ 3113 3104 3103 3101 ] final   82.33 input   60.00 | X-H torsion
[ 5109 5102 5100 5097 ] final -155.73 input   60.01 | X-H torsion
[ 2099 2094 2093 2090 ] final  -60.98 input   60.02 | X-H torsion
[ 4286 4281 4282 4283 ] final -126.01 input  108.09 | X-H torsion
[ 2038 2027 2028 2029 ] final   49.73 input  103.58 | X-H torsion
[  246  231  232  233 ] final -132.68 input  105.30 | X-H torsion
[  279  266  267  268 ] final -169.59 input  114.84 | X-H torsion
[ 2069 2062 2060 2057 ] final   47.37 input   60.00 | X-H torsion
[ 14711 4329 4328 4327 ] final -158.28 input    0.00 | X-H torsion
[ 14722 1433 1432 1431 ] final    5.00 input   -0.00 | X-H torsion
[ 14743  403  402  401 ] final  134.46 input   -0.00 | X-H torsion
[ 14770  516  515  514 ] final  -12.07 input    0.00 | X-H torsion
[ 14779  467  466  465 ] final   44.85 input    0.00 | X-H torsion
[ 14790 4682 4681 4680 ] final  129.04 input   -0.00 | X-H torsion
[ 14818 1127 1126 1125 ] final  154.20 input   -0.00 | X-H torsion
[ 14891 4284 4283 4282 ] final -177.37 input    0.00 | X-H torsion
[ 14902 2030 2029 2028 ] final -179.19 input    0.00 | X-H torsion
[ 14907  234  233  232 ] final   37.18 input   -0.00 | X-H torsion
[ 14920  269  268  267 ] final -115.60 input    0.00 | X-H torsion

> <Gold.Protein.ActiveResidues>
 GLU27   LEU30   GLN31   ASP33   LYS34   GLN35   VAL36   TYR37   ARG38   THR40  
 HIS41   ARG42   ILE207  GLU209  HIS220  PHE222  CYS237  PHE238  ASN239  ASP240 
 VAL241  THR242  ARG280  TRP281  ARG283  THR284  ILE285  SER286  ARG356  HIS357 
 TYR358  TYR360  ASP381  ILE382  ILE383  GLN384  ARG385  MET386  HIS387  LEU388 
 ARG389  GLN390  TYR391  GLU392  LEU393  LEU394  ALA56   LYS57   ILE58   TYR59  
 ALA60   MET61   LEU79   ILE80   ILE81   TRP82   ILE93   VAL100  MET101  THR102 
 CYS103  CYS121  ASP312  ASN313  TRP332  ASP333  SER334  PHE335 

> <Gold.Protein.RotatedAtoms>
  122.3047  156.1395  187.4206 H   0  0  0  0  0  0  0  0  0  0  0  0  # atno 246  bound_to 231 
  110.2629  139.7443  101.7452 H   0  0  0  0  0  0  0  0  0  0  0  0  # atno 279  bound_to 266 
  149.5854  145.0420  146.9381 H   0  0  0  0  0  0  0  0  0  0  0  0  # atno 331  bound_to 328 
  148.8370  144.3857  145.6134 H   0  0  0  0  0  0  0  0  0  0  0  0  # atno 332  bound_to 328 
  149.9168  143.4828  146.4870 H   0  0  0  0  0  0  0  0  0  0  0  0  # atno 333  bound_to 328 
  150.3853  136.9348  153.6384 H   0  0  0  0  0  0  0  0  0  0  0  0  # atno 388  bound_to 379 
  136.5540  115.1992  183.4208 H   0  0  0  0  0  0  0  0  0  0  0  0  # atno 415  bound_to 400 
  156.3067  131.6585  151.3867 H   0  0  0  0  0  0  0  0  0  0  0  0  # atno 474  bound_to 463 
  117.9558  143.2778  113.4657 H   0  0  0  0  0  0  0  0  0  0  0  0  # atno 476  bound_to 464 
  116.1254  144.4784  113.2839 H   0  0  0  0  0  0  0  0  0  0  0  0  # atno 482  bound_to 470 
  122.1384  164.2795  165.7997 H   0  0  0  0  0  0  0  0  0  0  0  0  # atno 529  bound_to 513 
  138.1770  144.7996  189.9366 H   0  0  0  0  0  0  0  0  0  0  0  0  # atno 1139 bound_to 1124
  138.7149  159.8437  184.8277 H   0  0  0  0  0  0  0  0  0  0  0  0  # atno 1444 bound_to 1430
  148.5288  129.9540  151.5731 H   0  0  0  0  0  0  0  0  0  0  0  0  # atno 1489 bound_to 1482
  132.6763  163.3061  174.7367 H   0  0  0  0  0  0  0  0  0  0  0  0  # atno 2038 bound_to 2027
  137.7753  129.2232  152.7872 H   0  0  0  0  0  0  0  0  0  0  0  0  # atno 2069 bound_to 2062
  142.9044  124.6576  152.7574 H   0  0  0  0  0  0  0  0  0  0  0  0  # atno 2099 bound_to 2094
  134.4293  124.2698  150.2010 H   0  0  0  0  0  0  0  0  0  0  0  0  # atno 3038 bound_to 3033
  133.5217  124.1680  151.5847 H   0  0  0  0  0  0  0  0  0  0  0  0  # atno 3039 bound_to 3033
  133.6670  119.4337  148.0433 H   0  0  0  0  0  0  0  0  0  0  0  0  # atno 3081 bound_to 3072
  142.5148  120.6573  148.2720 H   0  0  0  0  0  0  0  0  0  0  0  0  # atno 3113 bound_to 3104
  144.2477  133.9785  137.7713 H   0  0  0  0  0  0  0  0  0  0  0  0  # atno 3627 bound_to 3618
  119.5525  119.7999  173.2545 H   0  0  0  0  0  0  0  0  0  0  0  0  # atno 4286 bound_to 4281
  123.5770  116.8059  172.4692 H   0  0  0  0  0  0  0  0  0  0  0  0  # atno 4334 bound_to 4326
  145.3036  139.0145  166.0812 H   0  0  0  0  0  0  0  0  0  0  0  0  # atno 4376 bound_to 4367
  123.7782  122.8811  186.8073 H   0  0  0  0  0  0  0  0  0  0  0  0  # atno 4698 bound_to 4679
  151.5452  147.6128  171.8206 H   0  0  0  0  0  0  0  0  0  0  0  0  # atno 5109 bound_to 5102
  124.9805  116.2905  171.5544 LP  0  0  0  0  0  0  0  0  0  0  0  0  # atno 14710 bound_to 4326
  126.4530  113.1020  172.4864 LP  0  0  0  0  0  0  0  0  0  0  0  0  # atno 14711 bound_to 4329
  125.1024  113.9997  171.8779 LP  0  0  0  0  0  0  0  0  0  0  0  0  # atno 14712 bound_to 4329
  139.9200  160.5198  185.9011 LP  0  0  0  0  0  0  0  0  0  0  0  0  # atno 14721 bound_to 1430
  136.6838  158.1233  188.2549 LP  0  0  0  0  0  0  0  0  0  0  0  0  # atno 14722 bound_to 1433
  136.0972  156.9924  187.0814 LP  0  0  0  0  0  0  0  0  0  0  0  0  # atno 14723 bound_to 1433
  144.2165  140.0649  166.6840 LP  0  0  0  0  0  0  0  0  0  0  0  0  # atno 14738 bound_to 4367
  145.6121  139.7814  167.4831 LP  0  0  0  0  0  0  0  0  0  0  0  0  # atno 14739 bound_to 4367
  136.9219  116.7564  184.1273 LP  0  0  0  0  0  0  0  0  0  0  0  0  # atno 14742 bound_to 400 
  140.2734  116.5592  184.7835 LP  0  0  0  0  0  0  0  0  0  0  0  0  # atno 14743 bound_to 403 
  139.5089  115.4940  183.6518 LP  0  0  0  0  0  0  0  0  0  0  0  0  # atno 14744 bound_to 403 
  149.9518  138.5025  153.6962 LP  0  0  0  0  0  0  0  0  0  0  0  0  # atno 14765 bound_to 379 
  151.1095  137.9352  154.6985 LP  0  0  0  0  0  0  0  0  0  0  0  0  # atno 14766 bound_to 379 
  120.8575  163.1169  166.0479 LP  0  0  0  0  0  0  0  0  0  0  0  0  # atno 14769 bound_to 513 
  123.1526  164.8465  163.9000 LP  0  0  0  0  0  0  0  0  0  0  0  0  # atno 14770 bound_to 516 
  124.8561  164.5373  163.9484 LP  0  0  0  0  0  0  0  0  0  0  0  0  # atno 14771 bound_to 516 
  157.8697  131.5716  150.9422 LP  0  0  0  0  0  0  0  0  0  0  0  0  # atno 14776 bound_to 463 
  156.7569  130.6240  150.2140 LP  0  0  0  0  0  0  0  0  0  0  0  0  # atno 14777 bound_to 463 
  116.9450  141.9438  113.9727 LP  0  0  0  0  0  0  0  0  0  0  0  0  # atno 14778 bound_to 464 
  117.1066  144.1768  117.9225 LP  0  0  0  0  0  0  0  0  0  0  0  0  # atno 14779 bound_to 467 
  118.1007  142.7841  118.1914 LP  0  0  0  0  0  0  0  0  0  0  0  0  # atno 14780 bound_to 467 
  115.3046  145.7290  113.9246 LP  0  0  0  0  0  0  0  0  0  0  0  0  # atno 14781 bound_to 470 
  114.5065  144.3944  113.4261 LP  0  0  0  0  0  0  0  0  0  0  0  0  # atno 14782 bound_to 470 
  122.3143  123.0037  185.8559 LP  0  0  0  0  0  0  0  0  0  0  0  0  # atno 14789 bound_to 4679
  124.2708  119.8886  187.8725 LP  0  0  0  0  0  0  0  0  0  0  0  0  # atno 14790 bound_to 4682
  125.5422  120.5562  186.9042 LP  0  0  0  0  0  0  0  0  0  0  0  0  # atno 14791 bound_to 4682
  143.8601  135.1405  136.7006 LP  0  0  0  0  0  0  0  0  0  0  0  0  # atno 14805 bound_to 3618
  144.3745  133.6819  136.1767 LP  0  0  0  0  0  0  0  0  0  0  0  0  # atno 14806 bound_to 3618
  138.4874  146.4510  189.4394 LP  0  0  0  0  0  0  0  0  0  0  0  0  # atno 14817 bound_to 1124
  136.8688  143.1267  187.1374 LP  0  0  0  0  0  0  0  0  0  0  0  0  # atno 14818 bound_to 1127
  137.4891  144.7275  186.9084 LP  0  0  0  0  0  0  0  0  0  0  0  0  # atno 14819 bound_to 1127
  133.0659  125.1762  150.3673 LP  0  0  0  0  0  0  0  0  0  0  0  0  # atno 14820 bound_to 3033
  148.7006  129.1310  150.1792 LP  0  0  0  0  0  0  0  0  0  0  0  0  # atno 14846 bound_to 1482
  149.9546  129.2538  151.2180 LP  0  0  0  0  0  0  0  0  0  0  0  0  # atno 14847 bound_to 1482
  134.5600  118.4760  147.0766 LP  0  0  0  0  0  0  0  0  0  0  0  0  # atno 14850 bound_to 3072
  134.6084  120.0979  146.8936 LP  0  0  0  0  0  0  0  0  0  0  0  0  # atno 14851 bound_to 3072
  141.2229  120.6758  149.2605 LP  0  0  0  0  0  0  0  0  0  0  0  0  # atno 14856 bound_to 3104
  141.2924  119.6133  148.0224 LP  0  0  0  0  0  0  0  0  0  0  0  0  # atno 14857 bound_to 3104
  150.1228  147.8773  171.0758 LP  0  0  0  0  0  0  0  0  0  0  0  0  # atno 14868 bound_to 5102
  151.5225  148.2717  170.3329 LP  0  0  0  0  0  0  0  0  0  0  0  0  # atno 14869 bound_to 5102
  142.9602  123.3103  151.8464 LP  0  0  0  0  0  0  0  0  0  0  0  0  # atno 14886 bound_to 2094
  143.8467  123.4119  153.2140 LP  0  0  0  0  0  0  0  0  0  0  0  0  # atno 14887 bound_to 2094
  120.9549  120.4573  172.4476 LP  0  0  0  0  0  0  0  0  0  0  0  0  # atno 14890 bound_to 4281
  121.8672  116.4047  170.4086 LP  0  0  0  0  0  0  0  0  0  0  0  0  # atno 14891 bound_to 4284
  120.1429  116.5616  170.4521 LP  0  0  0  0  0  0  0  0  0  0  0  0  # atno 14892 bound_to 4284
  132.2896  163.5814  176.4188 LP  0  0  0  0  0  0  0  0  0  0  0  0  # atno 14901 bound_to 2027
  129.1108  160.4787  174.0472 LP  0  0  0  0  0  0  0  0  0  0  0  0  # atno 14902 bound_to 2030
  128.6136  161.6221  175.2495 LP  0  0  0  0  0  0  0  0  0  0  0  0  # atno 14903 bound_to 2030
  121.9003  155.2677  185.9622 LP  0  0  0  0  0  0  0  0  0  0  0  0  # atno 14906 bound_to 231 
  122.3004  159.3680  184.1238 LP  0  0  0  0  0  0  0  0  0  0  0  0  # atno 14907 bound_to 234 
  120.6010  159.0804  183.9529 LP  0  0  0  0  0  0  0  0  0  0  0  0  # atno 14908 bound_to 234 
  110.5974  141.3141  102.4342 LP  0  0  0  0  0  0  0  0  0  0  0  0  # atno 14919 bound_to 266 
  113.4777  140.7897  105.2664 LP  0  0  0  0  0  0  0  0  0  0  0  0  # atno 14920 bound_to 269 
  114.5564  140.0958  104.1024 LP  0  0  0  0  0  0  0  0  0  0  0  0  # atno 14921 bound_to 269 
  139.1473  130.0082  153.1729 LP  0  0  0  0  0  0  0  0  0  0  0  0  # atno 14924 bound_to 2062
  137.8088  130.8497  152.7644 LP  0  0  0  0  0  0  0  0  0  0  0  0  # atno 14925 bound_to 2062

> <Gold.Score>
     Fitness  S(hb_ext) S(vdw_ext)  S(hb_int)    S(int)      intcor
     33.81       2.44      24.29       0.00      -2.02      -0.76

> <Gold.Goldscore.Fitness>
33.8143

> <Gold.Goldscore.Internal.Vdw>
-2.4076

> <Gold.Goldscore.Internal.Torsion>
-0.3725

> <Gold.Goldscore.External.Vdw>
24.2888

> <Gold.Goldscore.Internal.HBond>
0.0000

> <Gold.Goldscore.External.HBond>
2.4388

> <Gold.Goldscore.Internal.Correction>
-0.7585

> <Gold.Goldscore.Hbonds>
donor molecule, donor type, donor heavy atom, donor atom, acceptor molecule, acceptor atom, score
      P1  H  2089  2095       L1    11  0.90
      P1  H  2094  2099       L1    11  0.20
      L1  H    10    23       P1  1479  0.12

> <Gold.Goldscore.Internal.Vdw.Weighted>
-2.4076

> <Gold.Goldscore.Internal.Torsion.Weighted>
-0.3725

> <Gold.Goldscore.External.Vdw.Weighted>
33.3971

> <Gold.Goldscore.Internal.HBond.Weighted>
0.0000

> <Gold.Goldscore.External.HBond.Weighted>
2.4388

> <Gold.Goldscore.Internal.Correction.Weighted>
-0.7585

> <Gold.Rescore>
     Score     S(PLP)   S(hbond)     S(cho)   S(metal)  DE(clash)   DE(tors)     intcor
      7.80      -6.31       1.28       0.00       0.00       1.81       0.27       ----

> <Gold.PLP.Fitness>
7.7969

> <Gold.PLP.PLP>
-6.3102

> <Gold.PLP.part.hbond>
-1.2982

> <Gold.PLP.part.metal>
0.0000

> <Gold.PLP.part.buried>
19.7085

> <Gold.PLP.part.nonpolar>
-27.9700

> <Gold.PLP.part.repulsive>
1.9190

> <Gold.PLP.ligand.clash>
1.8089

> <Gold.PLP.ligand.torsion>
0.2746

> <Gold.PLP.Chemscore.Hbond>
1.2816

> <Gold.PLP.Chemscore.CHOScore>
0.0000

> <Gold.PLP.Chemscore.Metal>
0.0000

> <Gold.Chemscore.Hbonds>
donor molecule, donor type, donor heavy atom, donor atom, acceptor molecule, acceptor atom, score
      L1  H    10    23       P1  1479  0.66
      P1  H  2089  2095       L1    11  1.00
      P1  H  2094  2099       L1    11  0.01

> <Gold.PLP.Chemscore.Internal.Correction>
   9.000000E+99

