#       Name:                CT1002167954
#       Creating user name   hitesit
#       Creation time:       Sun Apr 16 20:29:31 2023


#       File generated by GOLD software.
#

@<TRIPOS>MOLECULE
CT1002167954|ligand_prepared|mol2|1|dock4
    29    30     1
SMALL
NO_CHARGES


@<TRIPOS>ATOM
      1 C1         146.6295 132.0078 150.0629 C.3            1 RES1               0.0000
      2 C2         145.5907 130.8894 150.2842 C.ar           1 RES1               0.0000
      3 C3         146.7839 132.7206 151.4032 C.2            1 RES1               0.0000
      4 C4         147.8994 131.3199 149.5742 C.2            1 RES1               0.0000
      5 C5         146.2101 133.0484 148.9986 C.3            1 RES1               0.0000
      6 C6         145.0282 130.2204 149.2013 C.ar           1 RES1               0.0000
      7 C7         145.1877 130.5146 151.5631 C.ar           1 RES1               0.0000
      8 N8         147.9260 132.4920 152.1125 N.am           1 RES1               0.0000
      9 O9         145.8996 133.4412 151.8492 O.2            1 RES1               0.0000
     10 N10        149.0043 131.3613 150.3837 N.am           1 RES1               0.0000
     11 O11        147.9484 130.7281 148.5029 O.2            1 RES1               0.0000
     12 C12        147.1508 134.2391 148.9011 C.3            1 RES1               0.0000
     13 C13        144.0988 129.2110 149.3901 C.ar           1 RES1               0.0000
     14 C14        144.2579 129.5051 151.7497 C.ar           1 RES1               0.0000
     15 C15        149.0661 131.8898 151.6444 C.2            1 RES1               0.0000
     16 C16        143.7133 128.8524 150.6642 C.ar           1 RES1               0.0000
     17 O17        150.0814 131.8405 152.3327 O.2            1 RES1               0.0000
     18 H18        146.1637 132.5541 148.0204 H              1 RES1               0.0000
     19 H19        145.2034 133.4126 149.2382 H              1 RES1               0.0000
     20 H20        145.3175 130.4905 148.1912 H              1 RES1               0.0000
     21 H21        145.6021 131.0149 152.4318 H              1 RES1               0.0000
     22 H22        147.9330 132.7969 153.0806 H              1 RES1               0.0000
     23 H23        149.8599 130.9612 150.0121 H              1 RES1               0.0000
     24 H24        146.8106 134.9382 148.1401 H              1 RES1               0.0000
     25 H25        147.2015 134.7693 149.8499 H              1 RES1               0.0000
     26 H26        148.1562 133.9159 148.6392 H              1 RES1               0.0000
     27 H27        143.6721 128.7014 148.5325 H              1 RES1               0.0000
     28 H28        143.9570 129.2266 152.7542 H              1 RES1               0.0000
     29 H29        142.9855 128.0615 150.8119 H              1 RES1               0.0000
@<TRIPOS>BOND
    1    1    2 1     
    2    1    3 1     
    3    1    4 1     
    4    1    5 1     
    5    2    6 ar    
    6    2    7 ar    
    7    3    8 1     
    8    3    9 2     
    9    4   10 1     
   10    4   11 2     
   11    5   12 1     
   12    5   18 1     
   13    5   19 1     
   14    6   13 ar    
   15    6   20 1     
   16    7   14 ar    
   17    7   21 1     
   18    8   15 1     
   19    8   22 1     
   20   10   15 1     
   21   10   23 1     
   22   12   24 1     
   23   12   25 1     
   24   12   26 1     
   25   13   16 ar    
   26   13   27 1     
   27   14   16 ar    
   28   14   28 1     
   29   15   17 2     
   30   16   29 1     
@<TRIPOS>SUBSTRUCTURE
      1 RES1           1
@<TRIPOS>SET
DONOR_HYDROGENS      STATIC     ATOMS    <user>   **** ""
2 22 23
ATOM$RED        STATIC     ATOMS    COLORGROUP SYSTEM
2 22 23
@<TRIPOS>COMMENT
> <Gold.Version>
2022.3.0

> <Gold.Id.Protein>
unknown|7rmh_cavity_clean|pdb

> <Gold.Protein.RotatedTorsions>
[ 4334 4326 4327 4328 ] final  -65.32 input   45.76 | X-H torsion
[ 1444 1430 1431 1432 ] final   60.29 input   54.63 | X-H torsion
[ 4376 4367 4366 4364 ] final  -10.29 input   59.97 | X-H torsion
[  415  400  401  402 ] final -119.08 input   82.00 | X-H torsion
[  331  328  327  326 ] final   14.52 input   59.97 | X-H torsion
[  388  379  378  376 ] final  -79.68 input   59.98 | X-H torsion
[  529  513  514  515 ] final -154.69 input  105.58 | X-H torsion
[  474  463  461  458 ] final   23.20 input   59.98 | X-H torsion
[  476  464  465  466 ] final  147.37 input  115.28 | X-H torsion
[  482  470  468  465 ] final  -13.30 input   59.99 | X-H torsion
[ 4698 4679 4680 4681 ] final  164.33 input   46.48 | X-H torsion
[ 3627 3618 3617 3615 ] final  -76.64 input   60.02 | X-H torsion
[ 1139 1124 1125 1126 ] final  107.74 input   64.50 | X-H torsion
[ 3038 3033 3034 3035 ] final   97.74 input   60.01 | X-H torsion
[ 1489 1482 1480 1477 ] final -158.84 input   59.97 | X-H torsion
[ 3081 3072 3071 3069 ] final  144.07 input   59.99 | X-H torsion
[ 3113 3104 3103 3101 ] final -162.42 input   60.00 | X-H torsion
[ 5109 5102 5100 5097 ] final -176.48 input   60.01 | X-H torsion
[ 2099 2094 2093 2090 ] final  -90.70 input   60.02 | X-H torsion
[ 4286 4281 4282 4283 ] final  -28.60 input  108.09 | X-H torsion
[ 2038 2027 2028 2029 ] final   20.27 input  103.58 | X-H torsion
[  246  231  232  233 ] final -179.12 input  105.30 | X-H torsion
[  279  266  267  268 ] final  -73.95 input  114.84 | X-H torsion
[ 2069 2062 2060 2057 ] final  -64.10 input   60.00 | X-H torsion
[ 14711 4329 4328 4327 ] final -128.43 input    0.00 | X-H torsion
[ 14722 1433 1432 1431 ] final -124.18 input   -0.00 | X-H torsion
[ 14743  403  402  401 ] final -169.24 input   -0.00 | X-H torsion
[ 14770  516  515  514 ] final  148.54 input    0.00 | X-H torsion
[ 14779  467  466  465 ] final  -82.09 input    0.00 | X-H torsion
[ 14790 4682 4681 4680 ] final -100.41 input   -0.00 | X-H torsion
[ 14818 1127 1126 1125 ] final   -4.88 input   -0.00 | X-H torsion
[ 14891 4284 4283 4282 ] final  -80.91 input    0.00 | X-H torsion
[ 14902 2030 2029 2028 ] final  108.95 input    0.00 | X-H torsion
[ 14907  234  233  232 ] final  135.55 input   -0.00 | X-H torsion
[ 14920  269  268  267 ] final  114.40 input    0.00 | X-H torsion

> <Gold.Protein.ActiveResidues>
 GLU27   LEU30   GLN31   ASP33   LYS34   GLN35   VAL36   TYR37   ARG38   THR40  
 HIS41   ARG42   ILE207  GLU209  HIS220  PHE222  CYS237  PHE238  ASN239  ASP240 
 VAL241  THR242  ARG280  TRP281  ARG283  THR284  ILE285  SER286  ARG356  HIS357 
 TYR358  TYR360  ASP381  ILE382  ILE383  GLN384  ARG385  MET386  HIS387  LEU388 
 ARG389  GLN390  TYR391  GLU392  LEU393  LEU394  ALA56   LYS57   ILE58   TYR59  
 ALA60   MET61   LEU79   ILE80   ILE81   TRP82   ILE93   VAL100  MET101  THR102 
 CYS103  CYS121  ASP312  ASN313  TRP332  ASP333  SER334  PHE335 

> <Gold.Protein.RotatedAtoms>
  122.8315  155.7583  187.1740 H   0  0  0  0  0  0  0  0  0  0  0  0  # atno 246  bound_to 231 
  110.1833  140.3267  102.9130 H   0  0  0  0  0  0  0  0  0  0  0  0  # atno 279  bound_to 266 
  149.7933  143.4137  146.2907 H   0  0  0  0  0  0  0  0  0  0  0  0  # atno 331  bound_to 328 
  149.7371  144.8880  147.0449 H   0  0  0  0  0  0  0  0  0  0  0  0  # atno 332  bound_to 328 
  148.8083  144.6085  145.7020 H   0  0  0  0  0  0  0  0  0  0  0  0  # atno 333  bound_to 328 
  150.5403  136.8829  153.7802 H   0  0  0  0  0  0  0  0  0  0  0  0  # atno 388  bound_to 379 
  136.2045  116.4637  184.3031 H   0  0  0  0  0  0  0  0  0  0  0  0  # atno 415  bound_to 400 
  156.6336  130.6442  150.2591 H   0  0  0  0  0  0  0  0  0  0  0  0  # atno 474  bound_to 463 
  116.8584  143.0608  113.2409 H   0  0  0  0  0  0  0  0  0  0  0  0  # atno 476  bound_to 464 
  116.2434  144.8462  113.4326 H   0  0  0  0  0  0  0  0  0  0  0  0  # atno 482  bound_to 470 
  120.9765  163.0245  166.1922 H   0  0  0  0  0  0  0  0  0  0  0  0  # atno 529  bound_to 513 
  138.5612  146.2627  189.0809 H   0  0  0  0  0  0  0  0  0  0  0  0  # atno 1139 bound_to 1124
  138.5378  160.4478  185.0589 H   0  0  0  0  0  0  0  0  0  0  0  0  # atno 1444 bound_to 1430
  149.4189  128.9352  150.2939 H   0  0  0  0  0  0  0  0  0  0  0  0  # atno 1489 bound_to 1482
  132.6818  162.8972  174.9237 H   0  0  0  0  0  0  0  0  0  0  0  0  # atno 2038 bound_to 2027
  139.1270  129.8697  153.1714 H   0  0  0  0  0  0  0  0  0  0  0  0  # atno 2069 bound_to 2062
  142.6959  124.5153  152.3490 H   0  0  0  0  0  0  0  0  0  0  0  0  # atno 2099 bound_to 2094
  133.3002  124.3342  151.5750 H   0  0  0  0  0  0  0  0  0  0  0  0  # atno 3038 bound_to 3033
  133.2301  125.1721  150.1461 H   0  0  0  0  0  0  0  0  0  0  0  0  # atno 3039 bound_to 3033
  134.8389  118.9125  146.7212 H   0  0  0  0  0  0  0  0  0  0  0  0  # atno 3081 bound_to 3072
  141.3593  119.6188  147.9821 H   0  0  0  0  0  0  0  0  0  0  0  0  # atno 3113 bound_to 3104
  143.8842  135.0397  137.3332 H   0  0  0  0  0  0  0  0  0  0  0  0  # atno 3627 bound_to 3618
  120.8524  119.5595  173.1629 H   0  0  0  0  0  0  0  0  0  0  0  0  # atno 4286 bound_to 4281
  125.0820  116.9179  171.8086 H   0  0  0  0  0  0  0  0  0  0  0  0  # atno 4334 bound_to 4326
  144.6402  139.3229  165.9570 H   0  0  0  0  0  0  0  0  0  0  0  0  # atno 4376 bound_to 4367
  123.2644  123.5290  185.6953 H   0  0  0  0  0  0  0  0  0  0  0  0  # atno 4698 bound_to 4679
  151.2297  147.5525  171.9233 H   0  0  0  0  0  0  0  0  0  0  0  0  # atno 5109 bound_to 5102
  123.5365  116.1831  172.1882 LP  0  0  0  0  0  0  0  0  0  0  0  0  # atno 14710 bound_to 4326
  126.1099  112.9831  172.7455 LP  0  0  0  0  0  0  0  0  0  0  0  0  # atno 14711 bound_to 4329
  125.4455  114.1186  171.6189 LP  0  0  0  0  0  0  0  0  0  0  0  0  # atno 14712 bound_to 4329
  140.0918  159.9337  185.6769 LP  0  0  0  0  0  0  0  0  0  0  0  0  # atno 14721 bound_to 1430
  136.6889  156.7690  187.4715 LP  0  0  0  0  0  0  0  0  0  0  0  0  # atno 14722 bound_to 1433
  136.0921  158.3467  187.8647 LP  0  0  0  0  0  0  0  0  0  0  0  0  # atno 14723 bound_to 1433
  144.6058  140.2492  167.2946 LP  0  0  0  0  0  0  0  0  0  0  0  0  # atno 14738 bound_to 4367
  145.8910  139.2866  166.9975 LP  0  0  0  0  0  0  0  0  0  0  0  0  # atno 14739 bound_to 4367
  137.2614  115.5280  183.2702 LP  0  0  0  0  0  0  0  0  0  0  0  0  # atno 14742 bound_to 400 
  140.6194  115.8321  184.6441 LP  0  0  0  0  0  0  0  0  0  0  0  0  # atno 14743 bound_to 403 
  139.1629  116.2210  183.7912 LP  0  0  0  0  0  0  0  0  0  0  0  0  # atno 14744 bound_to 403 
  149.8697  138.3501  153.5640 LP  0  0  0  0  0  0  0  0  0  0  0  0  # atno 14765 bound_to 379 
  151.0355  138.1398  154.6879 LP  0  0  0  0  0  0  0  0  0  0  0  0  # atno 14766 bound_to 379 
  121.9934  164.3439  165.6642 LP  0  0  0  0  0  0  0  0  0  0  0  0  # atno 14769 bound_to 513 
  124.8084  164.5938  164.2304 LP  0  0  0  0  0  0  0  0  0  0  0  0  # atno 14770 bound_to 516 
  123.2002  164.7900  163.6179 LP  0  0  0  0  0  0  0  0  0  0  0  0  # atno 14771 bound_to 516 
  156.3997  131.7324  151.4461 LP  0  0  0  0  0  0  0  0  0  0  0  0  # atno 14776 bound_to 463 
  157.8978  131.4845  150.8453 LP  0  0  0  0  0  0  0  0  0  0  0  0  # atno 14777 bound_to 463 
  118.0135  142.1551  114.1916 LP  0  0  0  0  0  0  0  0  0  0  0  0  # atno 14778 bound_to 464 
  118.4189  143.3634  117.7893 LP  0  0  0  0  0  0  0  0  0  0  0  0  # atno 14779 bound_to 467 
  116.7884  143.5975  118.3247 LP  0  0  0  0  0  0  0  0  0  0  0  0  # atno 14780 bound_to 467 
  114.9012  145.6243  113.9236 LP  0  0  0  0  0  0  0  0  0  0  0  0  # atno 14781 bound_to 470 
  114.7910  144.1288  113.2772 LP  0  0  0  0  0  0  0  0  0  0  0  0  # atno 14782 bound_to 470 
  122.8116  122.3766  186.9321 LP  0  0  0  0  0  0  0  0  0  0  0  0  # atno 14789 bound_to 4679
  125.5202  119.8322  186.9181 LP  0  0  0  0  0  0  0  0  0  0  0  0  # atno 14790 bound_to 4682
  124.2928  120.6125  187.8586 LP  0  0  0  0  0  0  0  0  0  0  0  0  # atno 14791 bound_to 4682
  144.1803  134.2488  135.9427 LP  0  0  0  0  0  0  0  0  0  0  0  0  # atno 14805 bound_to 3618
  144.4206  133.5044  137.3761 LP  0  0  0  0  0  0  0  0  0  0  0  0  # atno 14806 bound_to 3618
  138.1184  145.0457  190.2614 LP  0  0  0  0  0  0  0  0  0  0  0  0  # atno 14817 bound_to 1124
  137.6883  144.6198  187.1265 LP  0  0  0  0  0  0  0  0  0  0  0  0  # atno 14818 bound_to 1127
  136.6697  143.2344  186.9193 LP  0  0  0  0  0  0  0  0  0  0  0  0  # atno 14819 bound_to 1127
  134.4651  124.1235  150.4318 LP  0  0  0  0  0  0  0  0  0  0  0  0  # atno 14820 bound_to 3033
  149.5934  129.6672  151.7372 LP  0  0  0  0  0  0  0  0  0  0  0  0  # atno 14846 bound_to 1482
  148.1660  129.7429  150.9475 LP  0  0  0  0  0  0  0  0  0  0  0  0  # atno 14847 bound_to 1482
  134.2074  120.2763  147.3460 LP  0  0  0  0  0  0  0  0  0  0  0  0  # atno 14850 bound_to 3072
  133.7813  118.8223  147.9551 LP  0  0  0  0  0  0  0  0  0  0  0  0  # atno 14851 bound_to 3072
  142.5139  120.7111  148.3288 LP  0  0  0  0  0  0  0  0  0  0  0  0  # atno 14856 bound_to 3104
  141.1658  120.6245  149.2462 LP  0  0  0  0  0  0  0  0  0  0  0  0  # atno 14857 bound_to 3104
  150.1785  148.0148  170.7704 LP  0  0  0  0  0  0  0  0  0  0  0  0  # atno 14868 bound_to 5102
  151.7844  148.1949  170.5349 LP  0  0  0  0  0  0  0  0  0  0  0  0  # atno 14869 bound_to 5102
  143.2663  123.0156  152.0771 LP  0  0  0  0  0  0  0  0  0  0  0  0  # atno 14886 bound_to 2094
  143.7505  123.8500  153.3946 LP  0  0  0  0  0  0  0  0  0  0  0  0  # atno 14887 bound_to 2094
  119.6804  120.6931  172.5373 LP  0  0  0  0  0  0  0  0  0  0  0  0  # atno 14890 bound_to 4281
  120.9037  116.2182  171.2486 LP  0  0  0  0  0  0  0  0  0  0  0  0  # atno 14891 bound_to 4284
  121.1064  116.7482  169.6121 LP  0  0  0  0  0  0  0  0  0  0  0  0  # atno 14892 bound_to 4284
  132.2842  163.9808  176.2362 LP  0  0  0  0  0  0  0  0  0  0  0  0  # atno 14901 bound_to 2027
  128.5511  161.3112  173.8833 LP  0  0  0  0  0  0  0  0  0  0  0  0  # atno 14902 bound_to 2030
  129.1734  160.7896  175.4133 LP  0  0  0  0  0  0  0  0  0  0  0  0  # atno 14903 bound_to 2030
  121.3839  155.6414  186.2039 LP  0  0  0  0  0  0  0  0  0  0  0  0  # atno 14906 bound_to 231 
  121.4474  158.9781  183.2081 LP  0  0  0  0  0  0  0  0  0  0  0  0  # atno 14907 bound_to 234 
  121.4540  159.4704  184.8687 LP  0  0  0  0  0  0  0  0  0  0  0  0  # atno 14908 bound_to 234 
  110.6754  140.7433  101.2897 LP  0  0  0  0  0  0  0  0  0  0  0  0  # atno 14919 bound_to 266 
  114.6968  140.7925  104.2774 LP  0  0  0  0  0  0  0  0  0  0  0  0  # atno 14920 bound_to 269 
  113.3373  140.0930  105.0914 LP  0  0  0  0  0  0  0  0  0  0  0  0  # atno 14921 bound_to 269 
  137.9311  130.9082  152.7992 LP  0  0  0  0  0  0  0  0  0  0  0  0  # atno 14924 bound_to 2062
  137.6629  129.2981  152.7510 LP  0  0  0  0  0  0  0  0  0  0  0  0  # atno 14925 bound_to 2062

> <Gold.Score>
     Fitness  S(hb_ext) S(vdw_ext)  S(hb_int)    S(int)      intcor
     31.40       2.72      21.87       0.00      -1.39      -0.76

> <Gold.Goldscore.Fitness>
31.4048

> <Gold.Goldscore.Internal.Vdw>
-1.6935

> <Gold.Goldscore.Internal.Torsion>
-0.4504

> <Gold.Goldscore.External.Vdw>
21.8712

> <Gold.Goldscore.Internal.HBond>
0.0000

> <Gold.Goldscore.External.HBond>
2.7172

> <Gold.Goldscore.Internal.Correction>
-0.7585

> <Gold.Goldscore.Hbonds>
donor molecule, donor type, donor heavy atom, donor atom, acceptor molecule, acceptor atom, score
      P1  H   492   499       L1    11  0.19
      P1  H   502   535       L1    17  0.95
      L1  H     8    22       P1  1453  0.22

> <Gold.Goldscore.Internal.Vdw.Weighted>
-1.6935

> <Gold.Goldscore.Internal.Torsion.Weighted>
-0.4504

> <Gold.Goldscore.External.Vdw.Weighted>
30.0729

> <Gold.Goldscore.Internal.HBond.Weighted>
0.0000

> <Gold.Goldscore.External.HBond.Weighted>
2.7172

> <Gold.Goldscore.Internal.Correction.Weighted>
-0.7585

> <Gold.Rescore>
     Score     S(PLP)   S(hbond)     S(cho)   S(metal)  DE(clash)   DE(tors)     intcor
     28.91     -21.00       3.12       0.00       0.00       1.38       0.04       ----

> <Gold.PLP.Fitness>
28.9101

> <Gold.PLP.PLP>
-21.0030

> <Gold.PLP.part.hbond>
-5.3609

> <Gold.PLP.part.metal>
0.0000

> <Gold.PLP.part.buried>
5.9681

> <Gold.PLP.part.nonpolar>
-23.5438

> <Gold.PLP.part.repulsive>
0.6791

> <Gold.PLP.ligand.clash>
1.3777

> <Gold.PLP.ligand.torsion>
0.0430

> <Gold.PLP.Chemscore.Hbond>
3.1236

> <Gold.PLP.Chemscore.CHOScore>
0.0000

> <Gold.PLP.Chemscore.Metal>
0.0000

> <Gold.Chemscore.Hbonds>
donor molecule, donor type, donor heavy atom, donor atom, acceptor molecule, acceptor atom, score
      L1  H     8    22       P1  1453  0.10
      P1  H   492   499       L1    11  0.14
      P1  H   502   535       L1    17  1.00
      P1  H   509   528       L1    17  0.28
      P1  H   512   521       L1    17  0.02

> <Gold.PLP.Chemscore.Internal.Correction>
   9.000000E+99

