#       Name:                CT1002167954
#       Creating user name   hitesit
#       Creation time:       Sun Apr 16 02:21:16 2023


#       File generated by GOLD software.
#

@<TRIPOS>MOLECULE
CT1002167954|ligand_prepared|mol2|1|dock6
    29    30     1
SMALL
NO_CHARGES


@<TRIPOS>ATOM
      1 C1          17.8120   3.3241   7.3612 C.3            1 RES1               0.0000
      2 C2          16.4254   3.8404   6.9261 C.ar           1 RES1               0.0000
      3 C3          18.6523   4.5600   7.6687 C.2            1 RES1               0.0000
      4 C4          17.5720   2.4197   8.5650 C.2            1 RES1               0.0000
      5 C5          18.5380   2.4938   6.2771 C.3            1 RES1               0.0000
      6 C6          15.6098   4.5230   7.8237 C.ar           1 RES1               0.0000
      7 C7          15.9500   3.6445   5.6322 C.ar           1 RES1               0.0000
      8 N8          18.9045   4.8427   8.9788 N.am           1 RES1               0.0000
      9 O9          19.0542   5.2975   6.7771 O.2            1 RES1               0.0000
     10 N10         18.0719   2.8180   9.7772 N.am           1 RES1               0.0000
     11 O11         16.9403   1.3739   8.4781 O.2            1 RES1               0.0000
     12 C12         19.8786   1.9355   6.7278 C.3            1 RES1               0.0000
     13 C13         14.3653   4.9953   7.4408 C.ar           1 RES1               0.0000
     14 C14         14.7051   4.1174   5.2514 C.ar           1 RES1               0.0000
     15 C15         18.7007   4.0035  10.0446 C.2            1 RES1               0.0000
     16 C16         13.9123   4.7932   6.1545 C.ar           1 RES1               0.0000
     17 O17         19.0736   4.3142  11.1723 O.2            1 RES1               0.0000
     18 H18         17.8907   1.6601   5.9785 H              1 RES1               0.0000
     19 H19         18.6975   3.1268   5.3955 H              1 RES1               0.0000
     20 H20         15.9483   4.6893   8.8409 H              1 RES1               0.0000
     21 H21         16.5561   3.1147   4.9052 H              1 RES1               0.0000
     22 H22         19.2792   5.7632   9.1852 H              1 RES1               0.0000
     23 H23         17.9654   2.1708  10.5518 H              1 RES1               0.0000
     24 H24         20.3453   1.3617   5.9299 H              1 RES1               0.0000
     25 H25         20.5564   2.7391   7.0084 H              1 RES1               0.0000
     26 H26         19.7543   1.2810   7.5880 H              1 RES1               0.0000
     27 H27         13.7446   5.5253   8.1557 H              1 RES1               0.0000
     28 H28         14.3524   3.9556   4.2382 H              1 RES1               0.0000
     29 H29         12.9376   5.1636   5.8547 H              1 RES1               0.0000
@<TRIPOS>BOND
    1    1    2 1     
    2    1    3 1     
    3    1    4 1     
    4    1    5 1     
    5    2    6 ar    
    6    2    7 ar    
    7    3    8 1     
    8    3    9 2     
    9    4   10 1     
   10    4   11 2     
   11    5   12 1     
   12    5   18 1     
   13    5   19 1     
   14    6   13 ar    
   15    6   20 1     
   16    7   14 ar    
   17    7   21 1     
   18    8   15 1     
   19    8   22 1     
   20   10   15 1     
   21   10   23 1     
   22   12   24 1     
   23   12   25 1     
   24   12   26 1     
   25   13   16 ar    
   26   13   27 1     
   27   14   16 ar    
   28   14   28 1     
   29   15   17 2     
   30   16   29 1     
@<TRIPOS>SUBSTRUCTURE
      1 RES1           1
@<TRIPOS>SET
DONOR_HYDROGENS      STATIC     ATOMS    <user>   **** ""
2 22 23
ATOM$RED        STATIC     ATOMS    COLORGROUP SYSTEM
2 22 23
@<TRIPOS>COMMENT
> <Gold.Version>
2022.3.0

> <Gold.Id.Protein>
unknown|4d5m_clean|pdb

> <Gold.Protein.RotatedTorsions>
[  410  374  373  371 ] final -165.10 input   60.01 | X-H torsion
[   57   38   37   33 ] final   22.36 input   59.98 | X-H torsion
[  833  808  809  810 ] final  166.22 input  -84.33 | X-H torsion
[  854  754  753  752 ] final -153.01 input    0.00 | X-H torsion
[  859  811  810  809 ] final   44.28 input    0.00 | X-H torsion

> <Gold.Protein.ActiveResidues>
 PCA1    TYR5    DTR6    ARG8    PRO9    GLY10   NH211  

> <Gold.Protein.RotatedAtoms>
   17.8910    7.9121   16.1490 H   0  0  0  0  0  0  0  0  0  0  0  0  # atno 57   bound_to 38  
   18.8690    0.8597   11.9772 H   0  0  0  0  0  0  0  0  0  0  0  0  # atno 410  bound_to 374 
   15.4217    2.6180   12.2165 H   0  0  0  0  0  0  0  0  0  0  0  0  # atno 833  bound_to 808 
   17.6805    1.9350   11.6956 LP  0  0  0  0  0  0  0  0  0  0  0  0  # atno 852  bound_to 374 
   18.1265    0.8825   10.5294 LP  0  0  0  0  0  0  0  0  0  0  0  0  # atno 853  bound_to 374 
   16.5963    4.4211   11.1041 LP  0  0  0  0  0  0  0  0  0  0  0  0  # atno 854  bound_to 754 
   15.0929    5.1702   10.6815 LP  0  0  0  0  0  0  0  0  0  0  0  0  # atno 855  bound_to 754 
   19.2830    7.3418   15.5277 LP  0  0  0  0  0  0  0  0  0  0  0  0  # atno 856  bound_to 38  
   18.3009    8.2754   14.6163 LP  0  0  0  0  0  0  0  0  0  0  0  0  # atno 857  bound_to 38  
   14.8030    3.4964   13.6009 LP  0  0  0  0  0  0  0  0  0  0  0  0  # atno 858  bound_to 808 
   19.0124    4.6743   14.5201 LP  0  0  0  0  0  0  0  0  0  0  0  0  # atno 859  bound_to 811 
   18.2669    4.7604   16.0811 LP  0  0  0  0  0  0  0  0  0  0  0  0  # atno 860  bound_to 811 

> <Gold.Score>
     Fitness  S(hb_ext) S(vdw_ext)  S(hb_int)    S(int)      intcor
     23.39       1.92      15.62       0.00      -0.01      -0.76

> <Gold.Goldscore.Fitness>
23.3873

> <Gold.Goldscore.Internal.Vdw>
-0.3977

> <Gold.Goldscore.Internal.Torsion>
-0.3762

> <Gold.Goldscore.External.Vdw>
15.6222

> <Gold.Goldscore.Internal.HBond>
0.0000

> <Gold.Goldscore.External.HBond>
1.9157

> <Gold.Goldscore.Internal.Correction>
-0.7650

> <Gold.Goldscore.Hbonds>
donor molecule, donor type, donor heavy atom, donor atom, acceptor molecule, acceptor atom, score
      L1  H    10    23       P1   374  0.96

> <Gold.Goldscore.Internal.Vdw.Weighted>
-0.3977

> <Gold.Goldscore.Internal.Torsion.Weighted>
-0.3762

> <Gold.Goldscore.External.Vdw.Weighted>
21.4805

> <Gold.Goldscore.Internal.HBond.Weighted>
0.0000

> <Gold.Goldscore.External.HBond.Weighted>
1.9157

> <Gold.Goldscore.Internal.Correction.Weighted>
-0.7650

> <Gold.Rescore>
     Score     S(PLP)   S(hbond)     S(cho)   S(metal)  DE(clash)   DE(tors)     intcor
     29.14     -23.38       2.00       0.00       0.00       0.00       0.12       ----

> <Gold.PLP.Fitness>
29.1375

> <Gold.PLP.PLP>
-23.3817

> <Gold.PLP.part.hbond>
-3.0000

> <Gold.PLP.part.metal>
0.0000

> <Gold.PLP.part.buried>
-3.6820

> <Gold.PLP.part.nonpolar>
-16.8723

> <Gold.PLP.part.repulsive>
0.2193

> <Gold.PLP.ligand.clash>
0.0000

> <Gold.PLP.ligand.torsion>
0.1221

> <Gold.PLP.Chemscore.Hbond>
2.0000

> <Gold.PLP.Chemscore.CHOScore>
0.0000

> <Gold.PLP.Chemscore.Metal>
0.0000

> <Gold.Chemscore.Hbonds>
donor molecule, donor type, donor heavy atom, donor atom, acceptor molecule, acceptor atom, score
      L1  H    10    23       P1   374  0.78
      P1  H   671   699       L1     9  0.03

> <Gold.PLP.Chemscore.Internal.Correction>
   9.000000E+99

