#       Name:                CT1002167954
#       Creating user name   hitesit
#       Creation time:       Sun Apr 16 02:21:13 2023


#       File generated by GOLD software.
#

@<TRIPOS>MOLECULE
CT1002167954|ligand_prepared|mol2|1|dock1
    29    30     1
SMALL
NO_CHARGES


@<TRIPOS>ATOM
      1 C1          15.4150   0.5332   6.7479 C.3            1 RES1               0.0000
      2 C2          15.1535   1.9868   7.1921 C.ar           1 RES1               0.0000
      3 C3          16.9229   0.3204   6.8439 C.2            1 RES1               0.0000
      4 C4          14.6008  -0.3522   7.6849 C.2            1 RES1               0.0000
      5 C5          14.9679   0.2328   5.2983 C.3            1 RES1               0.0000
      6 C6          14.0687   2.6977   6.6877 C.ar           1 RES1               0.0000
      7 C7          15.9854   2.6283   8.1059 C.ar           1 RES1               0.0000
      8 N8          17.3890  -0.4427   7.8736 N.am           1 RES1               0.0000
      9 O9          17.6942   0.8468   6.0513 O.2            1 RES1               0.0000
     10 N10         15.2813  -1.1868   8.5323 N.am           1 RES1               0.0000
     11 O11         13.3766  -0.3224   7.7088 O.2            1 RES1               0.0000
     12 C12         15.5015  -1.0821   4.7520 C.3            1 RES1               0.0000
     13 C13         13.8225   4.0016   7.0846 C.ar           1 RES1               0.0000
     14 C14         15.7376   3.9324   8.5014 C.ar           1 RES1               0.0000
     15 C15         16.6390  -1.2499   8.6907 C.2            1 RES1               0.0000
     16 C16         14.6564   4.6197   7.9919 C.ar           1 RES1               0.0000
     17 O17         17.1750  -1.9875   9.5127 O.2            1 RES1               0.0000
     18 H18         13.8716   0.2104   5.2643 H              1 RES1               0.0000
     19 H19         15.3068   1.0487   4.6480 H              1 RES1               0.0000
     20 H20         13.4029   2.2287   5.9709 H              1 RES1               0.0000
     21 H21         16.8426   2.1075   8.5190 H              1 RES1               0.0000
     22 H22         18.3876  -0.4101   8.0528 H              1 RES1               0.0000
     23 H23         14.7242  -1.8199   9.0972 H              1 RES1               0.0000
     24 H24         15.1582  -1.2439   3.7324 H              1 RES1               0.0000
     25 H25         16.5895  -1.0848   4.7477 H              1 RES1               0.0000
     26 H26         15.1629  -1.9182   5.3604 H              1 RES1               0.0000
     27 H27         12.9711   4.5386   6.6797 H              1 RES1               0.0000
     28 H28         16.3969   4.4151   9.2152 H              1 RES1               0.0000
     29 H29         14.4632   5.6410   8.3030 H              1 RES1               0.0000
@<TRIPOS>BOND
    1    1    2 1     
    2    1    3 1     
    3    1    4 1     
    4    1    5 1     
    5    2    6 ar    
    6    2    7 ar    
    7    3    8 1     
    8    3    9 2     
    9    4   10 1     
   10    4   11 2     
   11    5   12 1     
   12    5   18 1     
   13    5   19 1     
   14    6   13 ar    
   15    6   20 1     
   16    7   14 ar    
   17    7   21 1     
   18    8   15 1     
   19    8   22 1     
   20   10   15 1     
   21   10   23 1     
   22   12   24 1     
   23   12   25 1     
   24   12   26 1     
   25   13   16 ar    
   26   13   27 1     
   27   14   16 ar    
   28   14   28 1     
   29   15   17 2     
   30   16   29 1     
@<TRIPOS>SUBSTRUCTURE
      1 RES1           1
@<TRIPOS>SET
DONOR_HYDROGENS      STATIC     ATOMS    <user>   **** ""
2 22 23
ATOM$RED        STATIC     ATOMS    COLORGROUP SYSTEM
2 22 23
@<TRIPOS>COMMENT
> <Gold.Version>
2022.3.0

> <Gold.Id.Protein>
unknown|4d5m_clean|pdb

> <Gold.Protein.RotatedTorsions>
[  410  374  373  371 ] final  -14.28 input   60.01 | X-H torsion
[   57   38   37   33 ] final   81.01 input   59.98 | X-H torsion
[  833  808  809  810 ] final  118.32 input  -84.33 | X-H torsion
[  854  754  753  752 ] final  138.22 input    0.00 | X-H torsion
[  859  811  810  809 ] final   88.91 input    0.00 | X-H torsion

> <Gold.Protein.ActiveResidues>
 PCA1    TYR5    DTR6    ARG8    PRO9    GLY10   NH211  

> <Gold.Protein.RotatedAtoms>
   17.6980    8.3371   15.3591 H   0  0  0  0  0  0  0  0  0  0  0  0  # atno 57   bound_to 38  
   17.7881    1.2471   10.5750 H   0  0  0  0  0  0  0  0  0  0  0  0  # atno 410  bound_to 374 
   15.3264    3.3267   12.0967 H   0  0  0  0  0  0  0  0  0  0  0  0  # atno 833  bound_to 808 
   18.9158    0.5996   11.5534 LP  0  0  0  0  0  0  0  0  0  0  0  0  # atno 852  bound_to 374 
   17.9792    1.8279   12.0831 LP  0  0  0  0  0  0  0  0  0  0  0  0  # atno 853  bound_to 374 
   16.2158    5.1950   11.5657 LP  0  0  0  0  0  0  0  0  0  0  0  0  # atno 854  bound_to 754 
   15.4734    4.3962   10.2200 LP  0  0  0  0  0  0  0  0  0  0  0  0  # atno 855  bound_to 754 
   18.6977    7.4020   16.2395 LP  0  0  0  0  0  0  0  0  0  0  0  0  # atno 856  bound_to 38  
   19.0806    7.7874   14.6995 LP  0  0  0  0  0  0  0  0  0  0  0  0  # atno 857  bound_to 38  
   14.8947    2.8146   13.7161 LP  0  0  0  0  0  0  0  0  0  0  0  0  # atno 858  bound_to 808 
   18.8448    5.2890   14.6832 LP  0  0  0  0  0  0  0  0  0  0  0  0  # atno 859  bound_to 811 
   18.4344    4.1458   15.9179 LP  0  0  0  0  0  0  0  0  0  0  0  0  # atno 860  bound_to 811 

> <Gold.Score>
     Fitness  S(hb_ext) S(vdw_ext)  S(hb_int)    S(int)      intcor
     24.94       0.00      18.68       0.00      -0.74      -0.80

> <Gold.Goldscore.Fitness>
24.9445

> <Gold.Goldscore.Internal.Vdw>
-0.9000

> <Gold.Goldscore.Internal.Torsion>
-0.6431

> <Gold.Goldscore.External.Vdw>
18.6813

> <Gold.Goldscore.Internal.HBond>
0.0000

> <Gold.Goldscore.External.HBond>
0.0000

> <Gold.Goldscore.Internal.Correction>
-0.8007

> <Gold.Goldscore.Internal.Vdw.Weighted>
-0.9000

> <Gold.Goldscore.Internal.Torsion.Weighted>
-0.6431

> <Gold.Goldscore.External.Vdw.Weighted>
25.6868

> <Gold.Goldscore.Internal.HBond.Weighted>
0.0000

> <Gold.Goldscore.External.HBond.Weighted>
0.0000

> <Gold.Goldscore.Internal.Correction.Weighted>
-0.8007

> <Gold.Rescore>
     Score     S(PLP)   S(hbond)     S(cho)   S(metal)  DE(clash)   DE(tors)     intcor
     21.75     -23.85       0.00       0.00       0.00       0.00       1.05       ----

> <Gold.PLP.Fitness>
21.7492

> <Gold.PLP.PLP>
-23.8547

> <Gold.PLP.part.hbond>
0.0000

> <Gold.PLP.part.metal>
0.0000

> <Gold.PLP.part.buried>
-2.5655

> <Gold.PLP.part.nonpolar>
-21.2266

> <Gold.PLP.part.repulsive>
0.0542

> <Gold.PLP.ligand.clash>
0.0000

> <Gold.PLP.ligand.torsion>
1.0528

> <Gold.PLP.Chemscore.Hbond>
0.0000

> <Gold.PLP.Chemscore.CHOScore>
0.0000

> <Gold.PLP.Chemscore.Metal>
0.0000

> <Gold.PLP.Chemscore.Internal.Correction>
   9.000000E+99

