#       Name:                CT1002167954
#       Creating user name   hitesit
#       Creation time:       Sun Apr 16 02:21:14 2023


#       File generated by GOLD software.
#

@<TRIPOS>MOLECULE
CT1002167954|ligand_prepared|mol2|1|dock3
    29    30     1
SMALL
NO_CHARGES


@<TRIPOS>ATOM
      1 C1          17.8670   3.2130   7.2260 C.3            1 RES1               0.0000
      2 C2          16.4421   3.6952   6.8853 C.ar           1 RES1               0.0000
      3 C3          18.6700   4.4626   7.5754 C.2            1 RES1               0.0000
      4 C4          17.7193   2.2259   8.3785 C.2            1 RES1               0.0000
      5 C5          18.5753   2.4840   6.0604 C.3            1 RES1               0.0000
      6 C6          15.8298   3.3120   5.6958 C.ar           1 RES1               0.0000
      7 C7          15.7277   4.5198   7.7503 C.ar           1 RES1               0.0000
      8 N8          18.9705   4.6737   8.8888 N.am           1 RES1               0.0000
      9 O9          19.0005   5.2707   6.7164 O.2            1 RES1               0.0000
     10 N10         18.2578   2.5692   9.5910 N.am           1 RES1               0.0000
     11 O11         17.1269   1.1613   8.2522 O.2            1 RES1               0.0000
     12 C12         20.0229   2.1221   6.3530 C.3            1 RES1               0.0000
     13 C13         14.5486   3.7353   5.3836 C.ar           1 RES1               0.0000
     14 C14         14.4466   4.9422   7.4360 C.ar           1 RES1               0.0000
     15 C15         18.8499   3.7617   9.9064 C.2            1 RES1               0.0000
     16 C16         13.8560   4.5502   6.2535 C.ar           1 RES1               0.0000
     17 O17         19.2613   4.0175  11.0345 O.2            1 RES1               0.0000
     18 H18         18.0214   1.5657   5.8297 H              1 RES1               0.0000
     19 H19         18.5447   3.1263   5.1716 H              1 RES1               0.0000
     20 H20         16.3603   2.6730   4.9977 H              1 RES1               0.0000
     21 H21         16.1728   4.8416   8.6857 H              1 RES1               0.0000
     22 H22         19.3169   5.5949   9.1374 H              1 RES1               0.0000
     23 H23         18.2132   1.8710  10.3264 H              1 RES1               0.0000
     24 H24         20.4725   1.6129   5.5031 H              1 RES1               0.0000
     25 H25         20.6090   3.0146   6.5621 H              1 RES1               0.0000
     26 H26         20.0888   1.4632   7.2164 H              1 RES1               0.0000
     27 H27         14.0888   3.4252   4.4510 H              1 RES1               0.0000
     28 H28         13.9054   5.5840   8.1234 H              1 RES1               0.0000
     29 H29         12.8522   4.8814   6.0089 H              1 RES1               0.0000
@<TRIPOS>BOND
    1    1    2 1     
    2    1    3 1     
    3    1    4 1     
    4    1    5 1     
    5    2    6 ar    
    6    2    7 ar    
    7    3    8 1     
    8    3    9 2     
    9    4   10 1     
   10    4   11 2     
   11    5   12 1     
   12    5   18 1     
   13    5   19 1     
   14    6   13 ar    
   15    6   20 1     
   16    7   14 ar    
   17    7   21 1     
   18    8   15 1     
   19    8   22 1     
   20   10   15 1     
   21   10   23 1     
   22   12   24 1     
   23   12   25 1     
   24   12   26 1     
   25   13   16 ar    
   26   13   27 1     
   27   14   16 ar    
   28   14   28 1     
   29   15   17 2     
   30   16   29 1     
@<TRIPOS>SUBSTRUCTURE
      1 RES1           1
@<TRIPOS>SET
DONOR_HYDROGENS      STATIC     ATOMS    <user>   **** ""
2 22 23
ATOM$RED        STATIC     ATOMS    COLORGROUP SYSTEM
2 22 23
@<TRIPOS>COMMENT
> <Gold.Version>
2022.3.0

> <Gold.Id.Protein>
unknown|4d5m_clean|pdb

> <Gold.Protein.RotatedTorsions>
[  410  374  373  371 ] final  155.93 input   60.01 | X-H torsion
[   57   38   37   33 ] final    4.06 input   59.98 | X-H torsion
[  833  808  809  810 ] final  111.53 input  -84.33 | X-H torsion
[  854  754  753  752 ] final  -12.86 input    0.00 | X-H torsion
[  859  811  810  809 ] final  -49.95 input    0.00 | X-H torsion

> <Gold.Protein.ActiveResidues>
 PCA1    TYR5    DTR6    ARG8    PRO9    GLY10   NH211  

> <Gold.Protein.RotatedAtoms>
   18.0982    7.7406   16.2769 H   0  0  0  0  0  0  0  0  0  0  0  0  # atno 57   bound_to 38  
   18.5650    1.3201   12.2699 H   0  0  0  0  0  0  0  0  0  0  0  0  # atno 410  bound_to 374 
   15.2989    3.4242   12.1270 H   0  0  0  0  0  0  0  0  0  0  0  0  # atno 833  bound_to 808 
   17.5302    1.7857   11.1035 LP  0  0  0  0  0  0  0  0  0  0  0  0  # atno 852  bound_to 374 
   18.5828    0.5683   10.8268 LP  0  0  0  0  0  0  0  0  0  0  0  0  # atno 853  bound_to 374 
   15.1994    4.7155   10.3207 LP  0  0  0  0  0  0  0  0  0  0  0  0  # atno 854  bound_to 754 
   16.4898    4.8758   11.4649 LP  0  0  0  0  0  0  0  0  0  0  0  0  # atno 855  bound_to 754 
   19.3182    7.4333   15.2444 LP  0  0  0  0  0  0  0  0  0  0  0  0  # atno 856  bound_to 38  
   18.0572    8.3565   14.7709 LP  0  0  0  0  0  0  0  0  0  0  0  0  # atno 857  bound_to 38  
   14.9211    2.7208   13.6870 LP  0  0  0  0  0  0  0  0  0  0  0  0  # atno 858  bound_to 808 
   18.6973    3.8656   15.4460 LP  0  0  0  0  0  0  0  0  0  0  0  0  # atno 859  bound_to 811 
   18.5819    5.5691   15.1551 LP  0  0  0  0  0  0  0  0  0  0  0  0  # atno 860  bound_to 811 

> <Gold.Score>
     Fitness  S(hb_ext) S(vdw_ext)  S(hb_int)    S(int)      intcor
     21.57       2.00      14.78       0.00      -0.76      -0.76

> <Gold.Goldscore.Fitness>
21.5693

> <Gold.Goldscore.Internal.Vdw>
-1.1064

> <Gold.Goldscore.Internal.Torsion>
-0.4151

> <Gold.Goldscore.External.Vdw>
14.7825

> <Gold.Goldscore.Internal.HBond>
0.0000

> <Gold.Goldscore.External.HBond>
2.0000

> <Gold.Goldscore.Internal.Correction>
-0.7650

> <Gold.Goldscore.Hbonds>
donor molecule, donor type, donor heavy atom, donor atom, acceptor molecule, acceptor atom, score
      L1  H    10    23       P1   374  1.00

> <Gold.Goldscore.Internal.Vdw.Weighted>
-1.1064

> <Gold.Goldscore.Internal.Torsion.Weighted>
-0.4151

> <Gold.Goldscore.External.Vdw.Weighted>
20.3260

> <Gold.Goldscore.Internal.HBond.Weighted>
0.0000

> <Gold.Goldscore.External.HBond.Weighted>
2.0000

> <Gold.Goldscore.Internal.Correction.Weighted>
-0.7650

> <Gold.Rescore>
     Score     S(PLP)   S(hbond)     S(cho)   S(metal)  DE(clash)   DE(tors)     intcor
     29.43     -23.50       1.99       0.00       0.00       0.00       0.02       ----

> <Gold.PLP.Fitness>
29.4264

> <Gold.PLP.PLP>
-23.4984

> <Gold.PLP.part.hbond>
-3.0000

> <Gold.PLP.part.metal>
0.0000

> <Gold.PLP.part.buried>
-3.8758

> <Gold.PLP.part.nonpolar>
-17.5924

> <Gold.PLP.part.repulsive>
0.2308

> <Gold.PLP.ligand.clash>
0.0000

> <Gold.PLP.ligand.torsion>
0.0240

> <Gold.PLP.Chemscore.Hbond>
1.9920

> <Gold.PLP.Chemscore.CHOScore>
0.0000

> <Gold.PLP.Chemscore.Metal>
0.0000

> <Gold.Chemscore.Hbonds>
donor molecule, donor type, donor heavy atom, donor atom, acceptor molecule, acceptor atom, score
      L1  H    10    23       P1   374  0.71
      P1  H   671   699       L1     9  0.11

> <Gold.PLP.Chemscore.Internal.Correction>
   9.000000E+99

