#       Name:                CT1002167954
#       Creating user name   hitesit
#       Creation time:       Sun Apr 16 02:21:19 2023


#       File generated by GOLD software.
#

@<TRIPOS>MOLECULE
CT1002167954|ligand_prepared|mol2|1|dock10
    29    30     1
SMALL
NO_CHARGES


@<TRIPOS>ATOM
      1 C1          14.3336   5.4187   4.1152 C.3            1 RES1               0.0000
      2 C2          14.9396   5.0407   5.4822 C.ar           1 RES1               0.0000
      3 C3          13.3137   4.3332   3.7838 C.2            1 RES1               0.0000
      4 C4          13.7299   6.8083   4.2858 C.2            1 RES1               0.0000
      5 C5          15.3699   5.4854   2.9693 C.3            1 RES1               0.0000
      6 C6          14.2717   5.3499   6.6633 C.ar           1 RES1               0.0000
      7 C7          16.1622   4.3814   5.5779 C.ar           1 RES1               0.0000
      8 N8          11.9925   4.6533   3.8920 N.am           1 RES1               0.0000
      9 O9          13.6636   3.2019   3.4705 O.2            1 RES1               0.0000
     10 N10         12.3694   6.9346   4.1815 N.am           1 RES1               0.0000
     11 O11         14.4185   7.7924   4.5261 O.2            1 RES1               0.0000
     12 C12         14.8231   6.0823   1.6821 C.3            1 RES1               0.0000
     13 C13         14.8051   5.0098   7.8954 C.ar           1 RES1               0.0000
     14 C14         16.6940   4.0424   6.8111 C.ar           1 RES1               0.0000
     15 C15         11.4705   5.9151   4.0228 C.2            1 RES1               0.0000
     16 C16         16.0163   4.3555   7.9702 C.ar           1 RES1               0.0000
     17 O17         10.2576   6.1021   3.9925 O.2            1 RES1               0.0000
     18 H18         16.2255   6.0861   3.3016 H              1 RES1               0.0000
     19 H19         15.7327   4.4711   2.7619 H              1 RES1               0.0000
     20 H20         13.3186   5.8668   6.6244 H              1 RES1               0.0000
     21 H21         16.7135   4.1260   4.6794 H              1 RES1               0.0000
     22 H22         11.3313   3.8833   3.8741 H              1 RES1               0.0000
     23 H23         11.9917   7.8757   4.2260 H              1 RES1               0.0000
     24 H24         15.5906   6.1057   0.9113 H              1 RES1               0.0000
     25 H25         13.9864   5.4950   1.3095 H              1 RES1               0.0000
     26 H26         14.4763   7.1005   1.8460 H              1 RES1               0.0000
     27 H27         14.2685   5.2597   8.8047 H              1 RES1               0.0000
     28 H28         17.6478   3.5280   6.8652 H              1 RES1               0.0000
     29 H29         16.4338   4.0888   8.9354 H              1 RES1               0.0000
@<TRIPOS>BOND
    1    1    2 1     
    2    1    3 1     
    3    1    4 1     
    4    1    5 1     
    5    2    6 ar    
    6    2    7 ar    
    7    3    8 1     
    8    3    9 2     
    9    4   10 1     
   10    4   11 2     
   11    5   12 1     
   12    5   18 1     
   13    5   19 1     
   14    6   13 ar    
   15    6   20 1     
   16    7   14 ar    
   17    7   21 1     
   18    8   15 1     
   19    8   22 1     
   20   10   15 1     
   21   10   23 1     
   22   12   24 1     
   23   12   25 1     
   24   12   26 1     
   25   13   16 ar    
   26   13   27 1     
   27   14   16 ar    
   28   14   28 1     
   29   15   17 2     
   30   16   29 1     
@<TRIPOS>SUBSTRUCTURE
      1 RES1           1
@<TRIPOS>SET
DONOR_HYDROGENS      STATIC     ATOMS    <user>   **** ""
2 22 23
ATOM$RED        STATIC     ATOMS    COLORGROUP SYSTEM
2 22 23
@<TRIPOS>COMMENT
> <Gold.Version>
2022.3.0

> <Gold.Id.Protein>
unknown|4d5m_clean|pdb

> <Gold.Protein.RotatedTorsions>
[  410  374  373  371 ] final   20.44 input   60.01 | X-H torsion
[   57   38   37   33 ] final  178.44 input   59.98 | X-H torsion
[  833  808  809  810 ] final -161.23 input  -84.33 | X-H torsion
[  854  754  753  752 ] final  139.87 input    0.00 | X-H torsion
[  859  811  810  809 ] final  114.75 input    0.00 | X-H torsion

> <Gold.Protein.ActiveResidues>
 PCA1    TYR5    DTR6    ARG8    PRO9    GLY10   NH211  

> <Gold.Protein.RotatedAtoms>
   18.8116    8.0004   14.5669 H   0  0  0  0  0  0  0  0  0  0  0  0  # atno 57   bound_to 38  
   17.5601    1.6441   10.8954 H   0  0  0  0  0  0  0  0  0  0  0  0  # atno 410  bound_to 374 
   15.3712    2.2824   12.5844 H   0  0  0  0  0  0  0  0  0  0  0  0  # atno 833  bound_to 808 
   18.7301    0.5208   11.0282 LP  0  0  0  0  0  0  0  0  0  0  0  0  # atno 852  bound_to 374 
   18.3946    1.5071   12.2858 LP  0  0  0  0  0  0  0  0  0  0  0  0  # atno 853  bound_to 374 
   16.2347    5.1788   11.5644 LP  0  0  0  0  0  0  0  0  0  0  0  0  # atno 854  bound_to 754 
   15.4545    4.4124   10.2213 LP  0  0  0  0  0  0  0  0  0  0  0  0  # atno 855  bound_to 754 
   17.6677    8.2146   15.7047 LP  0  0  0  0  0  0  0  0  0  0  0  0  # atno 856  bound_to 38  
   18.9898    7.3137   16.0317 LP  0  0  0  0  0  0  0  0  0  0  0  0  # atno 857  bound_to 38  
   14.8516    3.8193   13.2469 LP  0  0  0  0  0  0  0  0  0  0  0  0  # atno 858  bound_to 808 
   18.6837    5.5109   14.9566 LP  0  0  0  0  0  0  0  0  0  0  0  0  # atno 859  bound_to 811 
   18.5955    3.9238   15.6446 LP  0  0  0  0  0  0  0  0  0  0  0  0  # atno 860  bound_to 811 

> <Gold.Score>
     Fitness  S(hb_ext) S(vdw_ext)  S(hb_int)    S(int)      intcor
     21.95       1.61      14.89       0.00      -0.14      -0.76

> <Gold.Goldscore.Fitness>
21.9475

> <Gold.Goldscore.Internal.Vdw>
-0.3846

> <Gold.Goldscore.Internal.Torsion>
-0.5161

> <Gold.Goldscore.External.Vdw>
14.8916

> <Gold.Goldscore.Internal.HBond>
0.0000

> <Gold.Goldscore.External.HBond>
1.6072

> <Gold.Goldscore.Internal.Correction>
-0.7650

> <Gold.Goldscore.Hbonds>
donor molecule, donor type, donor heavy atom, donor atom, acceptor molecule, acceptor atom, score
      P1  H   671   700       L1    11  0.27

> <Gold.Goldscore.Internal.Vdw.Weighted>
-0.3846

> <Gold.Goldscore.Internal.Torsion.Weighted>
-0.5161

> <Gold.Goldscore.External.Vdw.Weighted>
20.4760

> <Gold.Goldscore.Internal.HBond.Weighted>
0.0000

> <Gold.Goldscore.External.HBond.Weighted>
1.6072

> <Gold.Goldscore.Internal.Correction.Weighted>
-0.7650

> <Gold.Rescore>
     Score     S(PLP)   S(hbond)     S(cho)   S(metal)  DE(clash)   DE(tors)     intcor
     22.22     -21.60       1.00       0.00       0.00       0.00       1.19       ----

> <Gold.PLP.Fitness>
22.2180

> <Gold.PLP.PLP>
-21.5982

> <Gold.PLP.part.hbond>
-1.4360

> <Gold.PLP.part.metal>
0.0000

> <Gold.PLP.part.buried>
-3.0804

> <Gold.PLP.part.nonpolar>
-16.8815

> <Gold.PLP.part.repulsive>
0.0122

> <Gold.PLP.ligand.clash>
0.0000

> <Gold.PLP.ligand.torsion>
1.1901

> <Gold.PLP.Chemscore.Hbond>
1.0000

> <Gold.PLP.Chemscore.CHOScore>
0.0000

> <Gold.PLP.Chemscore.Metal>
0.0000

> <Gold.Chemscore.Hbonds>
donor molecule, donor type, donor heavy atom, donor atom, acceptor molecule, acceptor atom, score
      P1  H   671   700       L1    11  1.00

> <Gold.PLP.Chemscore.Internal.Correction>
   9.000000E+99

