#       Name:                CT1002167954
#       Creating user name   hitesit
#       Creation time:       Sun Apr 16 02:21:16 2023


#       File generated by GOLD software.
#

@<TRIPOS>MOLECULE
CT1002167954|ligand_prepared|mol2|1|dock5
    29    30     1
SMALL
NO_CHARGES


@<TRIPOS>ATOM
      1 C1          14.6349   0.7044   6.4953 C.3            1 RES1               0.0000
      2 C2          14.5908   2.1780   6.9485 C.ar           1 RES1               0.0000
      3 C3          16.1109   0.3303   6.3970 C.2            1 RES1               0.0000
      4 C4          13.8609  -0.0876   7.5433 C.2            1 RES1               0.0000
      5 C5          13.9720   0.4533   5.1209 C.3            1 RES1               0.0000
      6 C6          15.5325   2.6716   7.8464 C.ar           1 RES1               0.0000
      7 C7          13.6179   3.0548   6.4762 C.ar           1 RES1               0.0000
      8 N8          16.6239  -0.4781   7.3682 N.am           1 RES1               0.0000
      9 O9          16.8234   0.7701   5.5029 O.2            1 RES1               0.0000
     10 N10         14.5536  -0.9904   8.3068 N.am           1 RES1               0.0000
     11 O11         12.6606   0.0740   7.7262 O.2            1 RES1               0.0000
     12 C12         14.2479  -0.9289   4.5504 C.3            1 RES1               0.0000
     13 C13         15.5045   3.9947   8.2551 C.ar           1 RES1               0.0000
     14 C14         13.5915   4.3775   6.8864 C.ar           1 RES1               0.0000
     15 C15         15.9057  -1.1994   8.2877 C.2            1 RES1               0.0000
     16 C16         14.5344   4.8486   7.7752 C.ar           1 RES1               0.0000
     17 O17         16.4631  -1.9901   9.0435 O.2            1 RES1               0.0000
     18 H18         12.8875   0.5831   5.2230 H              1 RES1               0.0000
     19 H19         14.3345   1.2070   4.4110 H              1 RES1               0.0000
     20 H20         16.3020   2.0139   8.2368 H              1 RES1               0.0000
     21 H21         12.8654   2.7060   5.7772 H              1 RES1               0.0000
     22 H22         17.6351  -0.5533   7.4151 H              1 RES1               0.0000
     23 H23         14.0110  -1.5594   8.9488 H              1 RES1               0.0000
     24 H24         13.7600  -1.0525   3.5858 H              1 RES1               0.0000
     25 H25         15.3161  -1.0829   4.4120 H              1 RES1               0.0000
     26 H26         13.8777  -1.7032   5.2192 H              1 RES1               0.0000
     27 H27         16.2480   4.3601   8.9558 H              1 RES1               0.0000
     28 H28         12.8258   5.0458   6.5066 H              1 RES1               0.0000
     29 H29         14.5128   5.8851   8.0952 H              1 RES1               0.0000
@<TRIPOS>BOND
    1    1    2 1     
    2    1    3 1     
    3    1    4 1     
    4    1    5 1     
    5    2    6 ar    
    6    2    7 ar    
    7    3    8 1     
    8    3    9 2     
    9    4   10 1     
   10    4   11 2     
   11    5   12 1     
   12    5   18 1     
   13    5   19 1     
   14    6   13 ar    
   15    6   20 1     
   16    7   14 ar    
   17    7   21 1     
   18    8   15 1     
   19    8   22 1     
   20   10   15 1     
   21   10   23 1     
   22   12   24 1     
   23   12   25 1     
   24   12   26 1     
   25   13   16 ar    
   26   13   27 1     
   27   14   16 ar    
   28   14   28 1     
   29   15   17 2     
   30   16   29 1     
@<TRIPOS>SUBSTRUCTURE
      1 RES1           1
@<TRIPOS>SET
DONOR_HYDROGENS      STATIC     ATOMS    <user>   **** ""
2 22 23
ATOM$RED        STATIC     ATOMS    COLORGROUP SYSTEM
2 22 23
@<TRIPOS>COMMENT
> <Gold.Version>
2022.3.0

> <Gold.Id.Protein>
unknown|4d5m_clean|pdb

> <Gold.Protein.RotatedTorsions>
[  410  374  373  371 ] final   61.68 input   60.01 | X-H torsion
[   57   38   37   33 ] final   67.34 input   59.98 | X-H torsion
[  833  808  809  810 ] final  178.94 input  -84.33 | X-H torsion
[  854  754  753  752 ] final  -76.91 input    0.00 | X-H torsion
[  859  811  810  809 ] final   54.70 input    0.00 | X-H torsion

> <Gold.Protein.ActiveResidues>
 PCA1    TYR5    DTR6    ARG8    PRO9    GLY10   NH211  

> <Gold.Protein.RotatedAtoms>
   17.6685    8.2709   15.5700 H   0  0  0  0  0  0  0  0  0  0  0  0  # atno 57   bound_to 38  
   17.5983    1.9126   11.4967 H   0  0  0  0  0  0  0  0  0  0  0  0  # atno 410  bound_to 374 
   15.4130    2.4627   12.3388 H   0  0  0  0  0  0  0  0  0  0  0  0  # atno 833  bound_to 808 
   18.2867    0.7497   10.5900 LP  0  0  0  0  0  0  0  0  0  0  0  0  # atno 852  bound_to 374 
   18.7994    1.0078   12.1187 LP  0  0  0  0  0  0  0  0  0  0  0  0  # atno 853  bound_to 374 
   15.9220    4.1485   10.3226 LP  0  0  0  0  0  0  0  0  0  0  0  0  # atno 854  bound_to 754 
   15.7672    5.4428   11.4631 LP  0  0  0  0  0  0  0  0  0  0  0  0  # atno 855  bound_to 754 
   18.8814    7.3393   16.1268 LP  0  0  0  0  0  0  0  0  0  0  0  0  # atno 856  bound_to 38  
   18.9266    7.9167   14.6000 LP  0  0  0  0  0  0  0  0  0  0  0  0  # atno 857  bound_to 38  
   14.8113    3.6457   13.4832 LP  0  0  0  0  0  0  0  0  0  0  0  0  # atno 858  bound_to 808 
   18.9908    4.8300   14.5170 LP  0  0  0  0  0  0  0  0  0  0  0  0  # atno 859  bound_to 811 
   18.2885    4.6047   16.0842 LP  0  0  0  0  0  0  0  0  0  0  0  0  # atno 860  bound_to 811 

> <Gold.Score>
     Fitness  S(hb_ext) S(vdw_ext)  S(hb_int)    S(int)      intcor
     25.25       0.00      18.60       0.00      -0.33      -0.76

> <Gold.Goldscore.Fitness>
25.2468

> <Gold.Goldscore.Internal.Vdw>
-0.5272

> <Gold.Goldscore.Internal.Torsion>
-0.5692

> <Gold.Goldscore.External.Vdw>
18.6023

> <Gold.Goldscore.Internal.HBond>
0.0000

> <Gold.Goldscore.External.HBond>
0.0000

> <Gold.Goldscore.Internal.Correction>
-0.7650

> <Gold.Goldscore.Internal.Vdw.Weighted>
-0.5272

> <Gold.Goldscore.Internal.Torsion.Weighted>
-0.5692

> <Gold.Goldscore.External.Vdw.Weighted>
25.5782

> <Gold.Goldscore.Internal.HBond.Weighted>
0.0000

> <Gold.Goldscore.External.HBond.Weighted>
0.0000

> <Gold.Goldscore.Internal.Correction.Weighted>
-0.7650

> <Gold.Rescore>
     Score     S(PLP)   S(hbond)     S(cho)   S(metal)  DE(clash)   DE(tors)     intcor
     23.29     -23.37       0.00       0.00       0.00       0.00       0.04       ----

> <Gold.PLP.Fitness>
23.2852

> <Gold.PLP.PLP>
-23.3668

> <Gold.PLP.part.hbond>
0.0000

> <Gold.PLP.part.metal>
0.0000

> <Gold.PLP.part.buried>
-2.8116

> <Gold.PLP.part.nonpolar>
-21.2135

> <Gold.PLP.part.repulsive>
0.0299

> <Gold.PLP.ligand.clash>
0.0000

> <Gold.PLP.ligand.torsion>
0.0408

> <Gold.PLP.Chemscore.Hbond>
0.0000

> <Gold.PLP.Chemscore.CHOScore>
0.0000

> <Gold.PLP.Chemscore.Metal>
0.0000

> <Gold.PLP.Chemscore.Internal.Correction>
   9.000000E+99

