#       Name:                CT1002167954
#       Creating user name   hitesit
#       Creation time:       Sun Apr 16 02:21:15 2023


#       File generated by GOLD software.
#

@<TRIPOS>MOLECULE
CT1002167954|ligand_prepared|mol2|1|dock4
    29    30     1
SMALL
NO_CHARGES


@<TRIPOS>ATOM
      1 C1          12.5393   2.1428   5.9377 C.3            1 RES1               0.0000
      2 C2          13.5870   2.8946   6.7838 C.ar           1 RES1               0.0000
      3 C3          11.5729   1.4976   6.9267 C.2            1 RES1               0.0000
      4 C4          11.8963   3.1854   5.0298 C.2            1 RES1               0.0000
      5 C5          13.1387   1.0338   5.0420 C.3            1 RES1               0.0000
      6 C6          13.4941   4.2710   6.9675 C.ar           1 RES1               0.0000
      7 C7          14.6485   2.2263   7.3880 C.ar           1 RES1               0.0000
      8 N8          10.3337   2.0530   7.0530 N.am           1 RES1               0.0000
      9 O9          11.9065   0.5403   7.6140 O.2            1 RES1               0.0000
     10 N10         10.5696   3.4712   5.2192 N.am           1 RES1               0.0000
     11 O11         12.5308   3.7740   4.1630 O.2            1 RES1               0.0000
     12 C12         12.1450   0.4361   4.0584 C.3            1 RES1               0.0000
     13 C13         14.4269   4.9542   7.7300 C.ar           1 RES1               0.0000
     14 C14         15.5804   2.9115   8.1500 C.ar           1 RES1               0.0000
     15 C15          9.7669   2.9746   6.2098 C.2            1 RES1               0.0000
     16 C16         15.4703   4.2749   8.3221 C.ar           1 RES1               0.0000
     17 O17          8.5974   3.3211   6.3488 O.2            1 RES1               0.0000
     18 H18         13.9835   1.4514   4.4806 H              1 RES1               0.0000
     19 H19         13.5258   0.2325   5.6835 H              1 RES1               0.0000
     20 H20         12.6812   4.8228   6.5073 H              1 RES1               0.0000
     21 H21         14.7557   1.1539   7.2654 H              1 RES1               0.0000
     22 H22          9.7771   1.7557   7.8480 H              1 RES1               0.0000
     23 H23         10.1406   4.1136   4.5607 H              1 RES1               0.0000
     24 H24         12.6167  -0.3366   3.4550 H              1 RES1               0.0000
     25 H25         11.3035  -0.0108   4.5837 H              1 RES1               0.0000
     26 H26         11.7585   1.2009   3.3879 H              1 RES1               0.0000
     27 H27         14.3366   6.0274   7.8613 H              1 RES1               0.0000
     28 H28         16.4003   2.3729   8.6136 H              1 RES1               0.0000
     29 H29         16.2007   4.8103   8.9197 H              1 RES1               0.0000
@<TRIPOS>BOND
    1    1    2 1     
    2    1    3 1     
    3    1    4 1     
    4    1    5 1     
    5    2    6 ar    
    6    2    7 ar    
    7    3    8 1     
    8    3    9 2     
    9    4   10 1     
   10    4   11 2     
   11    5   12 1     
   12    5   18 1     
   13    5   19 1     
   14    6   13 ar    
   15    6   20 1     
   16    7   14 ar    
   17    7   21 1     
   18    8   15 1     
   19    8   22 1     
   20   10   15 1     
   21   10   23 1     
   22   12   24 1     
   23   12   25 1     
   24   12   26 1     
   25   13   16 ar    
   26   13   27 1     
   27   14   16 ar    
   28   14   28 1     
   29   15   17 2     
   30   16   29 1     
@<TRIPOS>SUBSTRUCTURE
      1 RES1           1
@<TRIPOS>SET
DONOR_HYDROGENS      STATIC     ATOMS    <user>   **** ""
2 22 23
ATOM$RED        STATIC     ATOMS    COLORGROUP SYSTEM
2 22 23
@<TRIPOS>COMMENT
> <Gold.Version>
2022.3.0

> <Gold.Id.Protein>
unknown|4d5m_clean|pdb

> <Gold.Protein.RotatedTorsions>
[  410  374  373  371 ] final  -41.18 input   60.01 | X-H torsion
[   57   38   37   33 ] final  -18.02 input   59.98 | X-H torsion
[  833  808  809  810 ] final  -26.36 input  -84.33 | X-H torsion
[  854  754  753  752 ] final  -39.22 input    0.00 | X-H torsion
[  859  811  810  809 ] final   98.70 input    0.00 | X-H torsion

> <Gold.Protein.ActiveResidues>
 PCA1    TYR5    DTR6    ARG8    PRO9    GLY10   NH211  

> <Gold.Protein.RotatedAtoms>
   18.3990    7.5492   16.3171 H   0  0  0  0  0  0  0  0  0  0  0  0  # atno 57   bound_to 38  
   18.0784    0.9259   10.5271 H   0  0  0  0  0  0  0  0  0  0  0  0  # atno 410  bound_to 374 
   14.8240    3.3432   13.7227 H   0  0  0  0  0  0  0  0  0  0  0  0  # atno 833  bound_to 808 
   18.8916    0.8184   11.9327 LP  0  0  0  0  0  0  0  0  0  0  0  0  # atno 852  bound_to 374 
   17.7113    1.9324   11.7521 LP  0  0  0  0  0  0  0  0  0  0  0  0  # atno 853  bound_to 374 
   15.4442    4.4215   10.2222 LP  0  0  0  0  0  0  0  0  0  0  0  0  # atno 854  bound_to 754 
   16.2450    5.1697   11.5634 LP  0  0  0  0  0  0  0  0  0  0  0  0  # atno 855  bound_to 754 
   19.2495    7.5976   14.9303 LP  0  0  0  0  0  0  0  0  0  0  0  0  # atno 856  bound_to 38  
   17.8233    8.3848   15.0446 LP  0  0  0  0  0  0  0  0  0  0  0  0  # atno 857  bound_to 38  
   15.3779    2.7987   12.1519 LP  0  0  0  0  0  0  0  0  0  0  0  0  # atno 858  bound_to 808 
   18.7870    5.3895   14.7748 LP  0  0  0  0  0  0  0  0  0  0  0  0  # atno 859  bound_to 811 
   18.4922    4.0452   15.8264 LP  0  0  0  0  0  0  0  0  0  0  0  0  # atno 860  bound_to 811 

> <Gold.Score>
     Fitness  S(hb_ext) S(vdw_ext)  S(hb_int)    S(int)      intcor
     26.73       0.00      20.27       0.00      -1.14      -0.76

> <Gold.Goldscore.Fitness>
26.7258

> <Gold.Goldscore.Internal.Vdw>
-1.4235

> <Gold.Goldscore.Internal.Torsion>
-0.4846

> <Gold.Goldscore.External.Vdw>
20.2684

> <Gold.Goldscore.Internal.HBond>
0.0000

> <Gold.Goldscore.External.HBond>
0.0000

> <Gold.Goldscore.Internal.Correction>
-0.7650

> <Gold.Goldscore.Internal.Vdw.Weighted>
-1.4235

> <Gold.Goldscore.Internal.Torsion.Weighted>
-0.4846

> <Gold.Goldscore.External.Vdw.Weighted>
27.8690

> <Gold.Goldscore.Internal.HBond.Weighted>
0.0000

> <Gold.Goldscore.External.HBond.Weighted>
0.0000

> <Gold.Goldscore.Internal.Correction.Weighted>
-0.7650

> <Gold.Rescore>
     Score     S(PLP)   S(hbond)     S(cho)   S(metal)  DE(clash)   DE(tors)     intcor
     28.20     -30.44       0.00       0.00       0.00       1.80       0.22       ----

> <Gold.PLP.Fitness>
28.1987

> <Gold.PLP.PLP>
-30.4423

> <Gold.PLP.part.hbond>
-1.0000

> <Gold.PLP.part.metal>
0.0000

> <Gold.PLP.part.buried>
-4.6223

> <Gold.PLP.part.nonpolar>
-25.8293

> <Gold.PLP.part.repulsive>
0.0074

> <Gold.PLP.ligand.clash>
1.7993

> <Gold.PLP.ligand.torsion>
0.2221

> <Gold.PLP.Chemscore.Hbond>
0.0000

> <Gold.PLP.Chemscore.CHOScore>
0.0000

> <Gold.PLP.Chemscore.Metal>
0.0000

> <Gold.PLP.Chemscore.Internal.Correction>
   9.000000E+99

