#       Name:                CT1002167954
#       Creating user name   hitesit
#       Creation time:       Sun Apr 16 02:21:14 2023


#       File generated by GOLD software.
#

@<TRIPOS>MOLECULE
CT1002167954|ligand_prepared|mol2|1|dock2
    29    30     1
SMALL
NO_CHARGES


@<TRIPOS>ATOM
      1 C1          17.2027   3.3699   7.8138 C.3            1 RES1               0.0000
      2 C2          15.7841   3.6261   7.2656 C.ar           1 RES1               0.0000
      3 C3          17.4941   1.8914   7.5745 C.2            1 RES1               0.0000
      4 C4          18.1292   4.3167   7.0589 C.2            1 RES1               0.0000
      5 C5          17.3505   3.6613   9.3254 C.3            1 RES1               0.0000
      6 C6          15.0635   4.7490   7.6612 C.ar           1 RES1               0.0000
      7 C7          15.1847   2.7514   6.3632 C.ar           1 RES1               0.0000
      8 N8          18.3675   1.5730   6.5767 N.am           1 RES1               0.0000
      9 O9          16.9357   1.0166   8.2251 O.2            1 RES1               0.0000
     10 N10         19.0676   3.7675   6.2249 N.am           1 RES1               0.0000
     11 O11         18.0440   5.5339   7.1659 O.2            1 RES1               0.0000
     12 C12         18.7033   3.2664   9.8965 C.3            1 RES1               0.0000
     13 C13         13.7911   4.9905   7.1703 C.ar           1 RES1               0.0000
     14 C14         13.9120   2.9946   5.8737 C.ar           1 RES1               0.0000
     15 C15         19.2085   2.4397   5.9261 C.2            1 RES1               0.0000
     16 C16         13.2147   4.1138   6.2760 C.ar           1 RES1               0.0000
     17 O17         20.0413   2.0275   5.1238 O.2            1 RES1               0.0000
     18 H18         17.1950   4.7338   9.4951 H              1 RES1               0.0000
     19 H19         16.5663   3.1188   9.8678 H              1 RES1               0.0000
     20 H20         15.4998   5.4489   8.3661 H              1 RES1               0.0000
     21 H21         15.7141   1.8639   6.0336 H              1 RES1               0.0000
     22 H22         18.3982   0.6005   6.2874 H              1 RES1               0.0000
     23 H23         19.7218   4.4078   5.7863 H              1 RES1               0.0000
     24 H24         18.7538   3.4921  10.9596 H              1 RES1               0.0000
     25 H25         18.8803   2.2007   9.7675 H              1 RES1               0.0000
     26 H26         19.5052   3.8061   9.3970 H              1 RES1               0.0000
     27 H27         13.2460   5.8721   7.4911 H              1 RES1               0.0000
     28 H28         13.4621   2.3016   5.1705 H              1 RES1               0.0000
     29 H29         12.2181   4.3034   5.8912 H              1 RES1               0.0000
@<TRIPOS>BOND
    1    1    2 1     
    2    1    3 1     
    3    1    4 1     
    4    1    5 1     
    5    2    6 ar    
    6    2    7 ar    
    7    3    8 1     
    8    3    9 2     
    9    4   10 1     
   10    4   11 2     
   11    5   12 1     
   12    5   18 1     
   13    5   19 1     
   14    6   13 ar    
   15    6   20 1     
   16    7   14 ar    
   17    7   21 1     
   18    8   15 1     
   19    8   22 1     
   20   10   15 1     
   21   10   23 1     
   22   12   24 1     
   23   12   25 1     
   24   12   26 1     
   25   13   16 ar    
   26   13   27 1     
   27   14   16 ar    
   28   14   28 1     
   29   15   17 2     
   30   16   29 1     
@<TRIPOS>SUBSTRUCTURE
      1 RES1           1
@<TRIPOS>SET
DONOR_HYDROGENS      STATIC     ATOMS    <user>   **** ""
2 22 23
ATOM$RED        STATIC     ATOMS    COLORGROUP SYSTEM
2 22 23
@<TRIPOS>COMMENT
> <Gold.Version>
2022.3.0

> <Gold.Id.Protein>
unknown|4d5m_clean|pdb

> <Gold.Protein.RotatedTorsions>
[  410  374  373  371 ] final -166.77 input   60.01 | X-H torsion
[   57   38   37   33 ] final   19.39 input   59.98 | X-H torsion
[  833  808  809  810 ] final   52.35 input  -84.33 | X-H torsion
[  854  754  753  752 ] final  -21.00 input    0.00 | X-H torsion
[  859  811  810  809 ] final    3.67 input    0.00 | X-H torsion

> <Gold.Protein.ActiveResidues>
 PCA1    TYR5    DTR6    ARG8    PRO9    GLY10   NH211  

> <Gold.Protein.RotatedAtoms>
   17.9210    7.8843   16.1751 H   0  0  0  0  0  0  0  0  0  0  0  0  # atno 57   bound_to 38  
   18.8614    0.8773   11.9964 H   0  0  0  0  0  0  0  0  0  0  0  0  # atno 410  bound_to 374 
   15.0029    3.9410   12.7776 H   0  0  0  0  0  0  0  0  0  0  0  0  # atno 833  bound_to 808 
   17.6682    1.9351   11.6712 LP  0  0  0  0  0  0  0  0  0  0  0  0  # atno 852  bound_to 374 
   18.1465    0.8647   10.5345 LP  0  0  0  0  0  0  0  0  0  0  0  0  # atno 853  bound_to 374 
   15.2626    4.6199   10.2761 LP  0  0  0  0  0  0  0  0  0  0  0  0  # atno 854  bound_to 754 
   16.4266    4.9714   11.5096 LP  0  0  0  0  0  0  0  0  0  0  0  0  # atno 855  bound_to 754 
   19.2944    7.3534   15.4816 LP  0  0  0  0  0  0  0  0  0  0  0  0  # atno 856  bound_to 38  
   18.2594    8.2918   14.6361 LP  0  0  0  0  0  0  0  0  0  0  0  0  # atno 857  bound_to 38  
   15.2059    2.2236   13.0611 LP  0  0  0  0  0  0  0  0  0  0  0  0  # atno 858  bound_to 808 
   18.9782    4.1267   14.7654 LP  0  0  0  0  0  0  0  0  0  0  0  0  # atno 859  bound_to 811 
   18.3010    5.3081   15.8358 LP  0  0  0  0  0  0  0  0  0  0  0  0  # atno 860  bound_to 811 

> <Gold.Score>
     Fitness  S(hb_ext) S(vdw_ext)  S(hb_int)    S(int)      intcor
     22.33       1.19      16.24       0.00      -1.18      -0.77

> <Gold.Goldscore.Fitness>
22.3312

> <Gold.Goldscore.Internal.Vdw>
-1.5201

> <Gold.Goldscore.Internal.Torsion>
-0.4342

> <Gold.Goldscore.External.Vdw>
16.2378

> <Gold.Goldscore.Internal.HBond>
0.0000

> <Gold.Goldscore.External.HBond>
1.1892

> <Gold.Goldscore.Internal.Correction>
-0.7693

> <Gold.Goldscore.Hbonds>
donor molecule, donor type, donor heavy atom, donor atom, acceptor molecule, acceptor atom, score
      P1  H   670   709       L1    11  0.06
      P1  H   671   699       L1    11  0.14

> <Gold.Goldscore.Internal.Vdw.Weighted>
-1.5201

> <Gold.Goldscore.Internal.Torsion.Weighted>
-0.4342

> <Gold.Goldscore.External.Vdw.Weighted>
22.3269

> <Gold.Goldscore.Internal.HBond.Weighted>
0.0000

> <Gold.Goldscore.External.HBond.Weighted>
1.1892

> <Gold.Goldscore.Internal.Correction.Weighted>
-0.7693

> <Gold.Rescore>
     Score     S(PLP)   S(hbond)     S(cho)   S(metal)  DE(clash)   DE(tors)     intcor
     22.92     -21.09       1.09       0.00       0.00       1.19       0.13       ----

> <Gold.PLP.Fitness>
22.9166

> <Gold.PLP.PLP>
-21.0920

> <Gold.PLP.part.hbond>
-1.9611

> <Gold.PLP.part.metal>
0.0000

> <Gold.PLP.part.buried>
-1.1146

> <Gold.PLP.part.nonpolar>
-19.0922

> <Gold.PLP.part.repulsive>
0.0213

> <Gold.PLP.ligand.clash>
1.1902

> <Gold.PLP.ligand.torsion>
0.1306

> <Gold.PLP.Chemscore.Hbond>
1.0920

> <Gold.PLP.Chemscore.CHOScore>
0.0000

> <Gold.PLP.Chemscore.Metal>
0.0000

> <Gold.Chemscore.Hbonds>
donor molecule, donor type, donor heavy atom, donor atom, acceptor molecule, acceptor atom, score
      P1  H   670   709       L1    11  0.62
      P1  H   671   699       L1    11  0.77

> <Gold.PLP.Chemscore.Internal.Correction>
   9.000000E+99

