#       Name:                CT1002167954
#       Creating user name   hitesit
#       Creation time:       Sun Apr 16 02:22:28 2023


#       File generated by GOLD software.
#

@<TRIPOS>MOLECULE
CT1002167954|ligand_prepared|mol2|1|dock3
    29    30     1
SMALL
NO_CHARGES


@<TRIPOS>ATOM
      1 C1         -44.2907  12.2536  25.0341 C.3            1 RES1               0.0000
      2 C2         -43.0680  11.7372  25.8196 C.ar           1 RES1               0.0000
      3 C3         -45.5100  11.9765  25.9085 C.2            1 RES1               0.0000
      4 C4         -44.0358  13.7340  24.7731 C.2            1 RES1               0.0000
      5 C5         -44.4964  11.5564  23.6691 C.3            1 RES1               0.0000
      6 C6         -42.6130  12.4136  26.9475 C.ar           1 RES1               0.0000
      7 C7         -42.3876  10.5863  25.4309 C.ar           1 RES1               0.0000
      8 N8         -46.0948  13.0390  26.5323 N.am           1 RES1               0.0000
      9 O9         -45.9281  10.8380  26.0798 O.2            1 RES1               0.0000
     10 N10        -44.8666  14.6441  25.3726 N.am           1 RES1               0.0000
     11 O11        -43.1128  14.1212  24.0670 O.2            1 RES1               0.0000
     12 C12        -45.5706  12.2008  22.8072 C.3            1 RES1               0.0000
     13 C13        -41.5193  11.9546  27.6626 C.ar           1 RES1               0.0000
     14 C14        -41.2939  10.1291  26.1473 C.ar           1 RES1               0.0000
     15 C15        -45.8655  14.3647  26.2649 C.2            1 RES1               0.0000
     16 C16        -40.8593  10.8120  27.2634 C.ar           1 RES1               0.0000
     17 O17        -46.5345  15.2416  26.8041 O.2            1 RES1               0.0000
     18 H18        -43.5473  11.5698  23.1192 H              1 RES1               0.0000
     19 H19        -44.7670  10.5080  23.8454 H              1 RES1               0.0000
     20 H20        -43.1182  13.3160  27.2754 H              1 RES1               0.0000
     21 H21        -42.7110  10.0335  24.5554 H              1 RES1               0.0000
     22 H22        -46.7645  12.8283  27.2654 H              1 RES1               0.0000
     23 H23        -44.7275  15.6201  25.1312 H              1 RES1               0.0000
     24 H24        -45.6744  11.6730  21.8615 H              1 RES1               0.0000
     25 H25        -46.5337  12.1821  23.3131 H              1 RES1               0.0000
     26 H26        -45.3213  13.2376  22.5912 H              1 RES1               0.0000
     27 H27        -41.1804  12.4965  28.5395 H              1 RES1               0.0000
     28 H28        -40.7771   9.2297  25.8291 H              1 RES1               0.0000
     29 H29        -40.0028  10.4524  27.8240 H              1 RES1               0.0000
@<TRIPOS>BOND
    1    1    2 1     
    2    1    3 1     
    3    1    4 1     
    4    1    5 1     
    5    2    6 ar    
    6    2    7 ar    
    7    3    8 1     
    8    3    9 2     
    9    4   10 1     
   10    4   11 2     
   11    5   12 1     
   12    5   18 1     
   13    5   19 1     
   14    6   13 ar    
   15    6   20 1     
   16    7   14 ar    
   17    7   21 1     
   18    8   15 1     
   19    8   22 1     
   20   10   15 1     
   21   10   23 1     
   22   12   24 1     
   23   12   25 1     
   24   12   26 1     
   25   13   16 ar    
   26   13   27 1     
   27   14   16 ar    
   28   14   28 1     
   29   15   17 2     
   30   16   29 1     
@<TRIPOS>SUBSTRUCTURE
      1 RES1           1
@<TRIPOS>SET
DONOR_HYDROGENS      STATIC     ATOMS    <user>   **** ""
2 22 23
ATOM$RED        STATIC     ATOMS    COLORGROUP SYSTEM
2 22 23
@<TRIPOS>COMMENT
> <Gold.Version>
2022.3.0

> <Gold.Id.Protein>
unknown|7ta6_clean|pdb

> <Gold.Protein.ActiveResidues>
 PRO12   VAL13   ALA14   HIS15   VAL16   LEU29   ASN30   ARG32   ALA33   ASN34  
 ALA35   LEU36   LEU37   ALA38   ASN39   GLY40   VAL41   GLU42   LEU43   ARG44  
 LEU48   VAL49   ILE154 

> <Gold.Score>
     Fitness  S(hb_ext) S(vdw_ext)  S(hb_int)    S(int)      intcor
     31.47       3.31      20.53       0.00      -0.08      -0.76

> <Gold.Goldscore.Fitness>
31.4672

> <Gold.Goldscore.Internal.Vdw>
-0.3575

> <Gold.Goldscore.Internal.Torsion>
-0.4807

> <Gold.Goldscore.External.Vdw>
20.5343

> <Gold.Goldscore.Internal.HBond>
0.0000

> <Gold.Goldscore.External.HBond>
3.3126

> <Gold.Goldscore.Internal.Correction>
-0.7582

> <Gold.Goldscore.Hbonds>
donor molecule, donor type, donor heavy atom, donor atom, acceptor molecule, acceptor atom, score
      P1  H  3005  3084       L1    11  0.66
      L1  H    10    23       P1  3293  1.00

> <Gold.Goldscore.Internal.Vdw.Weighted>
-0.3575

> <Gold.Goldscore.Internal.Torsion.Weighted>
-0.4807

> <Gold.Goldscore.External.Vdw.Weighted>
28.2347

> <Gold.Goldscore.Internal.HBond.Weighted>
0.0000

> <Gold.Goldscore.External.HBond.Weighted>
3.3126

> <Gold.Goldscore.Internal.Correction.Weighted>
-0.7582

> <Gold.Rescore>
     Score     S(PLP)   S(hbond)     S(cho)   S(metal)  DE(clash)   DE(tors)     intcor
     26.98     -21.84       1.80       0.00       0.00       0.00       0.13       ----

> <Gold.PLP.Fitness>
26.9777

> <Gold.PLP.PLP>
-21.8380

> <Gold.PLP.part.hbond>
-2.0000

> <Gold.PLP.part.metal>
0.0000

> <Gold.PLP.part.buried>
-2.1556

> <Gold.PLP.part.nonpolar>
-19.5869

> <Gold.PLP.part.repulsive>
1.3595

> <Gold.PLP.ligand.clash>
0.0000

> <Gold.PLP.ligand.torsion>
0.1301

> <Gold.PLP.Chemscore.Hbond>
1.8000

> <Gold.PLP.Chemscore.CHOScore>
0.0000

> <Gold.PLP.Chemscore.Metal>
0.0000

> <Gold.Chemscore.Hbonds>
donor molecule, donor type, donor heavy atom, donor atom, acceptor molecule, acceptor atom, score
      L1  H    10    23       P1  3293  0.71
      P1  H  3005  3084       L1    11  0.57
      P1  H  3541  3590       L1    17  0.12

> <Gold.PLP.Chemscore.Internal.Correction>
   9.000000E+99

