#       Name:                CT1002167954
#       Creating user name   hitesit
#       Creation time:       Sun Apr 16 02:22:31 2023


#       File generated by GOLD software.
#

@<TRIPOS>MOLECULE
CT1002167954|ligand_prepared|mol2|1|dock9
    29    30     1
SMALL
NO_CHARGES


@<TRIPOS>ATOM
      1 C1         -44.5904  12.0103  25.0918 C.3            1 RES1               0.0000
      2 C2         -44.5413  11.6957  23.5827 C.ar           1 RES1               0.0000
      3 C3         -45.9617  11.5529  25.5803 C.2            1 RES1               0.0000
      4 C4         -43.4230  11.2592  25.7223 C.2            1 RES1               0.0000
      5 C5         -44.4268  13.5121  25.4226 C.3            1 RES1               0.0000
      6 C6         -44.7830  12.6930  22.6427 C.ar           1 RES1               0.0000
      7 C7         -44.2534  10.4158  23.1161 C.ar           1 RES1               0.0000
      8 N8         -46.0183  10.4142  26.3286 N.am           1 RES1               0.0000
      9 O9         -46.9821  12.1603  25.2804 O.2            1 RES1               0.0000
     10 N10        -43.7099  10.2442  26.5971 N.am           1 RES1               0.0000
     11 O11        -42.2574  11.5262  25.4569 O.2            1 RES1               0.0000
     12 C12        -44.1874  13.7924  26.8978 C.3            1 RES1               0.0000
     13 C13        -44.7358  12.4215  21.2853 C.ar           1 RES1               0.0000
     14 C14        -44.2069  10.1464  21.7582 C.ar           1 RES1               0.0000
     15 C15        -44.9549   9.7674  26.9052 C.2            1 RES1               0.0000
     16 C16        -44.4474  11.1483  20.8422 C.ar           1 RES1               0.0000
     17 O17        -45.1298   8.8147  27.6595 O.2            1 RES1               0.0000
     18 H18        -43.5831  13.9108  24.8459 H              1 RES1               0.0000
     19 H19        -45.3318  14.0443  25.1044 H              1 RES1               0.0000
     20 H20        -45.0141  13.7004  22.9726 H              1 RES1               0.0000
     21 H21        -44.0619   9.6117  23.8185 H              1 RES1               0.0000
     22 H22        -46.9363  10.0056  26.4727 H              1 RES1               0.0000
     23 H23        -42.9224   9.8032  27.0616 H              1 RES1               0.0000
     24 H24        -44.0797  14.8604  27.0749 H              1 RES1               0.0000
     25 H25        -45.0193  13.4314  27.4990 H              1 RES1               0.0000
     26 H26        -43.2810  13.2987  27.2421 H              1 RES1               0.0000
     27 H27        -44.9272  13.2132  20.5685 H              1 RES1               0.0000
     28 H28        -43.9801   9.1428  21.4140 H              1 RES1               0.0000
     29 H29        -44.4101  10.9360  19.7788 H              1 RES1               0.0000
@<TRIPOS>BOND
    1    1    2 1     
    2    1    3 1     
    3    1    4 1     
    4    1    5 1     
    5    2    6 ar    
    6    2    7 ar    
    7    3    8 1     
    8    3    9 2     
    9    4   10 1     
   10    4   11 2     
   11    5   12 1     
   12    5   18 1     
   13    5   19 1     
   14    6   13 ar    
   15    6   20 1     
   16    7   14 ar    
   17    7   21 1     
   18    8   15 1     
   19    8   22 1     
   20   10   15 1     
   21   10   23 1     
   22   12   24 1     
   23   12   25 1     
   24   12   26 1     
   25   13   16 ar    
   26   13   27 1     
   27   14   16 ar    
   28   14   28 1     
   29   15   17 2     
   30   16   29 1     
@<TRIPOS>SUBSTRUCTURE
      1 RES1           1
@<TRIPOS>SET
DONOR_HYDROGENS      STATIC     ATOMS    <user>   **** ""
2 22 23
ATOM$RED        STATIC     ATOMS    COLORGROUP SYSTEM
2 22 23
@<TRIPOS>COMMENT
> <Gold.Version>
2022.3.0

> <Gold.Id.Protein>
unknown|7ta6_clean|pdb

> <Gold.Protein.ActiveResidues>
 PRO12   VAL13   ALA14   HIS15   VAL16   LEU29   ASN30   ARG32   ALA33   ASN34  
 ALA35   LEU36   LEU37   ALA38   ASN39   GLY40   VAL41   GLU42   LEU43   ARG44  
 LEU48   VAL49   ILE154 

> <Gold.Score>
     Fitness  S(hb_ext) S(vdw_ext)  S(hb_int)    S(int)      intcor
     22.78       0.00      16.97       0.00      -0.55      -0.76

> <Gold.Goldscore.Fitness>
22.7811

> <Gold.Goldscore.Internal.Vdw>
-0.7226

> <Gold.Goldscore.Internal.Torsion>
-0.5846

> <Gold.Goldscore.External.Vdw>
16.9673

> <Gold.Goldscore.Internal.HBond>
0.0000

> <Gold.Goldscore.External.HBond>
0.0000

> <Gold.Goldscore.Internal.Correction>
-0.7582

> <Gold.Goldscore.Internal.Vdw.Weighted>
-0.7226

> <Gold.Goldscore.Internal.Torsion.Weighted>
-0.5846

> <Gold.Goldscore.External.Vdw.Weighted>
23.3300

> <Gold.Goldscore.Internal.HBond.Weighted>
0.0000

> <Gold.Goldscore.External.HBond.Weighted>
0.0000

> <Gold.Goldscore.Internal.Correction.Weighted>
-0.7582

> <Gold.Rescore>
     Score     S(PLP)   S(hbond)     S(cho)   S(metal)  DE(clash)   DE(tors)     intcor
     23.37     -23.51       0.00       0.00       0.00       0.00       0.07       ----

> <Gold.PLP.Fitness>
23.3697

> <Gold.PLP.PLP>
-23.5124

> <Gold.PLP.part.hbond>
-1.0000

> <Gold.PLP.part.metal>
0.0000

> <Gold.PLP.part.buried>
-3.3329

> <Gold.PLP.part.nonpolar>
-20.1891

> <Gold.PLP.part.repulsive>
0.2644

> <Gold.PLP.ligand.clash>
0.0000

> <Gold.PLP.ligand.torsion>
0.0714

> <Gold.PLP.Chemscore.Hbond>
0.0000

> <Gold.PLP.Chemscore.CHOScore>
0.0000

> <Gold.PLP.Chemscore.Metal>
0.0000

> <Gold.PLP.Chemscore.Internal.Correction>
   9.000000E+99

