#       Name:                GA Fitting Points
#       Creating user name   hitesit
#       Creation time:       Sun Apr 16 02:21:06 2023


#       Fitting Points Used by GA Software.
#

@<TRIPOS>MOLECULE
GA Fitting Points
  4005    0    0
SMALL
NO_CHARGES


@<TRIPOS>ATOM
      1 ****        12.7500  -3.2500  -2.5000 Du        
      2 ****        12.7500  -3.0000  -2.5000 Du        
      3 ****        12.7500  -2.7500  -2.5000 Du        
      4 ****        13.0000  -3.2500  -2.5000 Du        
      5 ****        13.0000  -3.2500  -2.2500 Du        
      6 ****        13.0000  -3.0000  -2.5000 Du        
      7 ****        13.0000  -3.0000  -2.2500 Du        
      8 ****        13.0000  -2.7500  -2.5000 Du        
      9 ****        13.0000  -2.7500  -2.2500 Du        
     10 ****        13.2500  -3.5000  -2.2500 Du        
     11 ****        13.2500  -3.2500  -2.5000 Du        
     12 ****        13.2500  -3.2500  -2.2500 Du        
     13 ****        13.2500  -3.2500  -2.0000 Du        
     14 ****        13.2500  -3.0000  -2.5000 Du        
     15 ****        13.2500  -3.0000  -2.2500 Du        
     16 ****        13.2500  -3.0000  -2.0000 Du        
     17 ****        13.2500  -2.7500  -2.5000 Du        
     18 ****        13.2500  -2.7500  -2.2500 Du        
     19 ****        13.2500  -2.7500  -2.0000 Du        
     20 ****        13.2500  -2.5000  -2.2500 Du        
     21 ****        13.2500  -2.5000  -2.0000 Du        
     22 ****        13.2500   6.5000 -12.0000 Du        
     23 ****        13.2500   6.5000 -11.7500 Du        
     24 ****        13.2500   6.5000 -11.5000 Du        
     25 ****        13.5000  -3.5000  -2.2500 Du        
     26 ****        13.5000  -3.5000  -2.0000 Du        
     27 ****        13.5000  -3.2500  -2.5000 Du        
     28 ****        13.5000  -3.2500  -2.2500 Du        
     29 ****        13.5000  -3.2500  -2.0000 Du        
     30 ****        13.5000  -3.2500  -1.7500 Du        
     31 ****        13.5000  -3.0000  -2.5000 Du        
     32 ****        13.5000  -3.0000  -2.2500 Du        
     33 ****        13.5000  -3.0000  -2.0000 Du        
     34 ****        13.5000  -3.0000  -1.7500 Du        
     35 ****        13.5000  -2.7500  -2.5000 Du        
     36 ****        13.5000  -2.7500  -2.2500 Du        
     37 ****        13.5000  -2.7500  -2.0000 Du        
     38 ****        13.5000  -2.7500  -1.7500 Du        
     39 ****        13.5000  -2.5000  -2.2500 Du        
     40 ****        13.5000  -2.5000  -2.0000 Du        
     41 ****        13.5000  -2.5000  -1.7500 Du        
     42 ****        13.5000  -2.2500  -1.7500 Du        
     43 ****        13.5000   6.0000 -12.2500 Du        
     44 ****        13.5000   6.0000 -12.0000 Du        
     45 ****        13.5000   6.0000 -11.7500 Du        
     46 ****        13.5000   6.0000 -11.5000 Du        
     47 ****        13.5000   6.2500 -12.7500 Du        
     48 ****        13.5000   6.2500 -12.5000 Du        
     49 ****        13.5000   6.2500 -12.2500 Du        
     50 ****        13.5000   6.2500 -12.0000 Du        
     51 ****        13.5000   6.2500 -11.7500 Du        
     52 ****        13.5000   6.2500 -11.5000 Du        
     53 ****        13.5000   6.2500 -11.2500 Du        
     54 ****        13.5000   6.5000 -13.0000 Du        
     55 ****        13.5000   6.5000 -12.7500 Du        
     56 ****        13.5000   6.5000 -12.5000 Du        
     57 ****        13.5000   6.5000 -12.2500 Du        
     58 ****        13.5000   6.5000 -12.0000 Du        
     59 ****        13.5000   6.5000 -11.7500 Du        
     60 ****        13.5000   6.5000 -11.5000 Du        
     61 ****        13.5000   6.5000 -11.2500 Du        
     62 ****        13.5000   6.5000 -11.0000 Du        
     63 ****        13.5000   6.7500 -12.5000 Du        
     64 ****        13.5000   6.7500 -12.2500 Du        
     65 ****        13.5000   6.7500 -12.0000 Du        
     66 ****        13.5000   6.7500 -11.7500 Du        
     67 ****        13.5000   6.7500 -11.5000 Du        
     68 ****        13.5000   6.7500 -11.2500 Du        
     69 ****        13.7500  -3.5000  -2.2500 Du        
     70 ****        13.7500  -3.5000  -2.0000 Du        
     71 ****        13.7500  -3.5000  -1.7500 Du        
     72 ****        13.7500  -3.5000  -1.5000 Du        
     73 ****        13.7500  -3.2500  -2.5000 Du        
     74 ****        13.7500  -3.2500  -2.2500 Du        
     75 ****        13.7500  -3.2500  -2.0000 Du        
     76 ****        13.7500  -3.2500  -1.7500 Du        
     77 ****        13.7500  -3.2500  -1.5000 Du        
     78 ****        13.7500  -3.0000  -2.5000 Du        
     79 ****        13.7500  -3.0000  -2.2500 Du        
     80 ****        13.7500  -3.0000  -2.0000 Du        
     81 ****        13.7500  -3.0000  -1.7500 Du        
     82 ****        13.7500  -3.0000  -1.5000 Du        
     83 ****        13.7500  -2.7500  -2.5000 Du        
     84 ****        13.7500  -2.7500  -2.2500 Du        
     85 ****        13.7500  -2.7500  -2.0000 Du        
     86 ****        13.7500  -2.7500  -1.7500 Du        
     87 ****        13.7500  -2.7500  -1.5000 Du        
     88 ****        13.7500  -2.5000  -2.2500 Du        
     89 ****        13.7500  -2.5000  -2.0000 Du        
     90 ****        13.7500  -2.5000  -1.7500 Du        
     91 ****        13.7500  -2.2500  -2.0000 Du        
     92 ****        13.7500  -2.2500  -1.7500 Du        
     93 ****        13.7500   5.7500 -12.5000 Du        
     94 ****        13.7500   5.7500 -12.2500 Du        
     95 ****        13.7500   5.7500 -12.0000 Du        
     96 ****        13.7500   5.7500 -11.7500 Du        
     97 ****        13.7500   5.7500 -11.5000 Du        
     98 ****        13.7500   5.7500 -11.2500 Du        
     99 ****        13.7500   6.0000 -13.0000 Du        
    100 ****        13.7500   6.0000 -12.7500 Du        
    101 ****        13.7500   6.0000 -12.5000 Du        
    102 ****        13.7500   6.0000 -12.2500 Du        
    103 ****        13.7500   6.0000 -12.0000 Du        
    104 ****        13.7500   6.0000 -11.7500 Du        
    105 ****        13.7500   6.0000 -11.5000 Du        
    106 ****        13.7500   6.0000 -11.2500 Du        
    107 ****        13.7500   6.0000 -11.0000 Du        
    108 ****        13.7500   6.2500 -13.2500 Du        
    109 ****        13.7500   6.2500 -13.0000 Du        
    110 ****        13.7500   6.2500 -12.7500 Du        
    111 ****        13.7500   6.2500 -12.5000 Du        
    112 ****        13.7500   6.2500 -12.2500 Du        
    113 ****        13.7500   6.2500 -12.0000 Du        
    114 ****        13.7500   6.2500 -11.7500 Du        
    115 ****        13.7500   6.2500 -11.5000 Du        
    116 ****        13.7500   6.2500 -11.2500 Du        
    117 ****        13.7500   6.2500 -11.0000 Du        
    118 ****        13.7500   6.2500 -10.7500 Du        
    119 ****        13.7500   6.5000 -13.2500 Du        
    120 ****        13.7500   6.5000 -13.0000 Du        
    121 ****        13.7500   6.5000 -12.7500 Du        
    122 ****        13.7500   6.5000 -12.5000 Du        
    123 ****        13.7500   6.5000 -12.2500 Du        
    124 ****        13.7500   6.5000 -12.0000 Du        
    125 ****        13.7500   6.5000 -11.7500 Du        
    126 ****        13.7500   6.5000 -11.5000 Du        
    127 ****        13.7500   6.5000 -11.2500 Du        
    128 ****        13.7500   6.5000 -11.0000 Du        
    129 ****        13.7500   6.7500 -13.5000 Du        
    130 ****        13.7500   6.7500 -13.2500 Du        
    131 ****        13.7500   6.7500 -13.0000 Du        
    132 ****        13.7500   6.7500 -12.7500 Du        
    133 ****        13.7500   6.7500 -12.5000 Du        
    134 ****        13.7500   6.7500 -12.2500 Du        
    135 ****        13.7500   6.7500 -12.0000 Du        
    136 ****        13.7500   6.7500 -11.7500 Du        
    137 ****        13.7500   6.7500 -11.5000 Du        
    138 ****        14.0000  -3.5000  -2.0000 Du        
    139 ****        14.0000  -3.5000  -1.7500 Du        
    140 ****        14.0000  -3.5000  -1.5000 Du        
    141 ****        14.0000  -3.5000  -1.2500 Du        
    142 ****        14.0000  -3.2500  -2.2500 Du        
    143 ****        14.0000  -3.2500  -2.0000 Du        
    144 ****        14.0000  -3.2500  -1.7500 Du        
    145 ****        14.0000  -3.2500  -1.5000 Du        
    146 ****        14.0000  -3.0000  -2.5000 Du        
    147 ****        14.0000  -3.0000  -2.2500 Du        
    148 ****        14.0000  -3.0000  -2.0000 Du        
    149 ****        14.0000  -3.0000  -1.7500 Du        
    150 ****        14.0000  -3.0000  -1.5000 Du        
    151 ****        14.0000  -2.7500  -2.5000 Du        
    152 ****        14.0000  -2.7500  -2.2500 Du        
    153 ****        14.0000  -2.7500  -2.0000 Du        
    154 ****        14.0000  -2.7500  -1.7500 Du        
    155 ****        14.0000  -2.7500  -1.5000 Du        
    156 ****        14.0000  -2.5000  -2.5000 Du        
    157 ****        14.0000  -2.5000  -2.2500 Du        
    158 ****        14.0000  -2.5000  -2.0000 Du        
    159 ****        14.0000  -2.5000  -1.7500 Du        
    160 ****        14.0000  -2.2500  -2.0000 Du        
    161 ****        14.0000   5.2500 -12.2500 Du        
    162 ****        14.0000   5.2500 -12.0000 Du        
    163 ****        14.0000   5.2500 -11.7500 Du        
    164 ****        14.0000   5.2500 -11.5000 Du        
    165 ****        14.0000   5.2500 -11.2500 Du        
    166 ****        14.0000   5.5000 -12.7500 Du        
    167 ****        14.0000   5.5000 -12.5000 Du        
    168 ****        14.0000   5.5000 -12.2500 Du        
    169 ****        14.0000   5.5000 -12.0000 Du        
    170 ****        14.0000   5.5000 -11.7500 Du        
    171 ****        14.0000   5.5000 -11.5000 Du        
    172 ****        14.0000   5.5000 -11.2500 Du        
    173 ****        14.0000   5.5000 -11.0000 Du        
    174 ****        14.0000   5.7500 -13.0000 Du        
    175 ****        14.0000   5.7500 -12.7500 Du        
    176 ****        14.0000   5.7500 -12.5000 Du        
    177 ****        14.0000   5.7500 -12.2500 Du        
    178 ****        14.0000   5.7500 -12.0000 Du        
    179 ****        14.0000   5.7500 -11.7500 Du        
    180 ****        14.0000   5.7500 -11.5000 Du        
    181 ****        14.0000   5.7500 -11.2500 Du        
    182 ****        14.0000   5.7500 -11.0000 Du        
    183 ****        14.0000   5.7500 -10.7500 Du        
    184 ****        14.0000   6.0000 -13.0000 Du        
    185 ****        14.0000   6.0000 -12.7500 Du        
    186 ****        14.0000   6.0000 -12.5000 Du        
    187 ****        14.0000   6.0000 -12.2500 Du        
    188 ****        14.0000   6.0000 -12.0000 Du        
    189 ****        14.0000   6.0000 -11.7500 Du        
    190 ****        14.0000   6.0000 -11.5000 Du        
    191 ****        14.0000   6.0000 -11.2500 Du        
    192 ****        14.0000   6.0000 -11.0000 Du        
    193 ****        14.0000   6.0000 -10.7500 Du        
    194 ****        14.0000   6.2500 -13.2500 Du        
    195 ****        14.0000   6.2500 -13.0000 Du        
    196 ****        14.0000   6.2500 -12.7500 Du        
    197 ****        14.0000   6.2500 -12.5000 Du        
    198 ****        14.0000   6.2500 -12.2500 Du        
    199 ****        14.0000   6.2500 -12.0000 Du        
    200 ****        14.0000   6.2500 -11.7500 Du        
    201 ****        14.0000   6.2500 -11.5000 Du        
    202 ****        14.0000   6.2500 -11.2500 Du        
    203 ****        14.0000   6.2500 -11.0000 Du        
    204 ****        14.0000   6.2500 -10.7500 Du        
    205 ****        14.0000   6.5000 -13.5000 Du        
    206 ****        14.0000   6.5000 -13.2500 Du        
    207 ****        14.0000   6.5000 -13.0000 Du        
    208 ****        14.0000   6.5000 -12.7500 Du        
    209 ****        14.0000   6.5000 -12.5000 Du        
    210 ****        14.0000   6.5000 -12.2500 Du        
    211 ****        14.0000   6.5000 -12.0000 Du        
    212 ****        14.0000   6.5000 -11.7500 Du        
    213 ****        14.0000   6.5000 -11.5000 Du        
    214 ****        14.0000   6.5000 -11.2500 Du        
    215 ****        14.0000   6.5000 -11.0000 Du        
    216 ****        14.0000   6.7500 -13.5000 Du        
    217 ****        14.0000   6.7500 -13.2500 Du        
    218 ****        14.0000   6.7500 -13.0000 Du        
    219 ****        14.0000   6.7500 -12.7500 Du        
    220 ****        14.0000   6.7500 -12.5000 Du        
    221 ****        14.0000   6.7500 -12.2500 Du        
    222 ****        14.0000   6.7500 -12.0000 Du        
    223 ****        14.0000   6.7500 -11.7500 Du        
    224 ****        14.0000   6.7500 -11.5000 Du        
    225 ****        14.0000   7.0000 -13.5000 Du        
    226 ****        14.0000   7.0000 -13.2500 Du        
    227 ****        14.0000   7.0000 -13.0000 Du        
    228 ****        14.0000   7.0000 -12.7500 Du        
    229 ****        14.0000   7.0000 -12.5000 Du        
    230 ****        14.0000   7.0000 -12.2500 Du        
    231 ****        14.2500  -3.5000  -1.7500 Du        
    232 ****        14.2500  -3.5000  -1.5000 Du        
    233 ****        14.2500  -3.5000  -1.2500 Du        
    234 ****        14.2500  -3.2500  -2.2500 Du        
    235 ****        14.2500  -3.2500  -2.0000 Du        
    236 ****        14.2500  -3.2500  -1.7500 Du        
    237 ****        14.2500  -3.2500  -1.5000 Du        
    238 ****        14.2500  -3.0000  -2.2500 Du        
    239 ****        14.2500  -3.0000  -2.0000 Du        
    240 ****        14.2500  -3.0000  -1.7500 Du        
    241 ****        14.2500  -3.0000  -1.5000 Du        
    242 ****        14.2500  -2.7500  -2.5000 Du        
    243 ****        14.2500  -2.7500  -2.2500 Du        
    244 ****        14.2500  -2.7500  -2.0000 Du        
    245 ****        14.2500  -2.7500  -1.7500 Du        
    246 ****        14.2500  -2.5000  -2.2500 Du        
    247 ****        14.2500  -2.5000  -2.0000 Du        
    248 ****        14.2500  -2.5000  -1.7500 Du        
    249 ****        14.2500  -2.2500  -2.0000 Du        
    250 ****        14.2500   4.5000  -4.2500 Du        
    251 ****        14.2500   4.7500 -12.0000 Du        
    252 ****        14.2500   4.7500 -11.7500 Du        
    253 ****        14.2500   4.7500  -4.5000 Du        
    254 ****        14.2500   4.7500  -4.2500 Du        
    255 ****        14.2500   5.0000 -12.5000 Du        
    256 ****        14.2500   5.0000 -12.2500 Du        
    257 ****        14.2500   5.0000 -12.0000 Du        
    258 ****        14.2500   5.0000 -11.7500 Du        
    259 ****        14.2500   5.0000 -11.5000 Du        
    260 ****        14.2500   5.0000 -11.2500 Du        
    261 ****        14.2500   5.0000  -4.2500 Du        
    262 ****        14.2500   5.2500 -12.7500 Du        
    263 ****        14.2500   5.2500 -12.5000 Du        
    264 ****        14.2500   5.2500 -12.2500 Du        
    265 ****        14.2500   5.2500 -12.0000 Du        
    266 ****        14.2500   5.2500 -11.7500 Du        
    267 ****        14.2500   5.2500 -11.5000 Du        
    268 ****        14.2500   5.2500 -11.2500 Du        
    269 ****        14.2500   5.2500 -11.0000 Du        
    270 ****        14.2500   5.5000 -12.7500 Du        
    271 ****        14.2500   5.5000 -12.5000 Du        
    272 ****        14.2500   5.5000 -12.2500 Du        
    273 ****        14.2500   5.5000 -12.0000 Du        
    274 ****        14.2500   5.5000 -11.7500 Du        
    275 ****        14.2500   5.5000 -11.5000 Du        
    276 ****        14.2500   5.5000 -11.2500 Du        
    277 ****        14.2500   5.5000 -11.0000 Du        
    278 ****        14.2500   5.5000 -10.7500 Du        
    279 ****        14.2500   5.7500 -13.0000 Du        
    280 ****        14.2500   5.7500 -12.7500 Du        
    281 ****        14.2500   5.7500 -12.5000 Du        
    282 ****        14.2500   5.7500 -12.2500 Du        
    283 ****        14.2500   5.7500 -12.0000 Du        
    284 ****        14.2500   5.7500 -11.7500 Du        
    285 ****        14.2500   5.7500 -11.5000 Du        
    286 ****        14.2500   5.7500 -11.2500 Du        
    287 ****        14.2500   5.7500 -11.0000 Du        
    288 ****        14.2500   5.7500 -10.7500 Du        
    289 ****        14.2500   5.7500 -10.5000 Du        
    290 ****        14.2500   6.0000 -13.0000 Du        
    291 ****        14.2500   6.0000 -12.7500 Du        
    292 ****        14.2500   6.0000 -12.5000 Du        
    293 ****        14.2500   6.0000 -12.2500 Du        
    294 ****        14.2500   6.0000 -12.0000 Du        
    295 ****        14.2500   6.0000 -11.7500 Du        
    296 ****        14.2500   6.0000 -11.5000 Du        
    297 ****        14.2500   6.0000 -11.2500 Du        
    298 ****        14.2500   6.0000 -11.0000 Du        
    299 ****        14.2500   6.0000 -10.7500 Du        
    300 ****        14.2500   6.0000 -10.5000 Du        
    301 ****        14.2500   6.2500 -13.2500 Du        
    302 ****        14.2500   6.2500 -13.0000 Du        
    303 ****        14.2500   6.2500 -12.7500 Du        
    304 ****        14.2500   6.2500 -12.5000 Du        
    305 ****        14.2500   6.2500 -12.2500 Du        
    306 ****        14.2500   6.2500 -12.0000 Du        
    307 ****        14.2500   6.2500 -11.7500 Du        
    308 ****        14.2500   6.2500 -11.5000 Du        
    309 ****        14.2500   6.2500 -11.2500 Du        
    310 ****        14.2500   6.2500 -11.0000 Du        
    311 ****        14.2500   6.2500 -10.7500 Du        
    312 ****        14.2500   6.5000 -13.5000 Du        
    313 ****        14.2500   6.5000 -13.2500 Du        
    314 ****        14.2500   6.5000 -13.0000 Du        
    315 ****        14.2500   6.5000 -12.7500 Du        
    316 ****        14.2500   6.5000 -12.5000 Du        
    317 ****        14.2500   6.5000 -12.2500 Du        
    318 ****        14.2500   6.5000 -12.0000 Du        
    319 ****        14.2500   6.5000 -11.7500 Du        
    320 ****        14.2500   6.5000 -11.5000 Du        
    321 ****        14.2500   6.5000 -11.2500 Du        
    322 ****        14.2500   6.7500 -13.5000 Du        
    323 ****        14.2500   6.7500 -13.2500 Du        
    324 ****        14.2500   6.7500 -13.0000 Du        
    325 ****        14.2500   6.7500 -12.7500 Du        
    326 ****        14.2500   6.7500 -12.5000 Du        
    327 ****        14.2500   6.7500 -12.2500 Du        
    328 ****        14.2500   6.7500 -12.0000 Du        
    329 ****        14.2500   6.7500 -11.7500 Du        
    330 ****        14.2500   7.0000 -13.7500 Du        
    331 ****        14.2500   7.0000 -13.5000 Du        
    332 ****        14.2500   7.0000 -13.2500 Du        
    333 ****        14.2500   7.0000 -13.0000 Du        
    334 ****        14.2500   7.0000 -12.7500 Du        
    335 ****        14.2500   7.0000 -12.5000 Du        
    336 ****        14.2500   7.0000 -12.2500 Du        
    337 ****        14.2500   7.2500 -13.7500 Du        
    338 ****        14.5000  -3.5000  -1.5000 Du        
    339 ****        14.5000  -3.2500  -1.5000 Du        
    340 ****        14.5000  -3.0000  -2.0000 Du        
    341 ****        14.5000  -2.7500  -2.0000 Du        
    342 ****        14.5000  -2.5000  -2.2500 Du        
    343 ****        14.5000  -2.5000  -2.0000 Du        
    344 ****        14.5000   4.2500  -4.5000 Du        
    345 ****        14.5000   4.2500  -4.2500 Du        
    346 ****        14.5000   4.5000  -4.5000 Du        
    347 ****        14.5000   4.5000  -4.2500 Du        
    348 ****        14.5000   4.5000  -4.0000 Du        
    349 ****        14.5000   4.7500 -11.5000 Du        
    350 ****        14.5000   4.7500 -11.2500 Du        
    351 ****        14.5000   4.7500  -4.5000 Du        
    352 ****        14.5000   4.7500  -4.2500 Du        
    353 ****        14.5000   4.7500  -4.0000 Du        
    354 ****        14.5000   5.0000 -12.0000 Du        
    355 ****        14.5000   5.0000 -11.7500 Du        
    356 ****        14.5000   5.0000 -11.5000 Du        
    357 ****        14.5000   5.0000 -11.2500 Du        
    358 ****        14.5000   5.0000 -11.0000 Du        
    359 ****        14.5000   5.0000  -4.2500 Du        
    360 ****        14.5000   5.0000  -4.0000 Du        
    361 ****        14.5000   5.2500 -12.2500 Du        
    362 ****        14.5000   5.2500 -12.0000 Du        
    363 ****        14.5000   5.2500 -11.7500 Du        
    364 ****        14.5000   5.2500 -11.5000 Du        
    365 ****        14.5000   5.2500 -11.2500 Du        
    366 ****        14.5000   5.2500 -11.0000 Du        
    367 ****        14.5000   5.2500 -10.7500 Du        
    368 ****        14.5000   5.5000 -12.5000 Du        
    369 ****        14.5000   5.5000 -12.2500 Du        
    370 ****        14.5000   5.5000 -12.0000 Du        
    371 ****        14.5000   5.5000 -11.7500 Du        
    372 ****        14.5000   5.5000 -11.5000 Du        
    373 ****        14.5000   5.5000 -11.2500 Du        
    374 ****        14.5000   5.5000 -11.0000 Du        
    375 ****        14.5000   5.5000 -10.7500 Du        
    376 ****        14.5000   5.5000 -10.5000 Du        
    377 ****        14.5000   5.7500 -12.7500 Du        
    378 ****        14.5000   5.7500 -12.5000 Du        
    379 ****        14.5000   5.7500 -12.2500 Du        
    380 ****        14.5000   5.7500 -12.0000 Du        
    381 ****        14.5000   5.7500 -11.7500 Du        
    382 ****        14.5000   5.7500 -11.5000 Du        
    383 ****        14.5000   5.7500 -11.2500 Du        
    384 ****        14.5000   5.7500 -11.0000 Du        
    385 ****        14.5000   5.7500 -10.7500 Du        
    386 ****        14.5000   5.7500 -10.5000 Du        
    387 ****        14.5000   6.0000 -12.7500 Du        
    388 ****        14.5000   6.0000 -12.5000 Du        
    389 ****        14.5000   6.0000 -12.2500 Du        
    390 ****        14.5000   6.0000 -12.0000 Du        
    391 ****        14.5000   6.0000 -11.7500 Du        
    392 ****        14.5000   6.0000 -11.5000 Du        
    393 ****        14.5000   6.0000 -11.2500 Du        
    394 ****        14.5000   6.0000 -11.0000 Du        
    395 ****        14.5000   6.0000 -10.7500 Du        
    396 ****        14.5000   6.2500 -13.0000 Du        
    397 ****        14.5000   6.2500 -12.7500 Du        
    398 ****        14.5000   6.2500 -12.5000 Du        
    399 ****        14.5000   6.2500 -12.2500 Du        
    400 ****        14.5000   6.2500 -12.0000 Du        
    401 ****        14.5000   6.2500 -11.7500 Du        
    402 ****        14.5000   6.2500 -11.5000 Du        
    403 ****        14.5000   6.2500 -11.2500 Du        
    404 ****        14.5000   6.2500 -11.0000 Du        
    405 ****        14.5000   6.5000 -13.0000 Du        
    406 ****        14.5000   6.5000 -12.7500 Du        
    407 ****        14.5000   6.5000 -12.5000 Du        
    408 ****        14.5000   6.5000 -12.2500 Du        
    409 ****        14.5000   6.5000 -12.0000 Du        
    410 ****        14.5000   6.5000 -11.7500 Du        
    411 ****        14.5000   6.5000 -11.5000 Du        
    412 ****        14.5000   6.7500 -13.2500 Du        
    413 ****        14.5000   6.7500 -13.0000 Du        
    414 ****        14.5000   6.7500 -12.7500 Du        
    415 ****        14.5000   6.7500 -12.5000 Du        
    416 ****        14.5000   6.7500 -12.2500 Du        
    417 ****        14.5000   6.7500 -12.0000 Du        
    418 ****        14.5000   7.0000 -13.5000 Du        
    419 ****        14.5000   7.0000 -13.2500 Du        
    420 ****        14.5000   7.0000 -13.0000 Du        
    421 ****        14.5000   7.0000 -12.7500 Du        
    422 ****        14.5000   7.0000 -12.5000 Du        
    423 ****        14.7500   4.0000  -4.5000 Du        
    424 ****        14.7500   4.0000  -4.2500 Du        
    425 ****        14.7500   4.2500  -4.7500 Du        
    426 ****        14.7500   4.2500  -4.5000 Du        
    427 ****        14.7500   4.2500  -4.2500 Du        
    428 ****        14.7500   4.2500  -4.0000 Du        
    429 ****        14.7500   4.5000  -4.7500 Du        
    430 ****        14.7500   4.5000  -4.5000 Du        
    431 ****        14.7500   4.5000  -4.2500 Du        
    432 ****        14.7500   4.5000  -4.0000 Du        
    433 ****        14.7500   4.5000  -3.7500 Du        
    434 ****        14.7500   4.7500 -11.5000 Du        
    435 ****        14.7500   4.7500 -11.2500 Du        
    436 ****        14.7500   4.7500 -11.0000 Du        
    437 ****        14.7500   4.7500  -4.5000 Du        
    438 ****        14.7500   4.7500  -4.2500 Du        
    439 ****        14.7500   4.7500  -4.0000 Du        
    440 ****        14.7500   4.7500  -3.7500 Du        
    441 ****        14.7500   5.0000 -12.0000 Du        
    442 ****        14.7500   5.0000 -11.7500 Du        
    443 ****        14.7500   5.0000 -11.5000 Du        
    444 ****        14.7500   5.0000 -11.2500 Du        
    445 ****        14.7500   5.0000 -11.0000 Du        
    446 ****        14.7500   5.0000 -10.7500 Du        
    447 ****        14.7500   5.0000  -4.2500 Du        
    448 ****        14.7500   5.0000  -4.0000 Du        
    449 ****        14.7500   5.0000  -3.7500 Du        
    450 ****        14.7500   5.0000  -3.5000 Du        
    451 ****        14.7500   5.2500 -12.2500 Du        
    452 ****        14.7500   5.2500 -12.0000 Du        
    453 ****        14.7500   5.2500 -11.7500 Du        
    454 ****        14.7500   5.2500 -11.5000 Du        
    455 ****        14.7500   5.2500 -11.2500 Du        
    456 ****        14.7500   5.2500 -11.0000 Du        
    457 ****        14.7500   5.2500 -10.7500 Du        
    458 ****        14.7500   5.2500 -10.5000 Du        
    459 ****        14.7500   5.2500  -3.7500 Du        
    460 ****        14.7500   5.2500  -3.5000 Du        
    461 ****        14.7500   5.5000 -12.5000 Du        
    462 ****        14.7500   5.5000 -12.2500 Du        
    463 ****        14.7500   5.5000 -12.0000 Du        
    464 ****        14.7500   5.5000 -11.7500 Du        
    465 ****        14.7500   5.5000 -11.5000 Du        
    466 ****        14.7500   5.5000 -11.2500 Du        
    467 ****        14.7500   5.5000 -11.0000 Du        
    468 ****        14.7500   5.5000 -10.7500 Du        
    469 ****        14.7500   5.5000 -10.5000 Du        
    470 ****        14.7500   5.7500 -12.5000 Du        
    471 ****        14.7500   5.7500 -12.2500 Du        
    472 ****        14.7500   5.7500 -12.0000 Du        
    473 ****        14.7500   5.7500 -11.7500 Du        
    474 ****        14.7500   5.7500 -11.5000 Du        
    475 ****        14.7500   5.7500 -11.2500 Du        
    476 ****        14.7500   5.7500 -11.0000 Du        
    477 ****        14.7500   5.7500 -10.7500 Du        
    478 ****        14.7500   5.7500 -10.5000 Du        
    479 ****        14.7500   6.0000 -12.7500 Du        
    480 ****        14.7500   6.0000 -12.5000 Du        
    481 ****        14.7500   6.0000 -12.2500 Du        
    482 ****        14.7500   6.0000 -12.0000 Du        
    483 ****        14.7500   6.0000 -11.7500 Du        
    484 ****        14.7500   6.0000 -11.5000 Du        
    485 ****        14.7500   6.0000 -11.2500 Du        
    486 ****        14.7500   6.0000 -11.0000 Du        
    487 ****        14.7500   6.0000 -10.7500 Du        
    488 ****        14.7500   6.2500 -13.0000 Du        
    489 ****        14.7500   6.2500 -12.7500 Du        
    490 ****        14.7500   6.2500 -12.5000 Du        
    491 ****        14.7500   6.2500 -12.2500 Du        
    492 ****        14.7500   6.2500 -12.0000 Du        
    493 ****        14.7500   6.2500 -11.7500 Du        
    494 ****        14.7500   6.2500 -11.5000 Du        
    495 ****        14.7500   6.2500 -11.2500 Du        
    496 ****        14.7500   6.5000 -12.7500 Du        
    497 ****        14.7500   6.5000 -12.5000 Du        
    498 ****        14.7500   6.5000 -12.2500 Du        
    499 ****        14.7500   6.5000 -12.0000 Du        
    500 ****        14.7500   6.5000 -11.7500 Du        
    501 ****        14.7500   6.7500 -13.2500 Du        
    502 ****        14.7500   6.7500 -13.0000 Du        
    503 ****        14.7500   6.7500 -12.7500 Du        
    504 ****        14.7500   6.7500 -12.5000 Du        
    505 ****        14.7500   6.7500 -12.2500 Du        
    506 ****        14.7500   7.0000 -13.2500 Du        
    507 ****        14.7500   7.0000 -13.0000 Du        
    508 ****        14.7500   7.0000 -12.7500 Du        
    509 ****        14.7500   7.0000 -12.5000 Du        
    510 ****        15.0000   4.0000  -4.7500 Du        
    511 ****        15.0000   4.0000  -4.5000 Du        
    512 ****        15.0000   4.0000  -4.2500 Du        
    513 ****        15.0000   4.0000  -4.0000 Du        
    514 ****        15.0000   4.2500  -5.0000 Du        
    515 ****        15.0000   4.2500  -4.7500 Du        
    516 ****        15.0000   4.2500  -4.5000 Du        
    517 ****        15.0000   4.2500  -4.2500 Du        
    518 ****        15.0000   4.2500  -4.0000 Du        
    519 ****        15.0000   4.2500  -3.7500 Du        
    520 ****        15.0000   4.5000  -5.0000 Du        
    521 ****        15.0000   4.5000  -4.7500 Du        
    522 ****        15.0000   4.5000  -4.5000 Du        
    523 ****        15.0000   4.5000  -4.2500 Du        
    524 ****        15.0000   4.5000  -4.0000 Du        
    525 ****        15.0000   4.5000  -3.7500 Du        
    526 ****        15.0000   4.5000  -3.5000 Du        
    527 ****        15.0000   4.7500 -11.7500 Du        
    528 ****        15.0000   4.7500 -11.5000 Du        
    529 ****        15.0000   4.7500 -11.2500 Du        
    530 ****        15.0000   4.7500 -11.0000 Du        
    531 ****        15.0000   4.7500 -10.7500 Du        
    532 ****        15.0000   4.7500  -4.5000 Du        
    533 ****        15.0000   4.7500  -4.2500 Du        
    534 ****        15.0000   4.7500  -4.0000 Du        
    535 ****        15.0000   4.7500  -3.7500 Du        
    536 ****        15.0000   4.7500  -3.5000 Du        
    537 ****        15.0000   4.7500  -3.2500 Du        
    538 ****        15.0000   5.0000 -11.7500 Du        
    539 ****        15.0000   5.0000 -11.5000 Du        
    540 ****        15.0000   5.0000 -11.2500 Du        
    541 ****        15.0000   5.0000 -11.0000 Du        
    542 ****        15.0000   5.0000 -10.7500 Du        
    543 ****        15.0000   5.0000 -10.5000 Du        
    544 ****        15.0000   5.0000  -4.2500 Du        
    545 ****        15.0000   5.0000  -4.0000 Du        
    546 ****        15.0000   5.0000  -3.7500 Du        
    547 ****        15.0000   5.0000  -3.5000 Du        
    548 ****        15.0000   5.0000  -3.2500 Du        
    549 ****        15.0000   5.2500 -12.0000 Du        
    550 ****        15.0000   5.2500 -11.7500 Du        
    551 ****        15.0000   5.2500 -11.5000 Du        
    552 ****        15.0000   5.2500 -11.2500 Du        
    553 ****        15.0000   5.2500 -11.0000 Du        
    554 ****        15.0000   5.2500 -10.7500 Du        
    555 ****        15.0000   5.2500 -10.5000 Du        
    556 ****        15.0000   5.2500 -10.2500 Du        
    557 ****        15.0000   5.2500  -3.7500 Du        
    558 ****        15.0000   5.2500  -3.5000 Du        
    559 ****        15.0000   5.2500  -3.2500 Du        
    560 ****        15.0000   5.2500  -3.0000 Du        
    561 ****        15.0000   5.5000 -12.5000 Du        
    562 ****        15.0000   5.5000 -12.2500 Du        
    563 ****        15.0000   5.5000 -12.0000 Du        
    564 ****        15.0000   5.5000 -11.7500 Du        
    565 ****        15.0000   5.5000 -11.5000 Du        
    566 ****        15.0000   5.5000 -11.2500 Du        
    567 ****        15.0000   5.5000 -11.0000 Du        
    568 ****        15.0000   5.5000 -10.7500 Du        
    569 ****        15.0000   5.5000 -10.5000 Du        
    570 ****        15.0000   5.5000  -3.5000 Du        
    571 ****        15.0000   5.5000  -3.2500 Du        
    572 ****        15.0000   5.5000  -3.0000 Du        
    573 ****        15.0000   5.7500 -12.5000 Du        
    574 ****        15.0000   5.7500 -12.2500 Du        
    575 ****        15.0000   5.7500 -12.0000 Du        
    576 ****        15.0000   5.7500 -11.7500 Du        
    577 ****        15.0000   5.7500 -11.5000 Du        
    578 ****        15.0000   5.7500 -11.2500 Du        
    579 ****        15.0000   5.7500 -11.0000 Du        
    580 ****        15.0000   5.7500 -10.7500 Du        
    581 ****        15.0000   5.7500 -10.5000 Du        
    582 ****        15.0000   5.7500  -3.2500 Du        
    583 ****        15.0000   5.7500  -3.0000 Du        
    584 ****        15.0000   6.0000 -12.5000 Du        
    585 ****        15.0000   6.0000 -12.2500 Du        
    586 ****        15.0000   6.0000 -12.0000 Du        
    587 ****        15.0000   6.0000 -11.7500 Du        
    588 ****        15.0000   6.0000 -11.5000 Du        
    589 ****        15.0000   6.0000 -11.2500 Du        
    590 ****        15.0000   6.0000 -11.0000 Du        
    591 ****        15.0000   6.2500 -12.5000 Du        
    592 ****        15.0000   6.2500 -12.2500 Du        
    593 ****        15.0000   6.2500 -12.0000 Du        
    594 ****        15.0000   6.2500 -11.7500 Du        
    595 ****        15.0000   6.2500 -11.5000 Du        
    596 ****        15.0000   6.2500 -11.2500 Du        
    597 ****        15.0000   6.5000 -12.7500 Du        
    598 ****        15.0000   6.5000 -12.5000 Du        
    599 ****        15.0000   6.5000 -12.2500 Du        
    600 ****        15.0000   6.5000 -12.0000 Du        
    601 ****        15.0000   6.7500 -13.0000 Du        
    602 ****        15.0000   6.7500 -12.7500 Du        
    603 ****        15.0000   6.7500 -12.5000 Du        
    604 ****        15.0000   7.0000 -13.0000 Du        
    605 ****        15.0000   7.0000 -12.7500 Du        
    606 ****        15.2500   3.7500  -4.7500 Du        
    607 ****        15.2500   3.7500  -4.5000 Du        
    608 ****        15.2500   3.7500  -4.2500 Du        
    609 ****        15.2500   3.7500  -4.0000 Du        
    610 ****        15.2500   4.0000  -5.2500 Du        
    611 ****        15.2500   4.0000  -5.0000 Du        
    612 ****        15.2500   4.0000  -4.7500 Du        
    613 ****        15.2500   4.0000  -4.5000 Du        
    614 ****        15.2500   4.0000  -4.2500 Du        
    615 ****        15.2500   4.0000  -4.0000 Du        
    616 ****        15.2500   4.0000  -3.7500 Du        
    617 ****        15.2500   4.2500  -5.2500 Du        
    618 ****        15.2500   4.2500  -5.0000 Du        
    619 ****        15.2500   4.2500  -4.7500 Du        
    620 ****        15.2500   4.2500  -4.5000 Du        
    621 ****        15.2500   4.2500  -4.2500 Du        
    622 ****        15.2500   4.2500  -4.0000 Du        
    623 ****        15.2500   4.2500  -3.7500 Du        
    624 ****        15.2500   4.2500  -3.5000 Du        
    625 ****        15.2500   4.2500  -3.2500 Du        
    626 ****        15.2500   4.5000  -5.0000 Du        
    627 ****        15.2500   4.5000  -4.7500 Du        
    628 ****        15.2500   4.5000  -4.5000 Du        
    629 ****        15.2500   4.5000  -4.2500 Du        
    630 ****        15.2500   4.5000  -4.0000 Du        
    631 ****        15.2500   4.5000  -3.7500 Du        
    632 ****        15.2500   4.5000  -3.5000 Du        
    633 ****        15.2500   4.5000  -3.2500 Du        
    634 ****        15.2500   4.5000  -3.0000 Du        
    635 ****        15.2500   4.7500 -11.2500 Du        
    636 ****        15.2500   4.7500 -11.0000 Du        
    637 ****        15.2500   4.7500 -10.7500 Du        
    638 ****        15.2500   4.7500 -10.5000 Du        
    639 ****        15.2500   4.7500  -4.7500 Du        
    640 ****        15.2500   4.7500  -4.5000 Du        
    641 ****        15.2500   4.7500  -4.2500 Du        
    642 ****        15.2500   4.7500  -4.0000 Du        
    643 ****        15.2500   4.7500  -3.7500 Du        
    644 ****        15.2500   4.7500  -3.5000 Du        
    645 ****        15.2500   4.7500  -3.2500 Du        
    646 ****        15.2500   4.7500  -3.0000 Du        
    647 ****        15.2500   4.7500  -2.7500 Du        
    648 ****        15.2500   5.0000 -11.5000 Du        
    649 ****        15.2500   5.0000 -11.2500 Du        
    650 ****        15.2500   5.0000 -11.0000 Du        
    651 ****        15.2500   5.0000 -10.7500 Du        
    652 ****        15.2500   5.0000 -10.5000 Du        
    653 ****        15.2500   5.0000 -10.2500 Du        
    654 ****        15.2500   5.0000  -4.2500 Du        
    655 ****        15.2500   5.0000  -4.0000 Du        
    656 ****        15.2500   5.0000  -3.7500 Du        
    657 ****        15.2500   5.0000  -3.5000 Du        
    658 ****        15.2500   5.0000  -3.2500 Du        
    659 ****        15.2500   5.0000  -3.0000 Du        
    660 ****        15.2500   5.0000  -2.7500 Du        
    661 ****        15.2500   5.0000  -2.5000 Du        
    662 ****        15.2500   5.0000  -2.2500 Du        
    663 ****        15.2500   5.2500 -12.0000 Du        
    664 ****        15.2500   5.2500 -11.7500 Du        
    665 ****        15.2500   5.2500 -11.5000 Du        
    666 ****        15.2500   5.2500 -11.2500 Du        
    667 ****        15.2500   5.2500 -11.0000 Du        
    668 ****        15.2500   5.2500 -10.7500 Du        
    669 ****        15.2500   5.2500 -10.5000 Du        
    670 ****        15.2500   5.2500 -10.2500 Du        
    671 ****        15.2500   5.2500  -3.7500 Du        
    672 ****        15.2500   5.2500  -3.5000 Du        
    673 ****        15.2500   5.2500  -3.2500 Du        
    674 ****        15.2500   5.2500  -3.0000 Du        
    675 ****        15.2500   5.2500  -2.7500 Du        
    676 ****        15.2500   5.2500  -2.5000 Du        
    677 ****        15.2500   5.2500  -2.2500 Du        
    678 ****        15.2500   5.5000 -12.0000 Du        
    679 ****        15.2500   5.5000 -11.7500 Du        
    680 ****        15.2500   5.5000 -11.5000 Du        
    681 ****        15.2500   5.5000 -11.2500 Du        
    682 ****        15.2500   5.5000 -11.0000 Du        
    683 ****        15.2500   5.5000 -10.7500 Du        
    684 ****        15.2500   5.5000 -10.5000 Du        
    685 ****        15.2500   5.5000  -3.5000 Du        
    686 ****        15.2500   5.5000  -3.2500 Du        
    687 ****        15.2500   5.5000  -3.0000 Du        
    688 ****        15.2500   5.5000  -2.7500 Du        
    689 ****        15.2500   5.5000  -2.5000 Du        
    690 ****        15.2500   5.5000  -2.2500 Du        
    691 ****        15.2500   5.5000  -2.0000 Du        
    692 ****        15.2500   5.7500 -12.2500 Du        
    693 ****        15.2500   5.7500 -12.0000 Du        
    694 ****        15.2500   5.7500 -11.7500 Du        
    695 ****        15.2500   5.7500 -11.5000 Du        
    696 ****        15.2500   5.7500 -11.2500 Du        
    697 ****        15.2500   5.7500 -11.0000 Du        
    698 ****        15.2500   5.7500 -10.7500 Du        
    699 ****        15.2500   5.7500  -3.2500 Du        
    700 ****        15.2500   5.7500  -3.0000 Du        
    701 ****        15.2500   5.7500  -2.7500 Du        
    702 ****        15.2500   5.7500  -2.5000 Du        
    703 ****        15.2500   5.7500  -2.2500 Du        
    704 ****        15.2500   5.7500  -2.0000 Du        
    705 ****        15.2500   6.0000 -12.5000 Du        
    706 ****        15.2500   6.0000 -12.2500 Du        
    707 ****        15.2500   6.0000 -12.0000 Du        
    708 ****        15.2500   6.0000 -11.7500 Du        
    709 ****        15.2500   6.0000 -11.5000 Du        
    710 ****        15.2500   6.0000 -11.2500 Du        
    711 ****        15.2500   6.0000  -2.5000 Du        
    712 ****        15.2500   6.0000  -2.2500 Du        
    713 ****        15.2500   6.0000  -2.0000 Du        
    714 ****        15.2500   6.2500 -12.5000 Du        
    715 ****        15.2500   6.2500 -12.2500 Du        
    716 ****        15.2500   6.2500 -12.0000 Du        
    717 ****        15.2500   6.2500 -11.7500 Du        
    718 ****        15.2500   6.5000 -12.2500 Du        
    719 ****        15.2500   6.5000 -12.0000 Du        
    720 ****        15.5000   3.5000  -4.5000 Du        
    721 ****        15.5000   3.5000  -4.2500 Du        
    722 ****        15.5000   3.5000  -4.0000 Du        
    723 ****        15.5000   3.7500  -5.2500 Du        
    724 ****        15.5000   3.7500  -5.0000 Du        
    725 ****        15.5000   3.7500  -4.7500 Du        
    726 ****        15.5000   3.7500  -4.5000 Du        
    727 ****        15.5000   3.7500  -4.2500 Du        
    728 ****        15.5000   3.7500  -4.0000 Du        
    729 ****        15.5000   3.7500  -3.7500 Du        
    730 ****        15.5000   3.7500  -3.5000 Du        
    731 ****        15.5000   4.0000  -5.5000 Du        
    732 ****        15.5000   4.0000  -5.2500 Du        
    733 ****        15.5000   4.0000  -5.0000 Du        
    734 ****        15.5000   4.0000  -4.7500 Du        
    735 ****        15.5000   4.0000  -4.5000 Du        
    736 ****        15.5000   4.0000  -4.2500 Du        
    737 ****        15.5000   4.0000  -4.0000 Du        
    738 ****        15.5000   4.0000  -3.7500 Du        
    739 ****        15.5000   4.0000  -3.5000 Du        
    740 ****        15.5000   4.0000  -3.2500 Du        
    741 ****        15.5000   4.2500  -5.5000 Du        
    742 ****        15.5000   4.2500  -5.2500 Du        
    743 ****        15.5000   4.2500  -5.0000 Du        
    744 ****        15.5000   4.2500  -4.7500 Du        
    745 ****        15.5000   4.2500  -4.5000 Du        
    746 ****        15.5000   4.2500  -4.2500 Du        
    747 ****        15.5000   4.2500  -4.0000 Du        
    748 ****        15.5000   4.2500  -3.7500 Du        
    749 ****        15.5000   4.2500  -3.5000 Du        
    750 ****        15.5000   4.2500  -3.2500 Du        
    751 ****        15.5000   4.2500  -3.0000 Du        
    752 ****        15.5000   4.5000  -5.2500 Du        
    753 ****        15.5000   4.5000  -5.0000 Du        
    754 ****        15.5000   4.5000  -4.7500 Du        
    755 ****        15.5000   4.5000  -4.5000 Du        
    756 ****        15.5000   4.5000  -4.2500 Du        
    757 ****        15.5000   4.5000  -4.0000 Du        
    758 ****        15.5000   4.5000  -3.7500 Du        
    759 ****        15.5000   4.5000  -3.5000 Du        
    760 ****        15.5000   4.5000  -3.2500 Du        
    761 ****        15.5000   4.5000  -3.0000 Du        
    762 ****        15.5000   4.5000  -2.7500 Du        
    763 ****        15.5000   4.5000  -2.5000 Du        
    764 ****        15.5000   4.7500 -11.0000 Du        
    765 ****        15.5000   4.7500 -10.7500 Du        
    766 ****        15.5000   4.7500 -10.5000 Du        
    767 ****        15.5000   4.7500  -4.7500 Du        
    768 ****        15.5000   4.7500  -4.5000 Du        
    769 ****        15.5000   4.7500  -4.2500 Du        
    770 ****        15.5000   4.7500  -4.0000 Du        
    771 ****        15.5000   4.7500  -3.7500 Du        
    772 ****        15.5000   4.7500  -3.5000 Du        
    773 ****        15.5000   4.7500  -3.2500 Du        
    774 ****        15.5000   4.7500  -3.0000 Du        
    775 ****        15.5000   4.7500  -2.7500 Du        
    776 ****        15.5000   4.7500  -2.5000 Du        
    777 ****        15.5000   4.7500  -2.2500 Du        
    778 ****        15.5000   4.7500  -2.0000 Du        
    779 ****        15.5000   5.0000 -11.2500 Du        
    780 ****        15.5000   5.0000 -11.0000 Du        
    781 ****        15.5000   5.0000 -10.7500 Du        
    782 ****        15.5000   5.0000 -10.5000 Du        
    783 ****        15.5000   5.0000  -4.2500 Du        
    784 ****        15.5000   5.0000  -4.0000 Du        
    785 ****        15.5000   5.0000  -3.7500 Du        
    786 ****        15.5000   5.0000  -3.5000 Du        
    787 ****        15.5000   5.0000  -3.2500 Du        
    788 ****        15.5000   5.0000  -3.0000 Du        
    789 ****        15.5000   5.0000  -2.7500 Du        
    790 ****        15.5000   5.0000  -2.5000 Du        
    791 ****        15.5000   5.0000  -2.2500 Du        
    792 ****        15.5000   5.0000  -2.0000 Du        
    793 ****        15.5000   5.2500 -11.5000 Du        
    794 ****        15.5000   5.2500 -11.2500 Du        
    795 ****        15.5000   5.2500 -11.0000 Du        
    796 ****        15.5000   5.2500 -10.7500 Du        
    797 ****        15.5000   5.2500  -3.7500 Du        
    798 ****        15.5000   5.2500  -3.5000 Du        
    799 ****        15.5000   5.2500  -3.2500 Du        
    800 ****        15.5000   5.2500  -3.0000 Du        
    801 ****        15.5000   5.2500  -2.7500 Du        
    802 ****        15.5000   5.2500  -2.5000 Du        
    803 ****        15.5000   5.2500  -2.2500 Du        
    804 ****        15.5000   5.2500  -2.0000 Du        
    805 ****        15.5000   5.2500  -1.7500 Du        
    806 ****        15.5000   5.5000 -11.5000 Du        
    807 ****        15.5000   5.5000 -11.2500 Du        
    808 ****        15.5000   5.5000 -11.0000 Du        
    809 ****        15.5000   5.5000  -3.5000 Du        
    810 ****        15.5000   5.5000  -3.2500 Du        
    811 ****        15.5000   5.5000  -3.0000 Du        
    812 ****        15.5000   5.5000  -2.7500 Du        
    813 ****        15.5000   5.5000  -2.5000 Du        
    814 ****        15.5000   5.5000  -2.2500 Du        
    815 ****        15.5000   5.5000  -2.0000 Du        
    816 ****        15.5000   5.5000  -1.7500 Du        
    817 ****        15.5000   5.7500 -11.5000 Du        
    818 ****        15.5000   5.7500 -11.2500 Du        
    819 ****        15.5000   5.7500  -3.0000 Du        
    820 ****        15.5000   5.7500  -2.7500 Du        
    821 ****        15.5000   5.7500  -2.5000 Du        
    822 ****        15.5000   5.7500  -2.2500 Du        
    823 ****        15.5000   5.7500  -2.0000 Du        
    824 ****        15.5000   5.7500  -1.7500 Du        
    825 ****        15.5000   6.0000  -2.2500 Du        
    826 ****        15.5000   6.0000  -2.0000 Du        
    827 ****        15.5000   6.0000  -1.7500 Du        
    828 ****        15.7500   3.5000  -5.0000 Du        
    829 ****        15.7500   3.5000  -4.7500 Du        
    830 ****        15.7500   3.5000  -4.5000 Du        
    831 ****        15.7500   3.5000  -4.2500 Du        
    832 ****        15.7500   3.5000  -4.0000 Du        
    833 ****        15.7500   3.5000  -3.7500 Du        
    834 ****        15.7500   3.5000  -3.5000 Du        
    835 ****        15.7500   3.7500  -5.7500 Du        
    836 ****        15.7500   3.7500  -5.5000 Du        
    837 ****        15.7500   3.7500  -5.2500 Du        
    838 ****        15.7500   3.7500  -5.0000 Du        
    839 ****        15.7500   3.7500  -4.7500 Du        
    840 ****        15.7500   3.7500  -4.5000 Du        
    841 ****        15.7500   3.7500  -4.2500 Du        
    842 ****        15.7500   3.7500  -4.0000 Du        
    843 ****        15.7500   3.7500  -3.7500 Du        
    844 ****        15.7500   3.7500  -3.5000 Du        
    845 ****        15.7500   3.7500  -3.2500 Du        
    846 ****        15.7500   3.7500  -3.0000 Du        
    847 ****        15.7500   4.0000  -6.2500 Du        
    848 ****        15.7500   4.0000  -6.0000 Du        
    849 ****        15.7500   4.0000  -5.7500 Du        
    850 ****        15.7500   4.0000  -5.5000 Du        
    851 ****        15.7500   4.0000  -5.2500 Du        
    852 ****        15.7500   4.0000  -5.0000 Du        
    853 ****        15.7500   4.0000  -4.7500 Du        
    854 ****        15.7500   4.0000  -4.5000 Du        
    855 ****        15.7500   4.0000  -4.2500 Du        
    856 ****        15.7500   4.0000  -4.0000 Du        
    857 ****        15.7500   4.0000  -3.7500 Du        
    858 ****        15.7500   4.0000  -3.5000 Du        
    859 ****        15.7500   4.0000  -3.2500 Du        
    860 ****        15.7500   4.0000  -3.0000 Du        
    861 ****        15.7500   4.0000  -2.7500 Du        
    862 ****        15.7500   4.2500  -6.0000 Du        
    863 ****        15.7500   4.2500  -5.7500 Du        
    864 ****        15.7500   4.2500  -5.5000 Du        
    865 ****        15.7500   4.2500  -5.2500 Du        
    866 ****        15.7500   4.2500  -5.0000 Du        
    867 ****        15.7500   4.2500  -4.7500 Du        
    868 ****        15.7500   4.2500  -4.5000 Du        
    869 ****        15.7500   4.2500  -4.2500 Du        
    870 ****        15.7500   4.2500  -4.0000 Du        
    871 ****        15.7500   4.2500  -3.7500 Du        
    872 ****        15.7500   4.2500  -3.5000 Du        
    873 ****        15.7500   4.2500  -3.2500 Du        
    874 ****        15.7500   4.2500  -3.0000 Du        
    875 ****        15.7500   4.2500  -2.7500 Du        
    876 ****        15.7500   4.2500  -2.5000 Du        
    877 ****        15.7500   4.2500  -2.2500 Du        
    878 ****        15.7500   4.5000  -5.7500 Du        
    879 ****        15.7500   4.5000  -5.5000 Du        
    880 ****        15.7500   4.5000  -5.2500 Du        
    881 ****        15.7500   4.5000  -5.0000 Du        
    882 ****        15.7500   4.5000  -4.7500 Du        
    883 ****        15.7500   4.5000  -4.5000 Du        
    884 ****        15.7500   4.5000  -4.2500 Du        
    885 ****        15.7500   4.5000  -4.0000 Du        
    886 ****        15.7500   4.5000  -3.7500 Du        
    887 ****        15.7500   4.5000  -3.5000 Du        
    888 ****        15.7500   4.5000  -3.2500 Du        
    889 ****        15.7500   4.5000  -3.0000 Du        
    890 ****        15.7500   4.5000  -2.7500 Du        
    891 ****        15.7500   4.5000  -2.5000 Du        
    892 ****        15.7500   4.5000  -2.2500 Du        
    893 ****        15.7500   4.5000  -2.0000 Du        
    894 ****        15.7500   4.7500  -4.7500 Du        
    895 ****        15.7500   4.7500  -4.5000 Du        
    896 ****        15.7500   4.7500  -4.2500 Du        
    897 ****        15.7500   4.7500  -4.0000 Du        
    898 ****        15.7500   4.7500  -3.7500 Du        
    899 ****        15.7500   4.7500  -3.5000 Du        
    900 ****        15.7500   4.7500  -3.2500 Du        
    901 ****        15.7500   4.7500  -3.0000 Du        
    902 ****        15.7500   4.7500  -2.7500 Du        
    903 ****        15.7500   4.7500  -2.5000 Du        
    904 ****        15.7500   4.7500  -2.2500 Du        
    905 ****        15.7500   4.7500  -2.0000 Du        
    906 ****        15.7500   4.7500  -1.7500 Du        
    907 ****        15.7500   5.0000 -11.0000 Du        
    908 ****        15.7500   5.0000  -4.2500 Du        
    909 ****        15.7500   5.0000  -4.0000 Du        
    910 ****        15.7500   5.0000  -3.7500 Du        
    911 ****        15.7500   5.0000  -3.5000 Du        
    912 ****        15.7500   5.0000  -3.2500 Du        
    913 ****        15.7500   5.0000  -3.0000 Du        
    914 ****        15.7500   5.0000  -2.7500 Du        
    915 ****        15.7500   5.0000  -2.5000 Du        
    916 ****        15.7500   5.0000  -2.2500 Du        
    917 ****        15.7500   5.0000  -2.0000 Du        
    918 ****        15.7500   5.0000  -1.7500 Du        
    919 ****        15.7500   5.2500 -11.2500 Du        
    920 ****        15.7500   5.2500 -11.0000 Du        
    921 ****        15.7500   5.2500  -4.0000 Du        
    922 ****        15.7500   5.2500  -3.7500 Du        
    923 ****        15.7500   5.2500  -3.5000 Du        
    924 ****        15.7500   5.2500  -3.2500 Du        
    925 ****        15.7500   5.2500  -3.0000 Du        
    926 ****        15.7500   5.2500  -2.7500 Du        
    927 ****        15.7500   5.2500  -2.5000 Du        
    928 ****        15.7500   5.2500  -2.2500 Du        
    929 ****        15.7500   5.2500  -2.0000 Du        
    930 ****        15.7500   5.2500  -1.7500 Du        
    931 ****        15.7500   5.5000 -11.5000 Du        
    932 ****        15.7500   5.5000 -11.2500 Du        
    933 ****        15.7500   5.5000  -3.5000 Du        
    934 ****        15.7500   5.5000  -3.2500 Du        
    935 ****        15.7500   5.5000  -3.0000 Du        
    936 ****        15.7500   5.5000  -2.7500 Du        
    937 ****        15.7500   5.5000  -2.5000 Du        
    938 ****        15.7500   5.5000  -2.2500 Du        
    939 ****        15.7500   5.5000  -2.0000 Du        
    940 ****        15.7500   5.5000  -1.7500 Du        
    941 ****        15.7500   5.7500 -11.5000 Du        
    942 ****        15.7500   5.7500  -2.7500 Du        
    943 ****        15.7500   5.7500  -2.5000 Du        
    944 ****        15.7500   5.7500  -2.2500 Du        
    945 ****        15.7500   5.7500  -2.0000 Du        
    946 ****        15.7500   5.7500  -1.7500 Du        
    947 ****        15.7500   6.0000  -2.0000 Du        
    948 ****        15.7500   6.0000  -1.7500 Du        
    949 ****        16.0000   3.2500  -4.7500 Du        
    950 ****        16.0000   3.2500  -4.5000 Du        
    951 ****        16.0000   3.2500  -4.2500 Du        
    952 ****        16.0000   3.2500  -4.0000 Du        
    953 ****        16.0000   3.2500  -3.7500 Du        
    954 ****        16.0000   3.2500  -3.5000 Du        
    955 ****        16.0000   3.2500  -3.2500 Du        
    956 ****        16.0000   3.5000  -5.7500 Du        
    957 ****        16.0000   3.5000  -5.5000 Du        
    958 ****        16.0000   3.5000  -5.2500 Du        
    959 ****        16.0000   3.5000  -5.0000 Du        
    960 ****        16.0000   3.5000  -4.7500 Du        
    961 ****        16.0000   3.5000  -4.5000 Du        
    962 ****        16.0000   3.5000  -4.2500 Du        
    963 ****        16.0000   3.5000  -4.0000 Du        
    964 ****        16.0000   3.5000  -3.7500 Du        
    965 ****        16.0000   3.5000  -3.5000 Du        
    966 ****        16.0000   3.5000  -3.2500 Du        
    967 ****        16.0000   3.5000  -3.0000 Du        
    968 ****        16.0000   3.7500  -6.7500 Du        
    969 ****        16.0000   3.7500  -6.5000 Du        
    970 ****        16.0000   3.7500  -6.2500 Du        
    971 ****        16.0000   3.7500  -6.0000 Du        
    972 ****        16.0000   3.7500  -5.7500 Du        
    973 ****        16.0000   3.7500  -5.5000 Du        
    974 ****        16.0000   3.7500  -5.2500 Du        
    975 ****        16.0000   3.7500  -5.0000 Du        
    976 ****        16.0000   3.7500  -4.7500 Du        
    977 ****        16.0000   3.7500  -4.5000 Du        
    978 ****        16.0000   3.7500  -4.2500 Du        
    979 ****        16.0000   3.7500  -4.0000 Du        
    980 ****        16.0000   3.7500  -3.7500 Du        
    981 ****        16.0000   3.7500  -3.5000 Du        
    982 ****        16.0000   3.7500  -3.2500 Du        
    983 ****        16.0000   3.7500  -3.0000 Du        
    984 ****        16.0000   3.7500  -2.7500 Du        
    985 ****        16.0000   3.7500  -2.5000 Du        
    986 ****        16.0000   4.0000  -6.7500 Du        
    987 ****        16.0000   4.0000  -6.5000 Du        
    988 ****        16.0000   4.0000  -6.2500 Du        
    989 ****        16.0000   4.0000  -6.0000 Du        
    990 ****        16.0000   4.0000  -5.7500 Du        
    991 ****        16.0000   4.0000  -5.5000 Du        
    992 ****        16.0000   4.0000  -5.2500 Du        
    993 ****        16.0000   4.0000  -5.0000 Du        
    994 ****        16.0000   4.0000  -4.7500 Du        
    995 ****        16.0000   4.0000  -4.5000 Du        
    996 ****        16.0000   4.0000  -4.2500 Du        
    997 ****        16.0000   4.0000  -4.0000 Du        
    998 ****        16.0000   4.0000  -3.7500 Du        
    999 ****        16.0000   4.0000  -3.5000 Du        
   1000 ****        16.0000   4.0000  -3.2500 Du        
   1001 ****        16.0000   4.0000  -3.0000 Du        
   1002 ****        16.0000   4.0000  -2.7500 Du        
   1003 ****        16.0000   4.0000  -2.5000 Du        
   1004 ****        16.0000   4.0000  -2.2500 Du        
   1005 ****        16.0000   4.2500  -6.5000 Du        
   1006 ****        16.0000   4.2500  -6.2500 Du        
   1007 ****        16.0000   4.2500  -6.0000 Du        
   1008 ****        16.0000   4.2500  -5.7500 Du        
   1009 ****        16.0000   4.2500  -5.5000 Du        
   1010 ****        16.0000   4.2500  -5.2500 Du        
   1011 ****        16.0000   4.2500  -5.0000 Du        
   1012 ****        16.0000   4.2500  -4.7500 Du        
   1013 ****        16.0000   4.2500  -4.5000 Du        
   1014 ****        16.0000   4.2500  -4.2500 Du        
   1015 ****        16.0000   4.2500  -4.0000 Du        
   1016 ****        16.0000   4.2500  -3.7500 Du        
   1017 ****        16.0000   4.2500  -3.5000 Du        
   1018 ****        16.0000   4.2500  -3.2500 Du        
   1019 ****        16.0000   4.2500  -3.0000 Du        
   1020 ****        16.0000   4.2500  -2.7500 Du        
   1021 ****        16.0000   4.2500  -2.5000 Du        
   1022 ****        16.0000   4.2500  -2.2500 Du        
   1023 ****        16.0000   4.2500  -2.0000 Du        
   1024 ****        16.0000   4.5000  -6.5000 Du        
   1025 ****        16.0000   4.5000  -6.2500 Du        
   1026 ****        16.0000   4.5000  -6.0000 Du        
   1027 ****        16.0000   4.5000  -5.7500 Du        
   1028 ****        16.0000   4.5000  -5.5000 Du        
   1029 ****        16.0000   4.5000  -5.2500 Du        
   1030 ****        16.0000   4.5000  -5.0000 Du        
   1031 ****        16.0000   4.5000  -4.7500 Du        
   1032 ****        16.0000   4.5000  -4.5000 Du        
   1033 ****        16.0000   4.5000  -4.2500 Du        
   1034 ****        16.0000   4.5000  -4.0000 Du        
   1035 ****        16.0000   4.5000  -3.7500 Du        
   1036 ****        16.0000   4.5000  -3.5000 Du        
   1037 ****        16.0000   4.5000  -3.2500 Du        
   1038 ****        16.0000   4.5000  -3.0000 Du        
   1039 ****        16.0000   4.5000  -2.7500 Du        
   1040 ****        16.0000   4.5000  -2.5000 Du        
   1041 ****        16.0000   4.5000  -2.2500 Du        
   1042 ****        16.0000   4.5000  -2.0000 Du        
   1043 ****        16.0000   4.5000  -1.7500 Du        
   1044 ****        16.0000   4.7500  -5.0000 Du        
   1045 ****        16.0000   4.7500  -4.7500 Du        
   1046 ****        16.0000   4.7500  -4.5000 Du        
   1047 ****        16.0000   4.7500  -4.2500 Du        
   1048 ****        16.0000   4.7500  -4.0000 Du        
   1049 ****        16.0000   4.7500  -3.7500 Du        
   1050 ****        16.0000   4.7500  -3.5000 Du        
   1051 ****        16.0000   4.7500  -3.2500 Du        
   1052 ****        16.0000   4.7500  -3.0000 Du        
   1053 ****        16.0000   4.7500  -2.7500 Du        
   1054 ****        16.0000   4.7500  -2.5000 Du        
   1055 ****        16.0000   4.7500  -2.2500 Du        
   1056 ****        16.0000   4.7500  -2.0000 Du        
   1057 ****        16.0000   4.7500  -1.7500 Du        
   1058 ****        16.0000   5.0000  -4.2500 Du        
   1059 ****        16.0000   5.0000  -4.0000 Du        
   1060 ****        16.0000   5.0000  -3.7500 Du        
   1061 ****        16.0000   5.0000  -3.5000 Du        
   1062 ****        16.0000   5.0000  -3.2500 Du        
   1063 ****        16.0000   5.0000  -3.0000 Du        
   1064 ****        16.0000   5.0000  -2.7500 Du        
   1065 ****        16.0000   5.0000  -2.5000 Du        
   1066 ****        16.0000   5.0000  -2.2500 Du        
   1067 ****        16.0000   5.0000  -2.0000 Du        
   1068 ****        16.0000   5.0000  -1.7500 Du        
   1069 ****        16.0000   5.2500  -4.0000 Du        
   1070 ****        16.0000   5.2500  -3.7500 Du        
   1071 ****        16.0000   5.2500  -3.5000 Du        
   1072 ****        16.0000   5.2500  -3.2500 Du        
   1073 ****        16.0000   5.2500  -3.0000 Du        
   1074 ****        16.0000   5.2500  -2.7500 Du        
   1075 ****        16.0000   5.2500  -2.5000 Du        
   1076 ****        16.0000   5.2500  -2.2500 Du        
   1077 ****        16.0000   5.2500  -2.0000 Du        
   1078 ****        16.0000   5.2500  -1.7500 Du        
   1079 ****        16.0000   5.5000  -3.5000 Du        
   1080 ****        16.0000   5.5000  -3.2500 Du        
   1081 ****        16.0000   5.5000  -3.0000 Du        
   1082 ****        16.0000   5.5000  -2.7500 Du        
   1083 ****        16.0000   5.5000  -2.5000 Du        
   1084 ****        16.0000   5.5000  -2.2500 Du        
   1085 ****        16.0000   5.5000  -2.0000 Du        
   1086 ****        16.0000   5.5000  -1.7500 Du        
   1087 ****        16.0000   5.7500  -2.2500 Du        
   1088 ****        16.0000   5.7500  -2.0000 Du        
   1089 ****        16.0000   5.7500  -1.7500 Du        
   1090 ****        16.2500   3.0000  -4.7500 Du        
   1091 ****        16.2500   3.0000  -4.5000 Du        
   1092 ****        16.2500   3.0000  -4.2500 Du        
   1093 ****        16.2500   3.0000  -4.0000 Du        
   1094 ****        16.2500   3.0000  -3.7500 Du        
   1095 ****        16.2500   3.0000  -3.5000 Du        
   1096 ****        16.2500   3.0000  -3.2500 Du        
   1097 ****        16.2500   3.0000  -3.0000 Du        
   1098 ****        16.2500   3.2500  -5.5000 Du        
   1099 ****        16.2500   3.2500  -5.2500 Du        
   1100 ****        16.2500   3.2500  -5.0000 Du        
   1101 ****        16.2500   3.2500  -4.7500 Du        
   1102 ****        16.2500   3.2500  -4.5000 Du        
   1103 ****        16.2500   3.2500  -4.2500 Du        
   1104 ****        16.2500   3.2500  -4.0000 Du        
   1105 ****        16.2500   3.2500  -3.7500 Du        
   1106 ****        16.2500   3.2500  -3.5000 Du        
   1107 ****        16.2500   3.2500  -3.2500 Du        
   1108 ****        16.2500   3.2500  -3.0000 Du        
   1109 ****        16.2500   3.2500  -2.7500 Du        
   1110 ****        16.2500   3.5000  -7.2500 Du        
   1111 ****        16.2500   3.5000  -7.0000 Du        
   1112 ****        16.2500   3.5000  -6.7500 Du        
   1113 ****        16.2500   3.5000  -6.5000 Du        
   1114 ****        16.2500   3.5000  -6.2500 Du        
   1115 ****        16.2500   3.5000  -6.0000 Du        
   1116 ****        16.2500   3.5000  -5.7500 Du        
   1117 ****        16.2500   3.5000  -5.5000 Du        
   1118 ****        16.2500   3.5000  -5.2500 Du        
   1119 ****        16.2500   3.5000  -5.0000 Du        
   1120 ****        16.2500   3.5000  -4.7500 Du        
   1121 ****        16.2500   3.5000  -4.5000 Du        
   1122 ****        16.2500   3.5000  -4.2500 Du        
   1123 ****        16.2500   3.5000  -4.0000 Du        
   1124 ****        16.2500   3.5000  -3.7500 Du        
   1125 ****        16.2500   3.5000  -3.5000 Du        
   1126 ****        16.2500   3.5000  -3.2500 Du        
   1127 ****        16.2500   3.5000  -3.0000 Du        
   1128 ****        16.2500   3.5000  -2.7500 Du        
   1129 ****        16.2500   3.7500  -7.5000 Du        
   1130 ****        16.2500   3.7500  -7.2500 Du        
   1131 ****        16.2500   3.7500  -7.0000 Du        
   1132 ****        16.2500   3.7500  -6.7500 Du        
   1133 ****        16.2500   3.7500  -6.5000 Du        
   1134 ****        16.2500   3.7500  -6.2500 Du        
   1135 ****        16.2500   3.7500  -6.0000 Du        
   1136 ****        16.2500   3.7500  -5.7500 Du        
   1137 ****        16.2500   3.7500  -5.5000 Du        
   1138 ****        16.2500   3.7500  -5.2500 Du        
   1139 ****        16.2500   3.7500  -5.0000 Du        
   1140 ****        16.2500   3.7500  -4.7500 Du        
   1141 ****        16.2500   3.7500  -4.5000 Du        
   1142 ****        16.2500   3.7500  -4.2500 Du        
   1143 ****        16.2500   3.7500  -4.0000 Du        
   1144 ****        16.2500   3.7500  -3.7500 Du        
   1145 ****        16.2500   3.7500  -3.5000 Du        
   1146 ****        16.2500   3.7500  -3.2500 Du        
   1147 ****        16.2500   3.7500  -3.0000 Du        
   1148 ****        16.2500   3.7500  -2.7500 Du        
   1149 ****        16.2500   3.7500  -2.5000 Du        
   1150 ****        16.2500   4.0000  -7.5000 Du        
   1151 ****        16.2500   4.0000  -7.2500 Du        
   1152 ****        16.2500   4.0000  -7.0000 Du        
   1153 ****        16.2500   4.0000  -6.7500 Du        
   1154 ****        16.2500   4.0000  -6.5000 Du        
   1155 ****        16.2500   4.0000  -6.2500 Du        
   1156 ****        16.2500   4.0000  -6.0000 Du        
   1157 ****        16.2500   4.0000  -5.7500 Du        
   1158 ****        16.2500   4.0000  -5.5000 Du        
   1159 ****        16.2500   4.0000  -5.2500 Du        
   1160 ****        16.2500   4.0000  -5.0000 Du        
   1161 ****        16.2500   4.0000  -4.7500 Du        
   1162 ****        16.2500   4.0000  -4.5000 Du        
   1163 ****        16.2500   4.0000  -4.2500 Du        
   1164 ****        16.2500   4.0000  -4.0000 Du        
   1165 ****        16.2500   4.0000  -3.7500 Du        
   1166 ****        16.2500   4.0000  -3.5000 Du        
   1167 ****        16.2500   4.0000  -3.2500 Du        
   1168 ****        16.2500   4.0000  -3.0000 Du        
   1169 ****        16.2500   4.0000  -2.7500 Du        
   1170 ****        16.2500   4.0000  -2.5000 Du        
   1171 ****        16.2500   4.0000  -2.2500 Du        
   1172 ****        16.2500   4.2500  -7.2500 Du        
   1173 ****        16.2500   4.2500  -7.0000 Du        
   1174 ****        16.2500   4.2500  -6.7500 Du        
   1175 ****        16.2500   4.2500  -6.5000 Du        
   1176 ****        16.2500   4.2500  -6.2500 Du        
   1177 ****        16.2500   4.2500  -6.0000 Du        
   1178 ****        16.2500   4.2500  -5.7500 Du        
   1179 ****        16.2500   4.2500  -5.5000 Du        
   1180 ****        16.2500   4.2500  -5.2500 Du        
   1181 ****        16.2500   4.2500  -5.0000 Du        
   1182 ****        16.2500   4.2500  -4.7500 Du        
   1183 ****        16.2500   4.2500  -4.5000 Du        
   1184 ****        16.2500   4.2500  -4.2500 Du        
   1185 ****        16.2500   4.2500  -4.0000 Du        
   1186 ****        16.2500   4.2500  -3.7500 Du        
   1187 ****        16.2500   4.2500  -3.5000 Du        
   1188 ****        16.2500   4.2500  -3.2500 Du        
   1189 ****        16.2500   4.2500  -3.0000 Du        
   1190 ****        16.2500   4.2500  -2.7500 Du        
   1191 ****        16.2500   4.2500  -2.5000 Du        
   1192 ****        16.2500   4.2500  -2.2500 Du        
   1193 ****        16.2500   4.5000  -7.2500 Du        
   1194 ****        16.2500   4.5000  -7.0000 Du        
   1195 ****        16.2500   4.5000  -6.7500 Du        
   1196 ****        16.2500   4.5000  -6.5000 Du        
   1197 ****        16.2500   4.5000  -6.2500 Du        
   1198 ****        16.2500   4.5000  -6.0000 Du        
   1199 ****        16.2500   4.5000  -5.7500 Du        
   1200 ****        16.2500   4.5000  -5.5000 Du        
   1201 ****        16.2500   4.5000  -5.2500 Du        
   1202 ****        16.2500   4.5000  -5.0000 Du        
   1203 ****        16.2500   4.5000  -4.7500 Du        
   1204 ****        16.2500   4.5000  -4.5000 Du        
   1205 ****        16.2500   4.5000  -4.2500 Du        
   1206 ****        16.2500   4.5000  -4.0000 Du        
   1207 ****        16.2500   4.5000  -3.7500 Du        
   1208 ****        16.2500   4.5000  -3.5000 Du        
   1209 ****        16.2500   4.5000  -3.2500 Du        
   1210 ****        16.2500   4.5000  -3.0000 Du        
   1211 ****        16.2500   4.5000  -2.7500 Du        
   1212 ****        16.2500   4.5000  -2.5000 Du        
   1213 ****        16.2500   4.5000  -2.2500 Du        
   1214 ****        16.2500   4.5000  -2.0000 Du        
   1215 ****        16.2500   4.7500  -5.5000 Du        
   1216 ****        16.2500   4.7500  -5.2500 Du        
   1217 ****        16.2500   4.7500  -5.0000 Du        
   1218 ****        16.2500   4.7500  -4.7500 Du        
   1219 ****        16.2500   4.7500  -4.5000 Du        
   1220 ****        16.2500   4.7500  -4.2500 Du        
   1221 ****        16.2500   4.7500  -4.0000 Du        
   1222 ****        16.2500   4.7500  -3.7500 Du        
   1223 ****        16.2500   4.7500  -3.5000 Du        
   1224 ****        16.2500   4.7500  -3.2500 Du        
   1225 ****        16.2500   4.7500  -3.0000 Du        
   1226 ****        16.2500   4.7500  -2.7500 Du        
   1227 ****        16.2500   4.7500  -2.5000 Du        
   1228 ****        16.2500   4.7500  -2.2500 Du        
   1229 ****        16.2500   4.7500  -2.0000 Du        
   1230 ****        16.2500   4.7500  -1.7500 Du        
   1231 ****        16.2500   5.0000  -4.5000 Du        
   1232 ****        16.2500   5.0000  -4.2500 Du        
   1233 ****        16.2500   5.0000  -4.0000 Du        
   1234 ****        16.2500   5.0000  -3.7500 Du        
   1235 ****        16.2500   5.0000  -3.5000 Du        
   1236 ****        16.2500   5.0000  -3.2500 Du        
   1237 ****        16.2500   5.0000  -3.0000 Du        
   1238 ****        16.2500   5.0000  -2.7500 Du        
   1239 ****        16.2500   5.0000  -2.5000 Du        
   1240 ****        16.2500   5.0000  -2.2500 Du        
   1241 ****        16.2500   5.0000  -2.0000 Du        
   1242 ****        16.2500   5.0000  -1.7500 Du        
   1243 ****        16.2500   5.2500  -4.0000 Du        
   1244 ****        16.2500   5.2500  -3.7500 Du        
   1245 ****        16.2500   5.2500  -3.5000 Du        
   1246 ****        16.2500   5.2500  -3.2500 Du        
   1247 ****        16.2500   5.2500  -3.0000 Du        
   1248 ****        16.2500   5.2500  -2.7500 Du        
   1249 ****        16.2500   5.2500  -2.5000 Du        
   1250 ****        16.2500   5.2500  -2.2500 Du        
   1251 ****        16.2500   5.2500  -2.0000 Du        
   1252 ****        16.2500   5.2500  -1.7500 Du        
   1253 ****        16.2500   5.5000  -3.0000 Du        
   1254 ****        16.2500   5.5000  -2.7500 Du        
   1255 ****        16.2500   5.5000  -2.5000 Du        
   1256 ****        16.2500   5.5000  -2.2500 Du        
   1257 ****        16.2500   5.5000  -2.0000 Du        
   1258 ****        16.2500   5.5000  -1.7500 Du        
   1259 ****        16.2500   5.7500  -2.0000 Du        
   1260 ****        16.2500   5.7500  -1.7500 Du        
   1261 ****        16.5000   2.5000  -3.2500 Du        
   1262 ****        16.5000   2.7500  -4.5000 Du        
   1263 ****        16.5000   2.7500  -4.2500 Du        
   1264 ****        16.5000   2.7500  -4.0000 Du        
   1265 ****        16.5000   2.7500  -3.7500 Du        
   1266 ****        16.5000   2.7500  -3.5000 Du        
   1267 ****        16.5000   2.7500  -3.2500 Du        
   1268 ****        16.5000   2.7500  -3.0000 Du        
   1269 ****        16.5000   3.0000  -5.0000 Du        
   1270 ****        16.5000   3.0000  -4.7500 Du        
   1271 ****        16.5000   3.0000  -4.5000 Du        
   1272 ****        16.5000   3.0000  -4.2500 Du        
   1273 ****        16.5000   3.0000  -4.0000 Du        
   1274 ****        16.5000   3.0000  -3.7500 Du        
   1275 ****        16.5000   3.0000  -3.5000 Du        
   1276 ****        16.5000   3.0000  -3.2500 Du        
   1277 ****        16.5000   3.0000  -3.0000 Du        
   1278 ****        16.5000   3.2500  -5.7500 Du        
   1279 ****        16.5000   3.2500  -5.5000 Du        
   1280 ****        16.5000   3.2500  -5.2500 Du        
   1281 ****        16.5000   3.2500  -5.0000 Du        
   1282 ****        16.5000   3.2500  -4.7500 Du        
   1283 ****        16.5000   3.2500  -4.5000 Du        
   1284 ****        16.5000   3.2500  -4.2500 Du        
   1285 ****        16.5000   3.2500  -4.0000 Du        
   1286 ****        16.5000   3.2500  -3.7500 Du        
   1287 ****        16.5000   3.2500  -3.5000 Du        
   1288 ****        16.5000   3.2500  -3.2500 Du        
   1289 ****        16.5000   3.2500  -3.0000 Du        
   1290 ****        16.5000   3.5000  -7.2500 Du        
   1291 ****        16.5000   3.5000  -7.0000 Du        
   1292 ****        16.5000   3.5000  -6.7500 Du        
   1293 ****        16.5000   3.5000  -6.5000 Du        
   1294 ****        16.5000   3.5000  -6.2500 Du        
   1295 ****        16.5000   3.5000  -6.0000 Du        
   1296 ****        16.5000   3.5000  -5.7500 Du        
   1297 ****        16.5000   3.5000  -5.5000 Du        
   1298 ****        16.5000   3.5000  -5.2500 Du        
   1299 ****        16.5000   3.5000  -5.0000 Du        
   1300 ****        16.5000   3.5000  -4.7500 Du        
   1301 ****        16.5000   3.5000  -4.5000 Du        
   1302 ****        16.5000   3.5000  -4.2500 Du        
   1303 ****        16.5000   3.5000  -4.0000 Du        
   1304 ****        16.5000   3.5000  -3.7500 Du        
   1305 ****        16.5000   3.5000  -3.5000 Du        
   1306 ****        16.5000   3.5000  -3.2500 Du        
   1307 ****        16.5000   3.5000  -3.0000 Du        
   1308 ****        16.5000   3.7500  -7.5000 Du        
   1309 ****        16.5000   3.7500  -7.2500 Du        
   1310 ****        16.5000   3.7500  -7.0000 Du        
   1311 ****        16.5000   3.7500  -6.7500 Du        
   1312 ****        16.5000   3.7500  -6.5000 Du        
   1313 ****        16.5000   3.7500  -6.2500 Du        
   1314 ****        16.5000   3.7500  -6.0000 Du        
   1315 ****        16.5000   3.7500  -5.7500 Du        
   1316 ****        16.5000   3.7500  -5.5000 Du        
   1317 ****        16.5000   3.7500  -5.2500 Du        
   1318 ****        16.5000   3.7500  -5.0000 Du        
   1319 ****        16.5000   3.7500  -4.7500 Du        
   1320 ****        16.5000   3.7500  -4.5000 Du        
   1321 ****        16.5000   3.7500  -4.2500 Du        
   1322 ****        16.5000   3.7500  -4.0000 Du        
   1323 ****        16.5000   3.7500  -3.7500 Du        
   1324 ****        16.5000   3.7500  -3.5000 Du        
   1325 ****        16.5000   3.7500  -3.2500 Du        
   1326 ****        16.5000   3.7500  -3.0000 Du        
   1327 ****        16.5000   4.0000  -7.7500 Du        
   1328 ****        16.5000   4.0000  -7.5000 Du        
   1329 ****        16.5000   4.0000  -7.2500 Du        
   1330 ****        16.5000   4.0000  -7.0000 Du        
   1331 ****        16.5000   4.0000  -6.7500 Du        
   1332 ****        16.5000   4.0000  -6.5000 Du        
   1333 ****        16.5000   4.0000  -6.2500 Du        
   1334 ****        16.5000   4.0000  -6.0000 Du        
   1335 ****        16.5000   4.0000  -5.7500 Du        
   1336 ****        16.5000   4.0000  -5.5000 Du        
   1337 ****        16.5000   4.0000  -5.2500 Du        
   1338 ****        16.5000   4.0000  -5.0000 Du        
   1339 ****        16.5000   4.0000  -4.7500 Du        
   1340 ****        16.5000   4.0000  -4.5000 Du        
   1341 ****        16.5000   4.0000  -4.2500 Du        
   1342 ****        16.5000   4.0000  -4.0000 Du        
   1343 ****        16.5000   4.0000  -3.7500 Du        
   1344 ****        16.5000   4.0000  -3.5000 Du        
   1345 ****        16.5000   4.0000  -3.2500 Du        
   1346 ****        16.5000   4.0000  -3.0000 Du        
   1347 ****        16.5000   4.2500  -7.5000 Du        
   1348 ****        16.5000   4.2500  -7.2500 Du        
   1349 ****        16.5000   4.2500  -7.0000 Du        
   1350 ****        16.5000   4.2500  -6.7500 Du        
   1351 ****        16.5000   4.2500  -6.5000 Du        
   1352 ****        16.5000   4.2500  -6.2500 Du        
   1353 ****        16.5000   4.2500  -6.0000 Du        
   1354 ****        16.5000   4.2500  -5.7500 Du        
   1355 ****        16.5000   4.2500  -5.5000 Du        
   1356 ****        16.5000   4.2500  -5.2500 Du        
   1357 ****        16.5000   4.2500  -5.0000 Du        
   1358 ****        16.5000   4.2500  -4.7500 Du        
   1359 ****        16.5000   4.2500  -4.5000 Du        
   1360 ****        16.5000   4.2500  -4.2500 Du        
   1361 ****        16.5000   4.2500  -4.0000 Du        
   1362 ****        16.5000   4.2500  -3.7500 Du        
   1363 ****        16.5000   4.5000  -7.2500 Du        
   1364 ****        16.5000   4.5000  -7.0000 Du        
   1365 ****        16.5000   4.5000  -6.7500 Du        
   1366 ****        16.5000   4.5000  -6.5000 Du        
   1367 ****        16.5000   4.5000  -6.2500 Du        
   1368 ****        16.5000   4.5000  -6.0000 Du        
   1369 ****        16.5000   4.5000  -5.7500 Du        
   1370 ****        16.5000   4.5000  -5.5000 Du        
   1371 ****        16.5000   4.5000  -5.2500 Du        
   1372 ****        16.5000   4.5000  -5.0000 Du        
   1373 ****        16.5000   4.5000  -4.7500 Du        
   1374 ****        16.5000   4.5000  -4.5000 Du        
   1375 ****        16.5000   4.5000  -4.2500 Du        
   1376 ****        16.5000   4.5000  -4.0000 Du        
   1377 ****        16.5000   4.5000  -3.7500 Du        
   1378 ****        16.5000   4.5000  -3.5000 Du        
   1379 ****        16.5000   4.5000  -3.2500 Du        
   1380 ****        16.5000   4.5000  -3.0000 Du        
   1381 ****        16.5000   4.7500  -6.7500 Du        
   1382 ****        16.5000   4.7500  -6.5000 Du        
   1383 ****        16.5000   4.7500  -6.2500 Du        
   1384 ****        16.5000   4.7500  -6.0000 Du        
   1385 ****        16.5000   4.7500  -5.7500 Du        
   1386 ****        16.5000   4.7500  -5.5000 Du        
   1387 ****        16.5000   4.7500  -5.2500 Du        
   1388 ****        16.5000   4.7500  -5.0000 Du        
   1389 ****        16.5000   4.7500  -4.7500 Du        
   1390 ****        16.5000   4.7500  -4.5000 Du        
   1391 ****        16.5000   4.7500  -4.2500 Du        
   1392 ****        16.5000   4.7500  -4.0000 Du        
   1393 ****        16.5000   4.7500  -3.7500 Du        
   1394 ****        16.5000   4.7500  -3.5000 Du        
   1395 ****        16.5000   4.7500  -3.2500 Du        
   1396 ****        16.5000   4.7500  -3.0000 Du        
   1397 ****        16.5000   4.7500  -2.7500 Du        
   1398 ****        16.5000   5.0000  -4.5000 Du        
   1399 ****        16.5000   5.0000  -4.2500 Du        
   1400 ****        16.5000   5.0000  -4.0000 Du        
   1401 ****        16.5000   5.0000  -3.5000 Du        
   1402 ****        16.5000   5.0000  -3.2500 Du        
   1403 ****        16.5000   5.0000  -3.0000 Du        
   1404 ****        16.5000   5.0000  -2.7500 Du        
   1405 ****        16.5000   5.0000  -2.5000 Du        
   1406 ****        16.5000   5.0000  -2.2500 Du        
   1407 ****        16.5000   5.2500  -2.2500 Du        
   1408 ****        16.5000   5.2500  -2.0000 Du        
   1409 ****        16.7500   1.7500  -3.0000 Du        
   1410 ****        16.7500   2.0000  -3.5000 Du        
   1411 ****        16.7500   2.0000  -3.2500 Du        
   1412 ****        16.7500   2.0000  -3.0000 Du        
   1413 ****        16.7500   2.2500  -4.0000 Du        
   1414 ****        16.7500   2.2500  -3.7500 Du        
   1415 ****        16.7500   2.2500  -3.5000 Du        
   1416 ****        16.7500   2.2500  -3.2500 Du        
   1417 ****        16.7500   2.2500  -3.0000 Du        
   1418 ****        16.7500   2.5000  -4.5000 Du        
   1419 ****        16.7500   2.5000  -4.2500 Du        
   1420 ****        16.7500   2.5000  -4.0000 Du        
   1421 ****        16.7500   2.5000  -3.7500 Du        
   1422 ****        16.7500   2.5000  -3.5000 Du        
   1423 ****        16.7500   2.5000  -3.2500 Du        
   1424 ****        16.7500   2.5000  -3.0000 Du        
   1425 ****        16.7500   2.7500  -5.0000 Du        
   1426 ****        16.7500   2.7500  -4.7500 Du        
   1427 ****        16.7500   2.7500  -4.5000 Du        
   1428 ****        16.7500   2.7500  -4.2500 Du        
   1429 ****        16.7500   2.7500  -4.0000 Du        
   1430 ****        16.7500   2.7500  -3.7500 Du        
   1431 ****        16.7500   2.7500  -3.5000 Du        
   1432 ****        16.7500   2.7500  -3.2500 Du        
   1433 ****        16.7500   2.7500  -3.0000 Du        
   1434 ****        16.7500   3.0000  -5.5000 Du        
   1435 ****        16.7500   3.0000  -5.2500 Du        
   1436 ****        16.7500   3.0000  -5.0000 Du        
   1437 ****        16.7500   3.0000  -4.7500 Du        
   1438 ****        16.7500   3.0000  -4.5000 Du        
   1439 ****        16.7500   3.0000  -4.2500 Du        
   1440 ****        16.7500   3.0000  -4.0000 Du        
   1441 ****        16.7500   3.0000  -3.7500 Du        
   1442 ****        16.7500   3.0000  -3.5000 Du        
   1443 ****        16.7500   3.0000  -3.2500 Du        
   1444 ****        16.7500   3.2500  -6.2500 Du        
   1445 ****        16.7500   3.2500  -6.0000 Du        
   1446 ****        16.7500   3.2500  -5.7500 Du        
   1447 ****        16.7500   3.2500  -5.5000 Du        
   1448 ****        16.7500   3.2500  -5.2500 Du        
   1449 ****        16.7500   3.2500  -5.0000 Du        
   1450 ****        16.7500   3.2500  -4.7500 Du        
   1451 ****        16.7500   3.2500  -4.5000 Du        
   1452 ****        16.7500   3.2500  -4.2500 Du        
   1453 ****        16.7500   3.2500  -4.0000 Du        
   1454 ****        16.7500   3.2500  -3.7500 Du        
   1455 ****        16.7500   3.5000  -7.0000 Du        
   1456 ****        16.7500   3.5000  -6.7500 Du        
   1457 ****        16.7500   3.5000  -6.5000 Du        
   1458 ****        16.7500   3.5000  -6.2500 Du        
   1459 ****        16.7500   3.5000  -6.0000 Du        
   1460 ****        16.7500   3.5000  -5.7500 Du        
   1461 ****        16.7500   3.5000  -5.5000 Du        
   1462 ****        16.7500   3.5000  -5.2500 Du        
   1463 ****        16.7500   3.5000  -5.0000 Du        
   1464 ****        16.7500   3.5000  -4.7500 Du        
   1465 ****        16.7500   3.5000  -4.5000 Du        
   1466 ****        16.7500   3.5000  -4.2500 Du        
   1467 ****        16.7500   3.7500  -7.5000 Du        
   1468 ****        16.7500   3.7500  -7.2500 Du        
   1469 ****        16.7500   3.7500  -7.0000 Du        
   1470 ****        16.7500   3.7500  -6.7500 Du        
   1471 ****        16.7500   3.7500  -6.5000 Du        
   1472 ****        16.7500   3.7500  -6.2500 Du        
   1473 ****        16.7500   3.7500  -6.0000 Du        
   1474 ****        16.7500   3.7500  -5.7500 Du        
   1475 ****        16.7500   3.7500  -5.5000 Du        
   1476 ****        16.7500   3.7500  -5.2500 Du        
   1477 ****        16.7500   3.7500  -5.0000 Du        
   1478 ****        16.7500   3.7500  -4.7500 Du        
   1479 ****        16.7500   3.7500  -4.5000 Du        
   1480 ****        16.7500   3.7500  -4.2500 Du        
   1481 ****        16.7500   4.0000  -7.7500 Du        
   1482 ****        16.7500   4.0000  -7.5000 Du        
   1483 ****        16.7500   4.0000  -7.2500 Du        
   1484 ****        16.7500   4.0000  -7.0000 Du        
   1485 ****        16.7500   4.0000  -6.7500 Du        
   1486 ****        16.7500   4.0000  -6.5000 Du        
   1487 ****        16.7500   4.0000  -6.2500 Du        
   1488 ****        16.7500   4.0000  -6.0000 Du        
   1489 ****        16.7500   4.0000  -5.7500 Du        
   1490 ****        16.7500   4.0000  -5.5000 Du        
   1491 ****        16.7500   4.0000  -5.2500 Du        
   1492 ****        16.7500   4.0000  -5.0000 Du        
   1493 ****        16.7500   4.0000  -4.7500 Du        
   1494 ****        16.7500   4.0000  -4.5000 Du        
   1495 ****        16.7500   4.2500  -7.7500 Du        
   1496 ****        16.7500   4.2500  -7.5000 Du        
   1497 ****        16.7500   4.2500  -7.2500 Du        
   1498 ****        16.7500   4.2500  -7.0000 Du        
   1499 ****        16.7500   4.2500  -6.7500 Du        
   1500 ****        16.7500   4.2500  -6.5000 Du        
   1501 ****        16.7500   4.2500  -6.2500 Du        
   1502 ****        16.7500   4.2500  -6.0000 Du        
   1503 ****        16.7500   4.2500  -5.7500 Du        
   1504 ****        16.7500   4.2500  -5.5000 Du        
   1505 ****        16.7500   4.2500  -5.2500 Du        
   1506 ****        16.7500   4.2500  -5.0000 Du        
   1507 ****        16.7500   4.2500  -4.7500 Du        
   1508 ****        16.7500   4.5000  -7.5000 Du        
   1509 ****        16.7500   4.5000  -7.2500 Du        
   1510 ****        16.7500   4.5000  -7.0000 Du        
   1511 ****        16.7500   4.5000  -6.7500 Du        
   1512 ****        16.7500   4.5000  -6.5000 Du        
   1513 ****        16.7500   4.5000  -6.2500 Du        
   1514 ****        16.7500   4.5000  -6.0000 Du        
   1515 ****        16.7500   4.5000  -5.7500 Du        
   1516 ****        16.7500   4.5000  -5.5000 Du        
   1517 ****        16.7500   4.5000  -5.2500 Du        
   1518 ****        16.7500   4.5000  -5.0000 Du        
   1519 ****        16.7500   4.5000  -4.7500 Du        
   1520 ****        16.7500   4.5000  -4.5000 Du        
   1521 ****        16.7500   4.7500  -7.0000 Du        
   1522 ****        16.7500   4.7500  -6.7500 Du        
   1523 ****        16.7500   4.7500  -6.5000 Du        
   1524 ****        16.7500   4.7500  -6.2500 Du        
   1525 ****        16.7500   4.7500  -6.0000 Du        
   1526 ****        16.7500   4.7500  -5.7500 Du        
   1527 ****        16.7500   4.7500  -5.5000 Du        
   1528 ****        16.7500   4.7500  -5.2500 Du        
   1529 ****        16.7500   4.7500  -5.0000 Du        
   1530 ****        16.7500   4.7500  -4.7500 Du        
   1531 ****        17.0000  -0.2500  -2.2500 Du        
   1532 ****        17.0000  -0.2500  -2.0000 Du        
   1533 ****        17.0000   0.0000  -2.5000 Du        
   1534 ****        17.0000   0.0000  -2.2500 Du        
   1535 ****        17.0000   0.0000  -2.0000 Du        
   1536 ****        17.0000   0.2500  -2.5000 Du        
   1537 ****        17.0000   0.2500  -2.2500 Du        
   1538 ****        17.0000   0.2500  -2.0000 Du        
   1539 ****        17.0000   0.5000  -2.7500 Du        
   1540 ****        17.0000   0.5000  -2.5000 Du        
   1541 ****        17.0000   0.5000  -2.2500 Du        
   1542 ****        17.0000   0.5000  -2.0000 Du        
   1543 ****        17.0000   0.7500  -3.0000 Du        
   1544 ****        17.0000   0.7500  -2.7500 Du        
   1545 ****        17.0000   0.7500  -2.5000 Du        
   1546 ****        17.0000   0.7500  -2.2500 Du        
   1547 ****        17.0000   1.0000  -3.2500 Du        
   1548 ****        17.0000   1.0000  -3.0000 Du        
   1549 ****        17.0000   1.0000  -2.7500 Du        
   1550 ****        17.0000   1.0000  -2.5000 Du        
   1551 ****        17.0000   1.0000  -2.2500 Du        
   1552 ****        17.0000   1.2500  -3.2500 Du        
   1553 ****        17.0000   1.2500  -3.0000 Du        
   1554 ****        17.0000   1.2500  -2.7500 Du        
   1555 ****        17.0000   1.2500  -2.5000 Du        
   1556 ****        17.0000   1.5000  -3.5000 Du        
   1557 ****        17.0000   1.5000  -3.2500 Du        
   1558 ****        17.0000   1.5000  -3.0000 Du        
   1559 ****        17.0000   1.5000  -2.7500 Du        
   1560 ****        17.0000   1.5000  -2.5000 Du        
   1561 ****        17.0000   1.7500  -4.0000 Du        
   1562 ****        17.0000   1.7500  -3.7500 Du        
   1563 ****        17.0000   1.7500  -3.5000 Du        
   1564 ****        17.0000   1.7500  -3.2500 Du        
   1565 ****        17.0000   1.7500  -3.0000 Du        
   1566 ****        17.0000   1.7500  -2.7500 Du        
   1567 ****        17.0000   2.0000  -4.0000 Du        
   1568 ****        17.0000   2.0000  -3.7500 Du        
   1569 ****        17.0000   2.0000  -3.5000 Du        
   1570 ****        17.0000   2.0000  -3.2500 Du        
   1571 ****        17.0000   2.0000  -3.0000 Du        
   1572 ****        17.0000   2.0000  -2.7500 Du        
   1573 ****        17.0000   2.2500  -4.5000 Du        
   1574 ****        17.0000   2.2500  -4.2500 Du        
   1575 ****        17.0000   2.2500  -4.0000 Du        
   1576 ****        17.0000   2.2500  -3.7500 Du        
   1577 ****        17.0000   2.2500  -3.5000 Du        
   1578 ****        17.0000   2.2500  -3.2500 Du        
   1579 ****        17.0000   2.2500  -3.0000 Du        
   1580 ****        17.0000   2.5000  -5.0000 Du        
   1581 ****        17.0000   2.5000  -4.7500 Du        
   1582 ****        17.0000   2.5000  -4.5000 Du        
   1583 ****        17.0000   2.5000  -4.2500 Du        
   1584 ****        17.0000   2.5000  -4.0000 Du        
   1585 ****        17.0000   2.5000  -3.7500 Du        
   1586 ****        17.0000   2.5000  -3.5000 Du        
   1587 ****        17.0000   2.5000  -3.2500 Du        
   1588 ****        17.0000   2.7500  -5.5000 Du        
   1589 ****        17.0000   2.7500  -5.2500 Du        
   1590 ****        17.0000   2.7500  -5.0000 Du        
   1591 ****        17.0000   2.7500  -4.7500 Du        
   1592 ****        17.0000   2.7500  -4.5000 Du        
   1593 ****        17.0000   2.7500  -4.2500 Du        
   1594 ****        17.0000   2.7500  -4.0000 Du        
   1595 ****        17.0000   2.7500  -3.7500 Du        
   1596 ****        17.0000   2.7500  -3.5000 Du        
   1597 ****        17.0000   3.0000  -6.0000 Du        
   1598 ****        17.0000   3.0000  -5.7500 Du        
   1599 ****        17.0000   3.0000  -5.5000 Du        
   1600 ****        17.0000   3.0000  -5.2500 Du        
   1601 ****        17.0000   3.0000  -5.0000 Du        
   1602 ****        17.0000   3.0000  -4.7500 Du        
   1603 ****        17.0000   3.0000  -4.5000 Du        
   1604 ****        17.0000   3.0000  -4.2500 Du        
   1605 ****        17.0000   3.0000  -4.0000 Du        
   1606 ****        17.0000   3.2500  -6.2500 Du        
   1607 ****        17.0000   3.2500  -6.0000 Du        
   1608 ****        17.0000   3.2500  -5.7500 Du        
   1609 ****        17.0000   3.2500  -5.5000 Du        
   1610 ****        17.0000   3.2500  -5.2500 Du        
   1611 ****        17.0000   3.2500  -5.0000 Du        
   1612 ****        17.0000   3.2500  -4.7500 Du        
   1613 ****        17.0000   3.5000  -7.0000 Du        
   1614 ****        17.0000   3.5000  -6.7500 Du        
   1615 ****        17.0000   3.5000  -6.5000 Du        
   1616 ****        17.0000   3.5000  -6.2500 Du        
   1617 ****        17.0000   3.5000  -6.0000 Du        
   1618 ****        17.0000   3.5000  -5.7500 Du        
   1619 ****        17.0000   3.5000  -5.5000 Du        
   1620 ****        17.0000   3.5000  -5.2500 Du        
   1621 ****        17.0000   3.5000  -5.0000 Du        
   1622 ****        17.0000   3.5000  -4.7500 Du        
   1623 ****        17.0000   3.7500  -7.5000 Du        
   1624 ****        17.0000   3.7500  -7.2500 Du        
   1625 ****        17.0000   3.7500  -7.0000 Du        
   1626 ****        17.0000   3.7500  -6.7500 Du        
   1627 ****        17.0000   3.7500  -6.5000 Du        
   1628 ****        17.0000   3.7500  -6.2500 Du        
   1629 ****        17.0000   3.7500  -6.0000 Du        
   1630 ****        17.0000   3.7500  -5.7500 Du        
   1631 ****        17.0000   3.7500  -5.5000 Du        
   1632 ****        17.0000   3.7500  -5.2500 Du        
   1633 ****        17.0000   3.7500  -5.0000 Du        
   1634 ****        17.0000   4.0000  -8.0000 Du        
   1635 ****        17.0000   4.0000  -7.7500 Du        
   1636 ****        17.0000   4.0000  -7.5000 Du        
   1637 ****        17.0000   4.0000  -7.2500 Du        
   1638 ****        17.0000   4.0000  -7.0000 Du        
   1639 ****        17.0000   4.0000  -6.7500 Du        
   1640 ****        17.0000   4.0000  -6.5000 Du        
   1641 ****        17.0000   4.0000  -6.2500 Du        
   1642 ****        17.0000   4.0000  -6.0000 Du        
   1643 ****        17.0000   4.0000  -5.7500 Du        
   1644 ****        17.0000   4.0000  -5.5000 Du        
   1645 ****        17.0000   4.0000  -5.2500 Du        
   1646 ****        17.0000   4.0000  -5.0000 Du        
   1647 ****        17.0000   4.2500  -7.7500 Du        
   1648 ****        17.0000   4.2500  -7.5000 Du        
   1649 ****        17.0000   4.2500  -7.2500 Du        
   1650 ****        17.0000   4.2500  -7.0000 Du        
   1651 ****        17.0000   4.2500  -6.7500 Du        
   1652 ****        17.0000   4.2500  -6.5000 Du        
   1653 ****        17.0000   4.2500  -6.2500 Du        
   1654 ****        17.0000   4.2500  -6.0000 Du        
   1655 ****        17.0000   4.2500  -5.7500 Du        
   1656 ****        17.0000   4.2500  -5.5000 Du        
   1657 ****        17.0000   4.2500  -5.2500 Du        
   1658 ****        17.0000   4.2500  -5.0000 Du        
   1659 ****        17.0000   4.5000  -7.5000 Du        
   1660 ****        17.0000   4.5000  -7.2500 Du        
   1661 ****        17.0000   4.5000  -7.0000 Du        
   1662 ****        17.0000   4.5000  -6.7500 Du        
   1663 ****        17.0000   4.5000  -6.5000 Du        
   1664 ****        17.0000   4.5000  -6.2500 Du        
   1665 ****        17.0000   4.5000  -6.0000 Du        
   1666 ****        17.0000   4.5000  -5.7500 Du        
   1667 ****        17.0000   4.5000  -5.5000 Du        
   1668 ****        17.0000   4.5000  -5.2500 Du        
   1669 ****        17.0000   4.5000  -5.0000 Du        
   1670 ****        17.0000   4.7500  -7.2500 Du        
   1671 ****        17.0000   4.7500  -7.0000 Du        
   1672 ****        17.0000   4.7500  -6.7500 Du        
   1673 ****        17.0000   4.7500  -6.5000 Du        
   1674 ****        17.0000   4.7500  -6.2500 Du        
   1675 ****        17.0000   4.7500  -6.0000 Du        
   1676 ****        17.0000   4.7500  -5.7500 Du        
   1677 ****        17.0000   4.7500  -5.5000 Du        
   1678 ****        17.0000   4.7500  -5.2500 Du        
   1679 ****        17.0000   5.0000  -6.7500 Du        
   1680 ****        17.0000   5.0000  -6.5000 Du        
   1681 ****        17.0000   5.0000  -6.2500 Du        
   1682 ****        17.0000   5.0000  -6.0000 Du        
   1683 ****        17.0000   5.0000  -5.7500 Du        
   1684 ****        17.0000   5.0000  -5.5000 Du        
   1685 ****        17.0000   5.0000  -5.2500 Du        
   1686 ****        17.2500  -0.2500  -2.2500 Du        
   1687 ****        17.2500  -0.2500  -2.0000 Du        
   1688 ****        17.2500  -0.2500  -1.7500 Du        
   1689 ****        17.2500   0.0000  -2.5000 Du        
   1690 ****        17.2500   0.0000  -2.2500 Du        
   1691 ****        17.2500   0.0000  -2.0000 Du        
   1692 ****        17.2500   0.0000  -1.7500 Du        
   1693 ****        17.2500   0.2500  -2.5000 Du        
   1694 ****        17.2500   0.2500  -2.2500 Du        
   1695 ****        17.2500   0.2500  -2.0000 Du        
   1696 ****        17.2500   0.2500  -1.7500 Du        
   1697 ****        17.2500   0.5000  -3.0000 Du        
   1698 ****        17.2500   0.5000  -2.7500 Du        
   1699 ****        17.2500   0.5000  -2.5000 Du        
   1700 ****        17.2500   0.5000  -2.2500 Du        
   1701 ****        17.2500   0.5000  -2.0000 Du        
   1702 ****        17.2500   0.5000  -1.7500 Du        
   1703 ****        17.2500   0.7500  -3.2500 Du        
   1704 ****        17.2500   0.7500  -3.0000 Du        
   1705 ****        17.2500   0.7500  -2.7500 Du        
   1706 ****        17.2500   0.7500  -2.5000 Du        
   1707 ****        17.2500   0.7500  -2.2500 Du        
   1708 ****        17.2500   0.7500  -2.0000 Du        
   1709 ****        17.2500   1.0000  -3.2500 Du        
   1710 ****        17.2500   1.0000  -3.0000 Du        
   1711 ****        17.2500   1.0000  -2.7500 Du        
   1712 ****        17.2500   1.0000  -2.5000 Du        
   1713 ****        17.2500   1.0000  -2.2500 Du        
   1714 ****        17.2500   1.0000  -2.0000 Du        
   1715 ****        17.2500   1.2500  -3.5000 Du        
   1716 ****        17.2500   1.2500  -3.2500 Du        
   1717 ****        17.2500   1.2500  -3.0000 Du        
   1718 ****        17.2500   1.2500  -2.7500 Du        
   1719 ****        17.2500   1.2500  -2.5000 Du        
   1720 ****        17.2500   1.2500  -2.2500 Du        
   1721 ****        17.2500   1.5000  -3.7500 Du        
   1722 ****        17.2500   1.5000  -3.5000 Du        
   1723 ****        17.2500   1.5000  -3.2500 Du        
   1724 ****        17.2500   1.5000  -3.0000 Du        
   1725 ****        17.2500   1.5000  -2.7500 Du        
   1726 ****        17.2500   1.5000  -2.5000 Du        
   1727 ****        17.2500   1.5000  -2.2500 Du        
   1728 ****        17.2500   1.7500  -4.0000 Du        
   1729 ****        17.2500   1.7500  -3.7500 Du        
   1730 ****        17.2500   1.7500  -3.5000 Du        
   1731 ****        17.2500   1.7500  -3.2500 Du        
   1732 ****        17.2500   1.7500  -3.0000 Du        
   1733 ****        17.2500   1.7500  -2.7500 Du        
   1734 ****        17.2500   1.7500  -2.5000 Du        
   1735 ****        17.2500   2.0000  -4.5000 Du        
   1736 ****        17.2500   2.0000  -4.2500 Du        
   1737 ****        17.2500   2.0000  -4.0000 Du        
   1738 ****        17.2500   2.0000  -3.7500 Du        
   1739 ****        17.2500   2.0000  -3.5000 Du        
   1740 ****        17.2500   2.0000  -3.2500 Du        
   1741 ****        17.2500   2.0000  -3.0000 Du        
   1742 ****        17.2500   2.2500  -4.5000 Du        
   1743 ****        17.2500   2.2500  -4.2500 Du        
   1744 ****        17.2500   2.2500  -4.0000 Du        
   1745 ****        17.2500   2.2500  -3.7500 Du        
   1746 ****        17.2500   2.2500  -3.5000 Du        
   1747 ****        17.2500   2.2500  -3.2500 Du        
   1748 ****        17.2500   2.5000  -4.5000 Du        
   1749 ****        17.2500   2.5000  -4.2500 Du        
   1750 ****        17.2500   2.5000  -4.0000 Du        
   1751 ****        17.2500   2.7500  -5.5000 Du        
   1752 ****        17.2500   2.7500  -5.2500 Du        
   1753 ****        17.2500   2.7500  -5.0000 Du        
   1754 ****        17.2500   2.7500  -4.7500 Du        
   1755 ****        17.2500   2.7500  -4.5000 Du        
   1756 ****        17.2500   3.0000  -5.7500 Du        
   1757 ****        17.2500   3.0000  -5.5000 Du        
   1758 ****        17.2500   3.0000  -5.2500 Du        
   1759 ****        17.2500   3.0000  -5.0000 Du        
   1760 ****        17.2500   3.2500  -6.0000 Du        
   1761 ****        17.2500   3.2500  -5.7500 Du        
   1762 ****        17.2500   3.2500  -5.5000 Du        
   1763 ****        17.2500   3.2500  -5.2500 Du        
   1764 ****        17.2500   3.2500  -5.0000 Du        
   1765 ****        17.2500   3.5000  -7.2500 Du        
   1766 ****        17.2500   3.5000  -7.0000 Du        
   1767 ****        17.2500   3.5000  -6.7500 Du        
   1768 ****        17.2500   3.5000  -6.5000 Du        
   1769 ****        17.2500   3.5000  -6.2500 Du        
   1770 ****        17.2500   3.5000  -6.0000 Du        
   1771 ****        17.2500   3.5000  -5.7500 Du        
   1772 ****        17.2500   3.5000  -5.5000 Du        
   1773 ****        17.2500   3.5000  -5.2500 Du        
   1774 ****        17.2500   3.7500  -7.5000 Du        
   1775 ****        17.2500   3.7500  -7.2500 Du        
   1776 ****        17.2500   3.7500  -7.0000 Du        
   1777 ****        17.2500   3.7500  -6.7500 Du        
   1778 ****        17.2500   3.7500  -6.5000 Du        
   1779 ****        17.2500   3.7500  -6.2500 Du        
   1780 ****        17.2500   3.7500  -6.0000 Du        
   1781 ****        17.2500   3.7500  -5.7500 Du        
   1782 ****        17.2500   3.7500  -5.5000 Du        
   1783 ****        17.2500   3.7500  -5.2500 Du        
   1784 ****        17.2500   4.0000  -7.7500 Du        
   1785 ****        17.2500   4.0000  -7.5000 Du        
   1786 ****        17.2500   4.0000  -7.2500 Du        
   1787 ****        17.2500   4.0000  -7.0000 Du        
   1788 ****        17.2500   4.0000  -6.7500 Du        
   1789 ****        17.2500   4.0000  -6.5000 Du        
   1790 ****        17.2500   4.0000  -6.2500 Du        
   1791 ****        17.2500   4.0000  -6.0000 Du        
   1792 ****        17.2500   4.0000  -5.7500 Du        
   1793 ****        17.2500   4.0000  -5.5000 Du        
   1794 ****        17.2500   4.0000  -5.2500 Du        
   1795 ****        17.2500   4.2500  -7.7500 Du        
   1796 ****        17.2500   4.2500  -7.5000 Du        
   1797 ****        17.2500   4.2500  -7.2500 Du        
   1798 ****        17.2500   4.2500  -7.0000 Du        
   1799 ****        17.2500   4.2500  -6.7500 Du        
   1800 ****        17.2500   4.2500  -6.5000 Du        
   1801 ****        17.2500   4.2500  -6.2500 Du        
   1802 ****        17.2500   4.2500  -6.0000 Du        
   1803 ****        17.2500   4.2500  -5.7500 Du        
   1804 ****        17.2500   4.2500  -5.5000 Du        
   1805 ****        17.2500   4.2500  -5.2500 Du        
   1806 ****        17.2500   4.5000  -7.5000 Du        
   1807 ****        17.2500   4.5000  -7.2500 Du        
   1808 ****        17.2500   4.5000  -7.0000 Du        
   1809 ****        17.2500   4.5000  -6.7500 Du        
   1810 ****        17.2500   4.5000  -6.5000 Du        
   1811 ****        17.2500   4.5000  -6.2500 Du        
   1812 ****        17.2500   4.5000  -6.0000 Du        
   1813 ****        17.2500   4.5000  -5.7500 Du        
   1814 ****        17.2500   4.5000  -5.5000 Du        
   1815 ****        17.2500   4.7500  -7.2500 Du        
   1816 ****        17.2500   4.7500  -7.0000 Du        
   1817 ****        17.2500   4.7500  -6.7500 Du        
   1818 ****        17.2500   4.7500  -6.5000 Du        
   1819 ****        17.2500   4.7500  -6.2500 Du        
   1820 ****        17.2500   4.7500  -6.0000 Du        
   1821 ****        17.2500   4.7500  -5.7500 Du        
   1822 ****        17.2500   4.7500  -5.5000 Du        
   1823 ****        17.2500   5.0000  -6.7500 Du        
   1824 ****        17.2500   5.0000  -6.5000 Du        
   1825 ****        17.2500   5.0000  -6.2500 Du        
   1826 ****        17.2500   5.0000  -6.0000 Du        
   1827 ****        17.2500   5.0000  -5.7500 Du        
   1828 ****        17.2500   5.0000  -5.5000 Du        
   1829 ****        17.5000  -0.2500  -2.2500 Du        
   1830 ****        17.5000  -0.2500  -2.0000 Du        
   1831 ****        17.5000  -0.2500  -1.7500 Du        
   1832 ****        17.5000   0.0000  -2.5000 Du        
   1833 ****        17.5000   0.0000  -2.2500 Du        
   1834 ****        17.5000   0.0000  -2.0000 Du        
   1835 ****        17.5000   0.0000  -1.7500 Du        
   1836 ****        17.5000   0.2500  -2.7500 Du        
   1837 ****        17.5000   0.2500  -2.5000 Du        
   1838 ****        17.5000   0.2500  -2.2500 Du        
   1839 ****        17.5000   0.2500  -2.0000 Du        
   1840 ****        17.5000   0.2500  -1.7500 Du        
   1841 ****        17.5000   0.5000  -3.0000 Du        
   1842 ****        17.5000   0.5000  -2.7500 Du        
   1843 ****        17.5000   0.5000  -2.5000 Du        
   1844 ****        17.5000   0.5000  -2.2500 Du        
   1845 ****        17.5000   0.5000  -2.0000 Du        
   1846 ****        17.5000   0.5000  -1.7500 Du        
   1847 ****        17.5000   0.5000  -1.5000 Du        
   1848 ****        17.5000   0.7500  -3.2500 Du        
   1849 ****        17.5000   0.7500  -3.0000 Du        
   1850 ****        17.5000   0.7500  -2.7500 Du        
   1851 ****        17.5000   0.7500  -2.5000 Du        
   1852 ****        17.5000   0.7500  -2.2500 Du        
   1853 ****        17.5000   0.7500  -2.0000 Du        
   1854 ****        17.5000   0.7500  -1.7500 Du        
   1855 ****        17.5000   1.0000  -3.2500 Du        
   1856 ****        17.5000   1.0000  -3.0000 Du        
   1857 ****        17.5000   1.0000  -2.7500 Du        
   1858 ****        17.5000   1.0000  -2.5000 Du        
   1859 ****        17.5000   1.0000  -2.2500 Du        
   1860 ****        17.5000   1.0000  -2.0000 Du        
   1861 ****        17.5000   1.2500  -3.5000 Du        
   1862 ****        17.5000   1.2500  -3.2500 Du        
   1863 ****        17.5000   1.2500  -3.0000 Du        
   1864 ****        17.5000   1.2500  -2.7500 Du        
   1865 ****        17.5000   1.2500  -2.5000 Du        
   1866 ****        17.5000   1.2500  -2.2500 Du        
   1867 ****        17.5000   1.2500  -2.0000 Du        
   1868 ****        17.5000   1.5000  -3.5000 Du        
   1869 ****        17.5000   1.5000  -3.2500 Du        
   1870 ****        17.5000   1.5000  -3.0000 Du        
   1871 ****        17.5000   1.5000  -2.7500 Du        
   1872 ****        17.5000   1.5000  -2.5000 Du        
   1873 ****        17.5000   1.7500  -3.5000 Du        
   1874 ****        17.5000   1.7500  -3.2500 Du        
   1875 ****        17.5000   1.7500  -3.0000 Du        
   1876 ****        17.5000   2.0000  -3.5000 Du        
   1877 ****        17.5000   2.0000  -3.2500 Du        
   1878 ****        17.5000   3.0000  -5.5000 Du        
   1879 ****        17.5000   3.0000  -5.2500 Du        
   1880 ****        17.5000   3.2500  -6.2500 Du        
   1881 ****        17.5000   3.2500  -6.0000 Du        
   1882 ****        17.5000   3.2500  -5.5000 Du        
   1883 ****        17.5000   3.5000  -7.0000 Du        
   1884 ****        17.5000   3.5000  -6.7500 Du        
   1885 ****        17.5000   3.5000  -6.5000 Du        
   1886 ****        17.5000   3.5000  -6.2500 Du        
   1887 ****        17.5000   3.5000  -6.0000 Du        
   1888 ****        17.5000   3.5000  -5.7500 Du        
   1889 ****        17.5000   3.5000  -5.5000 Du        
   1890 ****        17.5000   3.7500  -7.5000 Du        
   1891 ****        17.5000   3.7500  -7.2500 Du        
   1892 ****        17.5000   3.7500  -7.0000 Du        
   1893 ****        17.5000   3.7500  -6.7500 Du        
   1894 ****        17.5000   3.7500  -6.5000 Du        
   1895 ****        17.5000   3.7500  -6.2500 Du        
   1896 ****        17.5000   3.7500  -6.0000 Du        
   1897 ****        17.5000   3.7500  -5.7500 Du        
   1898 ****        17.5000   4.0000  -7.7500 Du        
   1899 ****        17.5000   4.0000  -7.5000 Du        
   1900 ****        17.5000   4.0000  -7.2500 Du        
   1901 ****        17.5000   4.0000  -7.0000 Du        
   1902 ****        17.5000   4.0000  -6.7500 Du        
   1903 ****        17.5000   4.0000  -6.5000 Du        
   1904 ****        17.5000   4.0000  -6.2500 Du        
   1905 ****        17.5000   4.0000  -6.0000 Du        
   1906 ****        17.5000   4.0000  -5.7500 Du        
   1907 ****        17.5000   4.2500  -7.7500 Du        
   1908 ****        17.5000   4.2500  -7.5000 Du        
   1909 ****        17.5000   4.2500  -7.2500 Du        
   1910 ****        17.5000   4.2500  -7.0000 Du        
   1911 ****        17.5000   4.2500  -6.7500 Du        
   1912 ****        17.5000   4.2500  -6.5000 Du        
   1913 ****        17.5000   4.2500  -6.2500 Du        
   1914 ****        17.5000   4.2500  -6.0000 Du        
   1915 ****        17.5000   4.2500  -5.7500 Du        
   1916 ****        17.5000   4.5000  -7.7500 Du        
   1917 ****        17.5000   4.5000  -7.5000 Du        
   1918 ****        17.5000   4.5000  -7.2500 Du        
   1919 ****        17.5000   4.5000  -7.0000 Du        
   1920 ****        17.5000   4.5000  -6.7500 Du        
   1921 ****        17.5000   4.5000  -6.5000 Du        
   1922 ****        17.5000   4.5000  -6.2500 Du        
   1923 ****        17.5000   4.5000  -6.0000 Du        
   1924 ****        17.5000   4.5000  -5.7500 Du        
   1925 ****        17.5000   4.7500  -7.2500 Du        
   1926 ****        17.5000   4.7500  -7.0000 Du        
   1927 ****        17.5000   4.7500  -6.7500 Du        
   1928 ****        17.5000   4.7500  -6.5000 Du        
   1929 ****        17.5000   4.7500  -6.2500 Du        
   1930 ****        17.5000   4.7500  -6.0000 Du        
   1931 ****        17.5000   4.7500  -5.7500 Du        
   1932 ****        17.5000   5.0000  -6.7500 Du        
   1933 ****        17.5000   5.0000  -6.5000 Du        
   1934 ****        17.5000   5.0000  -6.2500 Du        
   1935 ****        17.5000   5.0000  -6.0000 Du        
   1936 ****        17.7500  -0.5000  -1.7500 Du        
   1937 ****        17.7500  -0.2500  -2.2500 Du        
   1938 ****        17.7500  -0.2500  -2.0000 Du        
   1939 ****        17.7500  -0.2500  -1.7500 Du        
   1940 ****        17.7500  -0.2500  -1.5000 Du        
   1941 ****        17.7500   0.0000  -2.7500 Du        
   1942 ****        17.7500   0.0000  -2.5000 Du        
   1943 ****        17.7500   0.0000  -2.2500 Du        
   1944 ****        17.7500   0.0000  -2.0000 Du        
   1945 ****        17.7500   0.0000  -1.7500 Du        
   1946 ****        17.7500   0.0000  -1.5000 Du        
   1947 ****        17.7500   0.2500  -3.0000 Du        
   1948 ****        17.7500   0.2500  -2.7500 Du        
   1949 ****        17.7500   0.2500  -2.5000 Du        
   1950 ****        17.7500   0.2500  -2.2500 Du        
   1951 ****        17.7500   0.2500  -2.0000 Du        
   1952 ****        17.7500   0.2500  -1.7500 Du        
   1953 ****        17.7500   0.2500  -1.5000 Du        
   1954 ****        17.7500   0.5000  -3.0000 Du        
   1955 ****        17.7500   0.5000  -2.7500 Du        
   1956 ****        17.7500   0.5000  -2.5000 Du        
   1957 ****        17.7500   0.5000  -2.2500 Du        
   1958 ****        17.7500   0.5000  -2.0000 Du        
   1959 ****        17.7500   0.5000  -1.7500 Du        
   1960 ****        17.7500   0.5000  -1.5000 Du        
   1961 ****        17.7500   0.5000  -1.2500 Du        
   1962 ****        17.7500   0.7500  -3.2500 Du        
   1963 ****        17.7500   0.7500  -3.0000 Du        
   1964 ****        17.7500   0.7500  -2.7500 Du        
   1965 ****        17.7500   0.7500  -2.5000 Du        
   1966 ****        17.7500   0.7500  -2.2500 Du        
   1967 ****        17.7500   0.7500  -2.0000 Du        
   1968 ****        17.7500   0.7500  -1.7500 Du        
   1969 ****        17.7500   0.7500  -1.5000 Du        
   1970 ****        17.7500   1.0000  -3.5000 Du        
   1971 ****        17.7500   1.0000  -3.2500 Du        
   1972 ****        17.7500   1.0000  -3.0000 Du        
   1973 ****        17.7500   1.0000  -2.7500 Du        
   1974 ****        17.7500   1.0000  -2.5000 Du        
   1975 ****        17.7500   1.0000  -2.2500 Du        
   1976 ****        17.7500   1.0000  -2.0000 Du        
   1977 ****        17.7500   1.0000  -1.7500 Du        
   1978 ****        17.7500   1.2500  -3.5000 Du        
   1979 ****        17.7500   1.2500  -3.2500 Du        
   1980 ****        17.7500   1.2500  -3.0000 Du        
   1981 ****        17.7500   1.2500  -2.7500 Du        
   1982 ****        17.7500   1.2500  -2.5000 Du        
   1983 ****        17.7500   1.2500  -2.2500 Du        
   1984 ****        17.7500   1.5000  -3.5000 Du        
   1985 ****        17.7500   1.5000  -3.2500 Du        
   1986 ****        17.7500   1.5000  -3.0000 Du        
   1987 ****        17.7500   1.5000  -2.7500 Du        
   1988 ****        17.7500   1.7500  -3.5000 Du        
   1989 ****        17.7500   1.7500  -3.2500 Du        
   1990 ****        17.7500   1.7500  -3.0000 Du        
   1991 ****        17.7500   3.5000  -7.0000 Du        
   1992 ****        17.7500   3.5000  -6.7500 Du        
   1993 ****        17.7500   3.5000  -6.5000 Du        
   1994 ****        17.7500   3.5000  -6.2500 Du        
   1995 ****        17.7500   3.5000  -6.0000 Du        
   1996 ****        17.7500   3.5000  -5.7500 Du        
   1997 ****        17.7500   3.7500  -7.2500 Du        
   1998 ****        17.7500   3.7500  -7.0000 Du        
   1999 ****        17.7500   3.7500  -6.7500 Du        
   2000 ****        17.7500   3.7500  -6.5000 Du        
   2001 ****        17.7500   3.7500  -6.2500 Du        
   2002 ****        17.7500   3.7500  -6.0000 Du        
   2003 ****        17.7500   3.7500  -5.7500 Du        
   2004 ****        17.7500   4.0000  -7.7500 Du        
   2005 ****        17.7500   4.0000  -7.5000 Du        
   2006 ****        17.7500   4.0000  -7.2500 Du        
   2007 ****        17.7500   4.0000  -7.0000 Du        
   2008 ****        17.7500   4.0000  -6.7500 Du        
   2009 ****        17.7500   4.0000  -6.5000 Du        
   2010 ****        17.7500   4.0000  -6.2500 Du        
   2011 ****        17.7500   4.0000  -6.0000 Du        
   2012 ****        17.7500   4.0000  -5.7500 Du        
   2013 ****        17.7500   4.2500  -8.0000 Du        
   2014 ****        17.7500   4.2500  -7.7500 Du        
   2015 ****        17.7500   4.2500  -7.5000 Du        
   2016 ****        17.7500   4.2500  -7.2500 Du        
   2017 ****        17.7500   4.2500  -7.0000 Du        
   2018 ****        17.7500   4.2500  -6.7500 Du        
   2019 ****        17.7500   4.2500  -6.5000 Du        
   2020 ****        17.7500   4.2500  -6.2500 Du        
   2021 ****        17.7500   4.2500  -6.0000 Du        
   2022 ****        17.7500   4.2500  -5.7500 Du        
   2023 ****        17.7500   4.5000  -7.7500 Du        
   2024 ****        17.7500   4.5000  -7.5000 Du        
   2025 ****        17.7500   4.5000  -7.2500 Du        
   2026 ****        17.7500   4.5000  -7.0000 Du        
   2027 ****        17.7500   4.5000  -6.7500 Du        
   2028 ****        17.7500   4.5000  -6.5000 Du        
   2029 ****        17.7500   4.5000  -6.2500 Du        
   2030 ****        17.7500   4.5000  -6.0000 Du        
   2031 ****        17.7500   4.7500  -7.5000 Du        
   2032 ****        17.7500   4.7500  -7.2500 Du        
   2033 ****        17.7500   4.7500  -7.0000 Du        
   2034 ****        17.7500   4.7500  -6.7500 Du        
   2035 ****        17.7500   4.7500  -6.5000 Du        
   2036 ****        17.7500   4.7500  -6.2500 Du        
   2037 ****        17.7500   4.7500  -6.0000 Du        
   2038 ****        17.7500   5.0000  -7.0000 Du        
   2039 ****        17.7500   5.0000  -6.7500 Du        
   2040 ****        17.7500   5.0000  -6.5000 Du        
   2041 ****        17.7500   5.0000  -6.2500 Du        
   2042 ****        17.7500   5.0000  -6.0000 Du        
   2043 ****        18.0000  -0.5000  -1.5000 Du        
   2044 ****        18.0000  -0.2500  -2.2500 Du        
   2045 ****        18.0000  -0.2500  -2.0000 Du        
   2046 ****        18.0000  -0.2500  -1.7500 Du        
   2047 ****        18.0000  -0.2500  -1.5000 Du        
   2048 ****        18.0000  -0.2500  -1.2500 Du        
   2049 ****        18.0000   0.0000  -2.7500 Du        
   2050 ****        18.0000   0.0000  -2.5000 Du        
   2051 ****        18.0000   0.0000  -2.2500 Du        
   2052 ****        18.0000   0.0000  -2.0000 Du        
   2053 ****        18.0000   0.0000  -1.7500 Du        
   2054 ****        18.0000   0.0000  -1.5000 Du        
   2055 ****        18.0000   0.0000  -1.2500 Du        
   2056 ****        18.0000   0.2500  -3.0000 Du        
   2057 ****        18.0000   0.2500  -2.7500 Du        
   2058 ****        18.0000   0.2500  -2.5000 Du        
   2059 ****        18.0000   0.2500  -2.2500 Du        
   2060 ****        18.0000   0.2500  -2.0000 Du        
   2061 ****        18.0000   0.2500  -1.7500 Du        
   2062 ****        18.0000   0.2500  -1.5000 Du        
   2063 ****        18.0000   0.2500  -1.2500 Du        
   2064 ****        18.0000   0.5000  -3.2500 Du        
   2065 ****        18.0000   0.5000  -3.0000 Du        
   2066 ****        18.0000   0.5000  -2.7500 Du        
   2067 ****        18.0000   0.5000  -2.5000 Du        
   2068 ****        18.0000   0.5000  -2.2500 Du        
   2069 ****        18.0000   0.5000  -2.0000 Du        
   2070 ****        18.0000   0.5000  -1.7500 Du        
   2071 ****        18.0000   0.5000  -1.5000 Du        
   2072 ****        18.0000   0.7500  -3.2500 Du        
   2073 ****        18.0000   0.7500  -3.0000 Du        
   2074 ****        18.0000   0.7500  -2.7500 Du        
   2075 ****        18.0000   0.7500  -2.5000 Du        
   2076 ****        18.0000   0.7500  -2.2500 Du        
   2077 ****        18.0000   0.7500  -2.0000 Du        
   2078 ****        18.0000   0.7500  -1.7500 Du        
   2079 ****        18.0000   1.0000  -3.5000 Du        
   2080 ****        18.0000   1.0000  -3.2500 Du        
   2081 ****        18.0000   1.0000  -3.0000 Du        
   2082 ****        18.0000   1.0000  -2.7500 Du        
   2083 ****        18.0000   1.0000  -2.5000 Du        
   2084 ****        18.0000   1.0000  -2.2500 Du        
   2085 ****        18.0000   1.0000  -2.0000 Du        
   2086 ****        18.0000   1.2500  -3.7500 Du        
   2087 ****        18.0000   1.2500  -3.5000 Du        
   2088 ****        18.0000   1.2500  -3.2500 Du        
   2089 ****        18.0000   1.2500  -3.0000 Du        
   2090 ****        18.0000   1.2500  -2.7500 Du        
   2091 ****        18.0000   1.2500  -2.5000 Du        
   2092 ****        18.0000   1.5000  -3.5000 Du        
   2093 ****        18.0000   1.5000  -3.2500 Du        
   2094 ****        18.0000   1.7500  -3.5000 Du        
   2095 ****        18.0000   3.5000  -6.5000 Du        
   2096 ****        18.0000   3.5000  -6.2500 Du        
   2097 ****        18.0000   3.5000  -6.0000 Du        
   2098 ****        18.0000   3.7500  -7.2500 Du        
   2099 ****        18.0000   3.7500  -7.0000 Du        
   2100 ****        18.0000   3.7500  -6.7500 Du        
   2101 ****        18.0000   3.7500  -6.5000 Du        
   2102 ****        18.0000   3.7500  -6.2500 Du        
   2103 ****        18.0000   3.7500  -6.0000 Du        
   2104 ****        18.0000   4.0000  -7.7500 Du        
   2105 ****        18.0000   4.0000  -7.5000 Du        
   2106 ****        18.0000   4.0000  -7.2500 Du        
   2107 ****        18.0000   4.0000  -7.0000 Du        
   2108 ****        18.0000   4.0000  -6.7500 Du        
   2109 ****        18.0000   4.0000  -6.5000 Du        
   2110 ****        18.0000   4.0000  -6.2500 Du        
   2111 ****        18.0000   4.0000  -6.0000 Du        
   2112 ****        18.0000   4.2500  -8.0000 Du        
   2113 ****        18.0000   4.2500  -7.7500 Du        
   2114 ****        18.0000   4.2500  -7.5000 Du        
   2115 ****        18.0000   4.2500  -7.2500 Du        
   2116 ****        18.0000   4.2500  -7.0000 Du        
   2117 ****        18.0000   4.2500  -6.7500 Du        
   2118 ****        18.0000   4.2500  -6.5000 Du        
   2119 ****        18.0000   4.2500  -6.2500 Du        
   2120 ****        18.0000   4.2500  -6.0000 Du        
   2121 ****        18.0000   4.5000  -8.0000 Du        
   2122 ****        18.0000   4.5000  -7.7500 Du        
   2123 ****        18.0000   4.5000  -7.5000 Du        
   2124 ****        18.0000   4.5000  -7.2500 Du        
   2125 ****        18.0000   4.5000  -7.0000 Du        
   2126 ****        18.0000   4.5000  -6.7500 Du        
   2127 ****        18.0000   4.5000  -6.5000 Du        
   2128 ****        18.0000   4.5000  -6.2500 Du        
   2129 ****        18.0000   4.5000  -6.0000 Du        
   2130 ****        18.0000   4.7500  -7.7500 Du        
   2131 ****        18.0000   4.7500  -7.5000 Du        
   2132 ****        18.0000   4.7500  -7.2500 Du        
   2133 ****        18.0000   4.7500  -7.0000 Du        
   2134 ****        18.0000   4.7500  -6.7500 Du        
   2135 ****        18.0000   4.7500  -6.5000 Du        
   2136 ****        18.0000   4.7500  -6.2500 Du        
   2137 ****        18.0000   4.7500  -6.0000 Du        
   2138 ****        18.0000   5.0000  -7.2500 Du        
   2139 ****        18.0000   5.0000  -7.0000 Du        
   2140 ****        18.0000   5.0000  -6.7500 Du        
   2141 ****        18.0000   5.0000  -6.5000 Du        
   2142 ****        18.0000   5.0000  -6.2500 Du        
   2143 ****        18.2500  -0.5000  -1.7500 Du        
   2144 ****        18.2500  -0.5000  -1.5000 Du        
   2145 ****        18.2500  -0.5000  -1.2500 Du        
   2146 ****        18.2500  -0.5000  -1.0000 Du        
   2147 ****        18.2500  -0.2500  -2.2500 Du        
   2148 ****        18.2500  -0.2500  -2.0000 Du        
   2149 ****        18.2500  -0.2500  -1.7500 Du        
   2150 ****        18.2500  -0.2500  -1.5000 Du        
   2151 ****        18.2500  -0.2500  -1.2500 Du        
   2152 ****        18.2500  -0.2500  -1.0000 Du        
   2153 ****        18.2500   0.0000  -2.7500 Du        
   2154 ****        18.2500   0.0000  -2.5000 Du        
   2155 ****        18.2500   0.0000  -2.2500 Du        
   2156 ****        18.2500   0.0000  -2.0000 Du        
   2157 ****        18.2500   0.0000  -1.7500 Du        
   2158 ****        18.2500   0.0000  -1.5000 Du        
   2159 ****        18.2500   0.0000  -1.2500 Du        
   2160 ****        18.2500   0.0000  -1.0000 Du        
   2161 ****        18.2500   0.2500  -2.7500 Du        
   2162 ****        18.2500   0.2500  -2.5000 Du        
   2163 ****        18.2500   0.2500  -2.2500 Du        
   2164 ****        18.2500   0.2500  -2.0000 Du        
   2165 ****        18.2500   0.2500  -1.7500 Du        
   2166 ****        18.2500   0.2500  -1.5000 Du        
   2167 ****        18.2500   0.5000  -3.0000 Du        
   2168 ****        18.2500   0.5000  -2.7500 Du        
   2169 ****        18.2500   0.5000  -2.5000 Du        
   2170 ****        18.2500   0.5000  -2.2500 Du        
   2171 ****        18.2500   0.5000  -2.0000 Du        
   2172 ****        18.2500   0.5000  -1.7500 Du        
   2173 ****        18.2500   0.7500  -3.2500 Du        
   2174 ****        18.2500   0.7500  -3.0000 Du        
   2175 ****        18.2500   0.7500  -2.7500 Du        
   2176 ****        18.2500   0.7500  -2.5000 Du        
   2177 ****        18.2500   0.7500  -2.2500 Du        
   2178 ****        18.2500   1.0000  -3.7500 Du        
   2179 ****        18.2500   1.0000  -3.5000 Du        
   2180 ****        18.2500   1.0000  -3.2500 Du        
   2181 ****        18.2500   1.0000  -3.0000 Du        
   2182 ****        18.2500   1.0000  -2.7500 Du        
   2183 ****        18.2500   1.0000  -2.5000 Du        
   2184 ****        18.2500   1.2500  -3.7500 Du        
   2185 ****        18.2500   1.2500  -3.5000 Du        
   2186 ****        18.2500   1.2500  -3.2500 Du        
   2187 ****        18.2500   4.2500  -8.2500 Du        
   2188 ****        18.2500   4.2500  -8.0000 Du        
   2189 ****        18.2500   4.2500  -7.7500 Du        
   2190 ****        18.2500   4.2500  -7.5000 Du        
   2191 ****        18.2500   4.2500  -7.2500 Du        
   2192 ****        18.2500   4.2500  -7.0000 Du        
   2193 ****        18.2500   4.2500  -6.5000 Du        
   2194 ****        18.2500   4.5000  -8.2500 Du        
   2195 ****        18.2500   4.5000  -8.0000 Du        
   2196 ****        18.2500   4.5000  -7.7500 Du        
   2197 ****        18.2500   4.5000  -7.5000 Du        
   2198 ****        18.2500   4.5000  -7.2500 Du        
   2199 ****        18.2500   4.5000  -7.0000 Du        
   2200 ****        18.2500   4.5000  -6.7500 Du        
   2201 ****        18.2500   4.5000  -6.5000 Du        
   2202 ****        18.2500   4.7500  -8.0000 Du        
   2203 ****        18.2500   4.7500  -7.7500 Du        
   2204 ****        18.2500   4.7500  -7.5000 Du        
   2205 ****        18.2500   4.7500  -7.2500 Du        
   2206 ****        18.2500   4.7500  -7.0000 Du        
   2207 ****        18.2500   4.7500  -6.7500 Du        
   2208 ****        18.2500   4.7500  -6.5000 Du        
   2209 ****        18.2500   4.7500  -6.2500 Du        
   2210 ****        18.2500   5.0000  -7.5000 Du        
   2211 ****        18.2500   5.0000  -7.2500 Du        
   2212 ****        18.2500   5.0000  -7.0000 Du        
   2213 ****        18.2500   5.0000  -6.7500 Du        
   2214 ****        18.2500   5.0000  -6.5000 Du        
   2215 ****        18.2500   5.2500  -7.0000 Du        
   2216 ****        18.2500   5.2500  -6.7500 Du        
   2217 ****        18.2500  14.7500 -12.2500 Du        
   2218 ****        18.2500  14.7500 -12.0000 Du        
   2219 ****        18.2500  15.0000 -12.2500 Du        
   2220 ****        18.2500  15.0000 -12.0000 Du        
   2221 ****        18.5000  -0.2500  -1.7500 Du        
   2222 ****        18.5000  -0.2500  -1.5000 Du        
   2223 ****        18.5000  -0.2500  -1.2500 Du        
   2224 ****        18.5000   0.0000  -2.0000 Du        
   2225 ****        18.5000   0.0000  -1.7500 Du        
   2226 ****        18.5000   0.0000  -1.5000 Du        
   2227 ****        18.5000   4.5000  -8.2500 Du        
   2228 ****        18.5000   4.5000  -8.0000 Du        
   2229 ****        18.5000   4.5000  -7.7500 Du        
   2230 ****        18.5000   4.5000  -7.5000 Du        
   2231 ****        18.5000   4.7500  -8.2500 Du        
   2232 ****        18.5000   4.7500  -8.0000 Du        
   2233 ****        18.5000   4.7500  -7.7500 Du        
   2234 ****        18.5000   4.7500  -7.5000 Du        
   2235 ****        18.5000   4.7500  -7.2500 Du        
   2236 ****        18.5000   4.7500  -7.0000 Du        
   2237 ****        18.5000   5.0000  -7.5000 Du        
   2238 ****        18.5000   5.0000  -7.2500 Du        
   2239 ****        18.5000   5.0000  -7.0000 Du        
   2240 ****        18.5000   5.0000  -6.7500 Du        
   2241 ****        18.5000  14.7500 -12.2500 Du        
   2242 ****        18.5000  14.7500 -12.0000 Du        
   2243 ****        18.5000  15.0000 -12.0000 Du        
   2244 ****        18.7500  -1.5000   0.5000 Du        
   2245 ****        18.7500  -1.5000   0.7500 Du        
   2246 ****        18.7500  -1.5000   1.0000 Du        
   2247 ****        18.7500  -1.5000   1.2500 Du        
   2248 ****        18.7500  -1.5000   1.5000 Du        
   2249 ****        18.7500  -1.5000   1.7500 Du        
   2250 ****        18.7500  -1.2500  -0.2500 Du        
   2251 ****        18.7500  -1.2500   0.0000 Du        
   2252 ****        18.7500  -1.2500   0.2500 Du        
   2253 ****        18.7500  -1.2500   0.5000 Du        
   2254 ****        18.7500  -1.2500   0.7500 Du        
   2255 ****        18.7500  -1.2500   1.0000 Du        
   2256 ****        18.7500  -1.2500   1.2500 Du        
   2257 ****        18.7500  -1.2500   1.5000 Du        
   2258 ****        18.7500  -1.2500   1.7500 Du        
   2259 ****        18.7500  -1.0000  -0.5000 Du        
   2260 ****        18.7500  -1.0000  -0.2500 Du        
   2261 ****        18.7500  -1.0000   0.0000 Du        
   2262 ****        18.7500  -1.0000   0.2500 Du        
   2263 ****        18.7500  -1.0000   0.5000 Du        
   2264 ****        18.7500  -1.0000   0.7500 Du        
   2265 ****        18.7500  -1.0000   1.0000 Du        
   2266 ****        18.7500  -1.0000   1.2500 Du        
   2267 ****        18.7500  -1.0000   1.5000 Du        
   2268 ****        18.7500  -0.7500  -0.5000 Du        
   2269 ****        18.7500  -0.7500  -0.2500 Du        
   2270 ****        18.7500  -0.7500   0.0000 Du        
   2271 ****        18.7500  -0.7500   0.2500 Du        
   2272 ****        18.7500  -0.7500   0.5000 Du        
   2273 ****        18.7500  -0.7500   0.7500 Du        
   2274 ****        18.7500  -0.7500   1.0000 Du        
   2275 ****        18.7500  -0.5000  -1.7500 Du        
   2276 ****        18.7500  -0.5000  -1.5000 Du        
   2277 ****        18.7500  -0.5000  -1.2500 Du        
   2278 ****        18.7500  -0.5000  -0.7500 Du        
   2279 ****        18.7500  -0.5000  -0.5000 Du        
   2280 ****        18.7500  -0.5000   0.0000 Du        
   2281 ****        18.7500  -0.5000   0.5000 Du        
   2282 ****        18.7500  -0.5000   0.7500 Du        
   2283 ****        18.7500  -0.2500  -2.0000 Du        
   2284 ****        18.7500  -0.2500  -1.7500 Du        
   2285 ****        18.7500  -0.2500  -1.5000 Du        
   2286 ****        18.7500   0.0000  -2.0000 Du        
   2287 ****        18.7500   1.5000  -4.2500 Du        
   2288 ****        18.7500   4.5000  -8.7500 Du        
   2289 ****        18.7500   4.5000  -8.5000 Du        
   2290 ****        18.7500   4.5000  -8.2500 Du        
   2291 ****        18.7500   4.5000  -8.0000 Du        
   2292 ****        18.7500   4.7500  -9.0000 Du        
   2293 ****        18.7500   4.7500  -8.7500 Du        
   2294 ****        18.7500   4.7500  -8.5000 Du        
   2295 ****        18.7500   4.7500  -8.2500 Du        
   2296 ****        18.7500   4.7500  -8.0000 Du        
   2297 ****        18.7500   4.7500  -7.7500 Du        
   2298 ****        18.7500   4.7500  -7.5000 Du        
   2299 ****        18.7500   5.0000  -8.2500 Du        
   2300 ****        18.7500   5.0000  -8.0000 Du        
   2301 ****        18.7500   5.0000  -7.7500 Du        
   2302 ****        18.7500   5.0000  -7.5000 Du        
   2303 ****        18.7500   5.0000  -7.2500 Du        
   2304 ****        19.0000  -2.0000   2.0000 Du        
   2305 ****        19.0000  -2.0000   2.5000 Du        
   2306 ****        19.0000  -2.0000   2.7500 Du        
   2307 ****        19.0000  -1.7500   1.2500 Du        
   2308 ****        19.0000  -1.7500   1.5000 Du        
   2309 ****        19.0000  -1.7500   1.7500 Du        
   2310 ****        19.0000  -1.7500   2.0000 Du        
   2311 ****        19.0000  -1.7500   2.2500 Du        
   2312 ****        19.0000  -1.7500   2.5000 Du        
   2313 ****        19.0000  -1.5000   0.2500 Du        
   2314 ****        19.0000  -1.5000   0.5000 Du        
   2315 ****        19.0000  -1.5000   0.7500 Du        
   2316 ****        19.0000  -1.5000   1.0000 Du        
   2317 ****        19.0000  -1.5000   1.2500 Du        
   2318 ****        19.0000  -1.5000   1.5000 Du        
   2319 ****        19.0000  -1.5000   1.7500 Du        
   2320 ****        19.0000  -1.5000   2.0000 Du        
   2321 ****        19.0000  -1.5000   2.2500 Du        
   2322 ****        19.0000  -1.5000   2.5000 Du        
   2323 ****        19.0000  -1.5000   2.7500 Du        
   2324 ****        19.0000  -1.2500   0.0000 Du        
   2325 ****        19.0000  -1.2500   0.2500 Du        
   2326 ****        19.0000  -1.2500   0.5000 Du        
   2327 ****        19.0000  -1.2500   0.7500 Du        
   2328 ****        19.0000  -1.2500   1.0000 Du        
   2329 ****        19.0000  -1.2500   1.2500 Du        
   2330 ****        19.0000  -1.2500   1.5000 Du        
   2331 ****        19.0000  -1.2500   1.7500 Du        
   2332 ****        19.0000  -1.2500   2.0000 Du        
   2333 ****        19.0000  -1.2500   2.2500 Du        
   2334 ****        19.0000  -1.2500   2.5000 Du        
   2335 ****        19.0000  -1.0000  -0.5000 Du        
   2336 ****        19.0000  -1.0000  -0.2500 Du        
   2337 ****        19.0000  -1.0000   0.0000 Du        
   2338 ****        19.0000  -1.0000   0.2500 Du        
   2339 ****        19.0000  -1.0000   0.5000 Du        
   2340 ****        19.0000  -1.0000   0.7500 Du        
   2341 ****        19.0000  -1.0000   1.0000 Du        
   2342 ****        19.0000  -1.0000   1.2500 Du        
   2343 ****        19.0000  -1.0000   1.5000 Du        
   2344 ****        19.0000  -1.0000   1.7500 Du        
   2345 ****        19.0000  -1.0000   2.0000 Du        
   2346 ****        19.0000  -1.0000   2.2500 Du        
   2347 ****        19.0000  -0.7500  -0.5000 Du        
   2348 ****        19.0000  -0.7500  -0.2500 Du        
   2349 ****        19.0000  -0.7500   0.0000 Du        
   2350 ****        19.0000  -0.7500   0.2500 Du        
   2351 ****        19.0000  -0.7500   0.5000 Du        
   2352 ****        19.0000  -0.7500   0.7500 Du        
   2353 ****        19.0000  -0.7500   1.0000 Du        
   2354 ****        19.0000  -0.7500   1.2500 Du        
   2355 ****        19.0000  -0.7500   1.5000 Du        
   2356 ****        19.0000  -0.7500   1.7500 Du        
   2357 ****        19.0000  -0.5000  -1.0000 Du        
   2358 ****        19.0000  -0.5000  -0.5000 Du        
   2359 ****        19.0000  -0.5000   0.0000 Du        
   2360 ****        19.0000  -0.5000   0.2500 Du        
   2361 ****        19.0000  -0.5000   0.5000 Du        
   2362 ****        19.0000  -0.5000   0.7500 Du        
   2363 ****        19.0000  -0.5000   1.0000 Du        
   2364 ****        19.0000  -0.5000   1.2500 Du        
   2365 ****        19.0000  -0.5000   1.5000 Du        
   2366 ****        19.0000  -0.2500   0.7500 Du        
   2367 ****        19.0000  -0.2500   1.0000 Du        
   2368 ****        19.0000   1.0000  -4.0000 Du        
   2369 ****        19.0000   1.0000  -3.7500 Du        
   2370 ****        19.0000   1.2500  -4.0000 Du        
   2371 ****        19.0000   4.5000  -9.0000 Du        
   2372 ****        19.0000   4.5000  -8.7500 Du        
   2373 ****        19.0000   4.5000  -8.5000 Du        
   2374 ****        19.0000   4.5000  -8.2500 Du        
   2375 ****        19.0000   4.7500  -9.2500 Du        
   2376 ****        19.0000   4.7500  -9.0000 Du        
   2377 ****        19.0000   4.7500  -8.7500 Du        
   2378 ****        19.0000   4.7500  -8.5000 Du        
   2379 ****        19.0000   4.7500  -8.2500 Du        
   2380 ****        19.0000   4.7500  -8.0000 Du        
   2381 ****        19.0000   5.0000  -9.2500 Du        
   2382 ****        19.0000   5.0000  -9.0000 Du        
   2383 ****        19.0000   5.0000  -8.7500 Du        
   2384 ****        19.0000   5.0000  -8.5000 Du        
   2385 ****        19.0000   5.0000  -8.2500 Du        
   2386 ****        19.0000   5.0000  -8.0000 Du        
   2387 ****        19.0000   5.0000  -7.7500 Du        
   2388 ****        19.0000   5.2500  -8.0000 Du        
   2389 ****        19.2500  -2.2500   2.7500 Du        
   2390 ****        19.2500  -2.2500   3.0000 Du        
   2391 ****        19.2500  -2.0000   2.0000 Du        
   2392 ****        19.2500  -2.0000   2.5000 Du        
   2393 ****        19.2500  -2.0000   2.7500 Du        
   2394 ****        19.2500  -2.0000   3.0000 Du        
   2395 ****        19.2500  -2.0000   3.2500 Du        
   2396 ****        19.2500  -2.0000   3.5000 Du        
   2397 ****        19.2500  -1.7500   1.5000 Du        
   2398 ****        19.2500  -1.7500   1.7500 Du        
   2399 ****        19.2500  -1.7500   2.0000 Du        
   2400 ****        19.2500  -1.7500   2.2500 Du        
   2401 ****        19.2500  -1.7500   2.5000 Du        
   2402 ****        19.2500  -1.7500   2.7500 Du        
   2403 ****        19.2500  -1.7500   3.0000 Du        
   2404 ****        19.2500  -1.7500   3.2500 Du        
   2405 ****        19.2500  -1.7500   3.5000 Du        
   2406 ****        19.2500  -1.5000   0.2500 Du        
   2407 ****        19.2500  -1.5000   0.5000 Du        
   2408 ****        19.2500  -1.5000   0.7500 Du        
   2409 ****        19.2500  -1.5000   1.0000 Du        
   2410 ****        19.2500  -1.5000   1.2500 Du        
   2411 ****        19.2500  -1.5000   1.5000 Du        
   2412 ****        19.2500  -1.5000   1.7500 Du        
   2413 ****        19.2500  -1.5000   2.0000 Du        
   2414 ****        19.2500  -1.5000   2.2500 Du        
   2415 ****        19.2500  -1.5000   2.5000 Du        
   2416 ****        19.2500  -1.5000   2.7500 Du        
   2417 ****        19.2500  -1.5000   3.0000 Du        
   2418 ****        19.2500  -1.5000   3.2500 Du        
   2419 ****        19.2500  -1.5000   3.5000 Du        
   2420 ****        19.2500  -1.2500   0.0000 Du        
   2421 ****        19.2500  -1.2500   0.2500 Du        
   2422 ****        19.2500  -1.2500   0.5000 Du        
   2423 ****        19.2500  -1.2500   0.7500 Du        
   2424 ****        19.2500  -1.2500   1.0000 Du        
   2425 ****        19.2500  -1.2500   1.2500 Du        
   2426 ****        19.2500  -1.2500   1.5000 Du        
   2427 ****        19.2500  -1.2500   1.7500 Du        
   2428 ****        19.2500  -1.2500   2.0000 Du        
   2429 ****        19.2500  -1.2500   2.2500 Du        
   2430 ****        19.2500  -1.2500   2.5000 Du        
   2431 ****        19.2500  -1.2500   2.7500 Du        
   2432 ****        19.2500  -1.2500   3.0000 Du        
   2433 ****        19.2500  -1.2500   3.2500 Du        
   2434 ****        19.2500  -1.0000  -0.2500 Du        
   2435 ****        19.2500  -1.0000   0.0000 Du        
   2436 ****        19.2500  -1.0000   0.2500 Du        
   2437 ****        19.2500  -1.0000   0.5000 Du        
   2438 ****        19.2500  -1.0000   0.7500 Du        
   2439 ****        19.2500  -1.0000   1.0000 Du        
   2440 ****        19.2500  -1.0000   1.2500 Du        
   2441 ****        19.2500  -1.0000   1.5000 Du        
   2442 ****        19.2500  -1.0000   1.7500 Du        
   2443 ****        19.2500  -1.0000   2.0000 Du        
   2444 ****        19.2500  -1.0000   2.2500 Du        
   2445 ****        19.2500  -1.0000   2.5000 Du        
   2446 ****        19.2500  -1.0000   2.7500 Du        
   2447 ****        19.2500  -1.0000   3.0000 Du        
   2448 ****        19.2500  -0.7500  -0.2500 Du        
   2449 ****        19.2500  -0.7500   0.0000 Du        
   2450 ****        19.2500  -0.7500   0.2500 Du        
   2451 ****        19.2500  -0.7500   0.5000 Du        
   2452 ****        19.2500  -0.7500   0.7500 Du        
   2453 ****        19.2500  -0.7500   1.0000 Du        
   2454 ****        19.2500  -0.7500   1.2500 Du        
   2455 ****        19.2500  -0.7500   1.5000 Du        
   2456 ****        19.2500  -0.7500   1.7500 Du        
   2457 ****        19.2500  -0.7500   2.0000 Du        
   2458 ****        19.2500  -0.7500   2.2500 Du        
   2459 ****        19.2500  -0.5000   0.2500 Du        
   2460 ****        19.2500  -0.5000   0.5000 Du        
   2461 ****        19.2500  -0.5000   0.7500 Du        
   2462 ****        19.2500  -0.5000   1.0000 Du        
   2463 ****        19.2500  -0.5000   1.2500 Du        
   2464 ****        19.2500  -0.5000   1.5000 Du        
   2465 ****        19.2500  -0.5000   1.7500 Du        
   2466 ****        19.2500  -0.2500   1.0000 Du        
   2467 ****        19.2500  -0.2500   1.2500 Du        
   2468 ****        19.2500   1.0000  -4.0000 Du        
   2469 ****        19.2500   1.0000  -3.7500 Du        
   2470 ****        19.2500   4.5000  -9.0000 Du        
   2471 ****        19.2500   4.5000  -8.7500 Du        
   2472 ****        19.2500   4.5000  -8.5000 Du        
   2473 ****        19.2500   4.7500  -9.5000 Du        
   2474 ****        19.2500   4.7500  -9.2500 Du        
   2475 ****        19.2500   4.7500  -9.0000 Du        
   2476 ****        19.2500   4.7500  -8.7500 Du        
   2477 ****        19.2500   4.7500  -8.5000 Du        
   2478 ****        19.2500   4.7500  -8.2500 Du        
   2479 ****        19.2500   5.0000  -9.5000 Du        
   2480 ****        19.2500   5.0000  -9.2500 Du        
   2481 ****        19.2500   5.0000  -9.0000 Du        
   2482 ****        19.2500   5.0000  -8.7500 Du        
   2483 ****        19.2500   5.0000  -8.5000 Du        
   2484 ****        19.2500   5.0000  -8.2500 Du        
   2485 ****        19.2500   5.0000  -8.0000 Du        
   2486 ****        19.2500   5.2500  -9.5000 Du        
   2487 ****        19.2500   5.2500  -9.2500 Du        
   2488 ****        19.2500   5.2500  -9.0000 Du        
   2489 ****        19.2500   5.2500  -8.7500 Du        
   2490 ****        19.2500   5.2500  -8.5000 Du        
   2491 ****        19.2500   5.2500  -8.2500 Du        
   2492 ****        19.2500   5.2500  -8.0000 Du        
   2493 ****        19.2500  10.7500 -14.5000 Du        
   2494 ****        19.2500  11.0000 -14.5000 Du        
   2495 ****        19.5000  -2.2500   2.7500 Du        
   2496 ****        19.5000  -2.0000   2.2500 Du        
   2497 ****        19.5000  -2.0000   2.7500 Du        
   2498 ****        19.5000  -2.0000   3.0000 Du        
   2499 ****        19.5000  -2.0000   3.2500 Du        
   2500 ****        19.5000  -2.0000   3.5000 Du        
   2501 ****        19.5000  -1.7500   2.0000 Du        
   2502 ****        19.5000  -1.7500   2.2500 Du        
   2503 ****        19.5000  -1.7500   2.5000 Du        
   2504 ****        19.5000  -1.7500   2.7500 Du        
   2505 ****        19.5000  -1.7500   3.0000 Du        
   2506 ****        19.5000  -1.7500   3.2500 Du        
   2507 ****        19.5000  -1.7500   3.5000 Du        
   2508 ****        19.5000  -1.5000   0.7500 Du        
   2509 ****        19.5000  -1.5000   1.0000 Du        
   2510 ****        19.5000  -1.5000   1.2500 Du        
   2511 ****        19.5000  -1.5000   1.5000 Du        
   2512 ****        19.5000  -1.5000   1.7500 Du        
   2513 ****        19.5000  -1.5000   2.0000 Du        
   2514 ****        19.5000  -1.5000   2.2500 Du        
   2515 ****        19.5000  -1.5000   2.5000 Du        
   2516 ****        19.5000  -1.5000   2.7500 Du        
   2517 ****        19.5000  -1.5000   3.0000 Du        
   2518 ****        19.5000  -1.5000   3.2500 Du        
   2519 ****        19.5000  -1.5000   3.5000 Du        
   2520 ****        19.5000  -1.5000   3.7500 Du        
   2521 ****        19.5000  -1.5000   4.0000 Du        
   2522 ****        19.5000  -1.2500   0.5000 Du        
   2523 ****        19.5000  -1.2500   0.7500 Du        
   2524 ****        19.5000  -1.2500   1.0000 Du        
   2525 ****        19.5000  -1.2500   1.2500 Du        
   2526 ****        19.5000  -1.2500   1.5000 Du        
   2527 ****        19.5000  -1.2500   1.7500 Du        
   2528 ****        19.5000  -1.2500   2.0000 Du        
   2529 ****        19.5000  -1.2500   2.2500 Du        
   2530 ****        19.5000  -1.2500   2.5000 Du        
   2531 ****        19.5000  -1.2500   2.7500 Du        
   2532 ****        19.5000  -1.2500   3.0000 Du        
   2533 ****        19.5000  -1.2500   3.2500 Du        
   2534 ****        19.5000  -1.2500   3.5000 Du        
   2535 ****        19.5000  -1.2500   3.7500 Du        
   2536 ****        19.5000  -1.2500   4.0000 Du        
   2537 ****        19.5000  -1.0000   0.2500 Du        
   2538 ****        19.5000  -1.0000   0.5000 Du        
   2539 ****        19.5000  -1.0000   0.7500 Du        
   2540 ****        19.5000  -1.0000   1.0000 Du        
   2541 ****        19.5000  -1.0000   1.2500 Du        
   2542 ****        19.5000  -1.0000   1.5000 Du        
   2543 ****        19.5000  -1.0000   1.7500 Du        
   2544 ****        19.5000  -1.0000   2.0000 Du        
   2545 ****        19.5000  -1.0000   2.2500 Du        
   2546 ****        19.5000  -1.0000   2.5000 Du        
   2547 ****        19.5000  -1.0000   2.7500 Du        
   2548 ****        19.5000  -1.0000   3.0000 Du        
   2549 ****        19.5000  -1.0000   3.2500 Du        
   2550 ****        19.5000  -1.0000   3.5000 Du        
   2551 ****        19.5000  -1.0000   3.7500 Du        
   2552 ****        19.5000  -0.7500   0.5000 Du        
   2553 ****        19.5000  -0.7500   0.7500 Du        
   2554 ****        19.5000  -0.7500   1.0000 Du        
   2555 ****        19.5000  -0.7500   1.2500 Du        
   2556 ****        19.5000  -0.7500   1.5000 Du        
   2557 ****        19.5000  -0.7500   1.7500 Du        
   2558 ****        19.5000  -0.7500   2.0000 Du        
   2559 ****        19.5000  -0.7500   2.2500 Du        
   2560 ****        19.5000  -0.7500   2.5000 Du        
   2561 ****        19.5000  -0.5000   0.5000 Du        
   2562 ****        19.5000  -0.5000   0.7500 Du        
   2563 ****        19.5000  -0.5000   1.0000 Du        
   2564 ****        19.5000  -0.5000   1.2500 Du        
   2565 ****        19.5000  -0.5000   1.5000 Du        
   2566 ****        19.5000  -0.5000   1.7500 Du        
   2567 ****        19.5000   0.7500  -4.0000 Du        
   2568 ****        19.5000   1.0000  -4.0000 Du        
   2569 ****        19.5000   4.5000  -9.2500 Du        
   2570 ****        19.5000   4.5000  -9.0000 Du        
   2571 ****        19.5000   4.5000  -8.7500 Du        
   2572 ****        19.5000   4.5000  -8.5000 Du        
   2573 ****        19.5000   4.7500  -9.7500 Du        
   2574 ****        19.5000   4.7500  -9.5000 Du        
   2575 ****        19.5000   4.7500  -9.2500 Du        
   2576 ****        19.5000   4.7500  -9.0000 Du        
   2577 ****        19.5000   4.7500  -8.7500 Du        
   2578 ****        19.5000   4.7500  -8.5000 Du        
   2579 ****        19.5000   5.0000 -10.0000 Du        
   2580 ****        19.5000   5.0000  -9.7500 Du        
   2581 ****        19.5000   5.0000  -9.5000 Du        
   2582 ****        19.5000   5.0000  -9.2500 Du        
   2583 ****        19.5000   5.0000  -9.0000 Du        
   2584 ****        19.5000   5.0000  -8.7500 Du        
   2585 ****        19.5000   5.0000  -8.5000 Du        
   2586 ****        19.5000   5.0000  -8.2500 Du        
   2587 ****        19.5000   5.2500 -10.2500 Du        
   2588 ****        19.5000   5.2500 -10.0000 Du        
   2589 ****        19.5000   5.2500  -9.7500 Du        
   2590 ****        19.5000   5.2500  -9.5000 Du        
   2591 ****        19.5000   5.2500  -9.2500 Du        
   2592 ****        19.5000   5.2500  -9.0000 Du        
   2593 ****        19.5000   5.2500  -8.7500 Du        
   2594 ****        19.5000   5.2500  -8.5000 Du        
   2595 ****        19.5000   5.2500  -8.2500 Du        
   2596 ****        19.5000   5.5000 -10.5000 Du        
   2597 ****        19.5000   5.5000 -10.2500 Du        
   2598 ****        19.5000   5.5000 -10.0000 Du        
   2599 ****        19.5000   5.5000  -9.7500 Du        
   2600 ****        19.5000   5.5000  -9.5000 Du        
   2601 ****        19.5000   5.5000  -9.2500 Du        
   2602 ****        19.5000   5.5000  -9.0000 Du        
   2603 ****        19.5000   5.5000  -8.7500 Du        
   2604 ****        19.5000   5.5000  -8.5000 Du        
   2605 ****        19.5000   5.5000  -8.2500 Du        
   2606 ****        19.5000   5.7500 -10.7500 Du        
   2607 ****        19.5000   5.7500 -10.5000 Du        
   2608 ****        19.5000   5.7500 -10.2500 Du        
   2609 ****        19.5000   5.7500 -10.0000 Du        
   2610 ****        19.5000   6.0000 -10.7500 Du        
   2611 ****        19.5000   6.0000 -10.5000 Du        
   2612 ****        19.5000   8.7500 -13.5000 Du        
   2613 ****        19.5000  10.0000 -14.2500 Du        
   2614 ****        19.5000  10.5000 -14.7500 Du        
   2615 ****        19.5000  10.5000 -14.5000 Du        
   2616 ****        19.5000  10.5000 -14.2500 Du        
   2617 ****        19.5000  10.7500 -14.7500 Du        
   2618 ****        19.5000  10.7500 -14.5000 Du        
   2619 ****        19.5000  10.7500 -14.2500 Du        
   2620 ****        19.5000  11.0000 -14.7500 Du        
   2621 ****        19.5000  11.0000 -14.5000 Du        
   2622 ****        19.5000  11.0000 -14.2500 Du        
   2623 ****        19.5000  11.2500 -14.5000 Du        
   2624 ****        19.5000  11.2500 -14.2500 Du        
   2625 ****        19.7500  -2.0000   2.5000 Du        
   2626 ****        19.7500  -2.0000   2.7500 Du        
   2627 ****        19.7500  -2.0000   3.0000 Du        
   2628 ****        19.7500  -2.0000   3.2500 Du        
   2629 ****        19.7500  -2.0000   3.5000 Du        
   2630 ****        19.7500  -1.7500   2.2500 Du        
   2631 ****        19.7500  -1.7500   2.5000 Du        
   2632 ****        19.7500  -1.7500   2.7500 Du        
   2633 ****        19.7500  -1.7500   3.0000 Du        
   2634 ****        19.7500  -1.7500   3.2500 Du        
   2635 ****        19.7500  -1.7500   3.5000 Du        
   2636 ****        19.7500  -1.5000   0.7500 Du        
   2637 ****        19.7500  -1.5000   1.0000 Du        
   2638 ****        19.7500  -1.5000   1.2500 Du        
   2639 ****        19.7500  -1.5000   1.5000 Du        
   2640 ****        19.7500  -1.5000   1.7500 Du        
   2641 ****        19.7500  -1.5000   2.0000 Du        
   2642 ****        19.7500  -1.5000   2.2500 Du        
   2643 ****        19.7500  -1.5000   2.5000 Du        
   2644 ****        19.7500  -1.5000   2.7500 Du        
   2645 ****        19.7500  -1.5000   3.0000 Du        
   2646 ****        19.7500  -1.5000   3.2500 Du        
   2647 ****        19.7500  -1.5000   3.5000 Du        
   2648 ****        19.7500  -1.5000   3.7500 Du        
   2649 ****        19.7500  -1.5000   4.0000 Du        
   2650 ****        19.7500  -1.2500   0.5000 Du        
   2651 ****        19.7500  -1.2500   0.7500 Du        
   2652 ****        19.7500  -1.2500   1.0000 Du        
   2653 ****        19.7500  -1.2500   1.2500 Du        
   2654 ****        19.7500  -1.2500   1.5000 Du        
   2655 ****        19.7500  -1.2500   1.7500 Du        
   2656 ****        19.7500  -1.2500   2.0000 Du        
   2657 ****        19.7500  -1.2500   2.2500 Du        
   2658 ****        19.7500  -1.2500   2.5000 Du        
   2659 ****        19.7500  -1.2500   2.7500 Du        
   2660 ****        19.7500  -1.2500   3.0000 Du        
   2661 ****        19.7500  -1.2500   3.2500 Du        
   2662 ****        19.7500  -1.2500   3.5000 Du        
   2663 ****        19.7500  -1.2500   3.7500 Du        
   2664 ****        19.7500  -1.2500   4.0000 Du        
   2665 ****        19.7500  -1.0000   0.5000 Du        
   2666 ****        19.7500  -1.0000   0.7500 Du        
   2667 ****        19.7500  -1.0000   1.0000 Du        
   2668 ****        19.7500  -1.0000   1.2500 Du        
   2669 ****        19.7500  -1.0000   1.5000 Du        
   2670 ****        19.7500  -1.0000   1.7500 Du        
   2671 ****        19.7500  -1.0000   2.0000 Du        
   2672 ****        19.7500  -1.0000   2.2500 Du        
   2673 ****        19.7500  -1.0000   2.5000 Du        
   2674 ****        19.7500  -1.0000   2.7500 Du        
   2675 ****        19.7500  -1.0000   3.0000 Du        
   2676 ****        19.7500  -1.0000   3.2500 Du        
   2677 ****        19.7500  -1.0000   3.5000 Du        
   2678 ****        19.7500  -1.0000   3.7500 Du        
   2679 ****        19.7500  -1.0000   4.0000 Du        
   2680 ****        19.7500  -0.7500   0.5000 Du        
   2681 ****        19.7500  -0.7500   0.7500 Du        
   2682 ****        19.7500  -0.7500   1.0000 Du        
   2683 ****        19.7500  -0.7500   1.2500 Du        
   2684 ****        19.7500  -0.7500   1.5000 Du        
   2685 ****        19.7500  -0.7500   1.7500 Du        
   2686 ****        19.7500  -0.7500   2.0000 Du        
   2687 ****        19.7500  -0.7500   2.2500 Du        
   2688 ****        19.7500  -0.7500   2.5000 Du        
   2689 ****        19.7500  -0.7500   2.7500 Du        
   2690 ****        19.7500  -0.7500   3.0000 Du        
   2691 ****        19.7500  -0.7500   3.2500 Du        
   2692 ****        19.7500  -0.5000   0.7500 Du        
   2693 ****        19.7500  -0.5000   1.0000 Du        
   2694 ****        19.7500  -0.5000   1.2500 Du        
   2695 ****        19.7500  -0.5000   1.5000 Du        
   2696 ****        19.7500  -0.5000   1.7500 Du        
   2697 ****        19.7500  -0.5000   2.0000 Du        
   2698 ****        19.7500  -0.5000   2.2500 Du        
   2699 ****        19.7500  -0.2500   1.5000 Du        
   2700 ****        19.7500   0.7500  -4.2500 Du        
   2701 ****        19.7500   0.7500  -4.0000 Du        
   2702 ****        19.7500   0.7500  -3.7500 Du        
   2703 ****        19.7500   4.5000  -9.5000 Du        
   2704 ****        19.7500   4.5000  -9.2500 Du        
   2705 ****        19.7500   4.5000  -9.0000 Du        
   2706 ****        19.7500   4.5000  -8.7500 Du        
   2707 ****        19.7500   4.7500 -10.0000 Du        
   2708 ****        19.7500   4.7500  -9.7500 Du        
   2709 ****        19.7500   4.7500  -9.5000 Du        
   2710 ****        19.7500   4.7500  -9.2500 Du        
   2711 ****        19.7500   4.7500  -9.0000 Du        
   2712 ****        19.7500   4.7500  -8.7500 Du        
   2713 ****        19.7500   4.7500  -8.5000 Du        
   2714 ****        19.7500   5.0000 -10.2500 Du        
   2715 ****        19.7500   5.0000 -10.0000 Du        
   2716 ****        19.7500   5.0000  -9.7500 Du        
   2717 ****        19.7500   5.0000  -9.5000 Du        
   2718 ****        19.7500   5.0000  -9.2500 Du        
   2719 ****        19.7500   5.0000  -9.0000 Du        
   2720 ****        19.7500   5.0000  -8.7500 Du        
   2721 ****        19.7500   5.0000  -8.5000 Du        
   2722 ****        19.7500   5.2500 -10.5000 Du        
   2723 ****        19.7500   5.2500 -10.2500 Du        
   2724 ****        19.7500   5.2500 -10.0000 Du        
   2725 ****        19.7500   5.2500  -9.7500 Du        
   2726 ****        19.7500   5.2500  -9.5000 Du        
   2727 ****        19.7500   5.2500  -9.2500 Du        
   2728 ****        19.7500   5.2500  -9.0000 Du        
   2729 ****        19.7500   5.2500  -8.7500 Du        
   2730 ****        19.7500   5.2500  -8.5000 Du        
   2731 ****        19.7500   5.2500  -8.2500 Du        
   2732 ****        19.7500   5.5000 -10.7500 Du        
   2733 ****        19.7500   5.5000 -10.5000 Du        
   2734 ****        19.7500   5.5000 -10.2500 Du        
   2735 ****        19.7500   5.5000 -10.0000 Du        
   2736 ****        19.7500   5.5000  -9.7500 Du        
   2737 ****        19.7500   5.5000  -9.5000 Du        
   2738 ****        19.7500   5.5000  -9.2500 Du        
   2739 ****        19.7500   5.5000  -9.0000 Du        
   2740 ****        19.7500   5.5000  -8.7500 Du        
   2741 ****        19.7500   5.5000  -8.5000 Du        
   2742 ****        19.7500   5.5000  -8.2500 Du        
   2743 ****        19.7500   5.7500 -10.7500 Du        
   2744 ****        19.7500   5.7500 -10.5000 Du        
   2745 ****        19.7500   5.7500 -10.2500 Du        
   2746 ****        19.7500   5.7500 -10.0000 Du        
   2747 ****        19.7500   5.7500  -9.7500 Du        
   2748 ****        19.7500   5.7500  -9.5000 Du        
   2749 ****        19.7500   5.7500  -9.2500 Du        
   2750 ****        19.7500   5.7500  -9.0000 Du        
   2751 ****        19.7500   5.7500  -8.7500 Du        
   2752 ****        19.7500   5.7500  -8.5000 Du        
   2753 ****        19.7500   6.0000 -10.7500 Du        
   2754 ****        19.7500   6.0000 -10.5000 Du        
   2755 ****        19.7500   6.0000 -10.2500 Du        
   2756 ****        19.7500   6.0000 -10.0000 Du        
   2757 ****        19.7500   6.0000  -9.7500 Du        
   2758 ****        19.7500   6.0000  -9.5000 Du        
   2759 ****        19.7500   6.2500 -10.5000 Du        
   2760 ****        19.7500   6.2500 -10.2500 Du        
   2761 ****        19.7500   8.7500 -13.5000 Du        
   2762 ****        19.7500   8.7500 -13.2500 Du        
   2763 ****        19.7500   9.0000 -14.0000 Du        
   2764 ****        19.7500   9.0000 -13.7500 Du        
   2765 ****        19.7500   9.0000 -13.5000 Du        
   2766 ****        19.7500   9.0000 -13.2500 Du        
   2767 ****        19.7500   9.2500 -14.0000 Du        
   2768 ****        19.7500   9.2500 -13.7500 Du        
   2769 ****        19.7500   9.2500 -13.5000 Du        
   2770 ****        19.7500   9.2500 -13.2500 Du        
   2771 ****        19.7500   9.5000 -14.0000 Du        
   2772 ****        19.7500   9.5000 -13.7500 Du        
   2773 ****        19.7500   9.5000 -13.5000 Du        
   2774 ****        19.7500   9.7500 -14.2500 Du        
   2775 ****        19.7500   9.7500 -14.0000 Du        
   2776 ****        19.7500   9.7500 -13.7500 Du        
   2777 ****        19.7500  10.0000 -14.5000 Du        
   2778 ****        19.7500  10.0000 -14.2500 Du        
   2779 ****        19.7500  10.0000 -14.0000 Du        
   2780 ****        19.7500  10.0000 -13.7500 Du        
   2781 ****        19.7500  10.2500 -14.5000 Du        
   2782 ****        19.7500  10.2500 -14.2500 Du        
   2783 ****        19.7500  10.2500 -14.0000 Du        
   2784 ****        19.7500  10.2500 -13.7500 Du        
   2785 ****        19.7500  10.5000 -14.7500 Du        
   2786 ****        19.7500  10.5000 -14.5000 Du        
   2787 ****        19.7500  10.5000 -14.2500 Du        
   2788 ****        19.7500  10.5000 -14.0000 Du        
   2789 ****        19.7500  10.5000 -13.7500 Du        
   2790 ****        19.7500  10.7500 -14.7500 Du        
   2791 ****        19.7500  10.7500 -14.5000 Du        
   2792 ****        19.7500  10.7500 -14.2500 Du        
   2793 ****        19.7500  10.7500 -14.0000 Du        
   2794 ****        19.7500  11.0000 -14.7500 Du        
   2795 ****        19.7500  11.0000 -14.5000 Du        
   2796 ****        19.7500  11.0000 -14.2500 Du        
   2797 ****        19.7500  11.0000 -14.0000 Du        
   2798 ****        19.7500  11.2500 -14.2500 Du        
   2799 ****        20.0000  -2.0000   2.5000 Du        
   2800 ****        20.0000  -2.0000   2.7500 Du        
   2801 ****        20.0000  -2.0000   3.0000 Du        
   2802 ****        20.0000  -2.0000   3.2500 Du        
   2803 ****        20.0000  -2.0000   3.5000 Du        
   2804 ****        20.0000  -1.7500   2.5000 Du        
   2805 ****        20.0000  -1.7500   2.7500 Du        
   2806 ****        20.0000  -1.7500   3.0000 Du        
   2807 ****        20.0000  -1.7500   3.2500 Du        
   2808 ****        20.0000  -1.7500   3.5000 Du        
   2809 ****        20.0000  -1.5000   1.2500 Du        
   2810 ****        20.0000  -1.5000   1.5000 Du        
   2811 ****        20.0000  -1.5000   1.7500 Du        
   2812 ****        20.0000  -1.5000   2.0000 Du        
   2813 ****        20.0000  -1.5000   2.2500 Du        
   2814 ****        20.0000  -1.5000   2.5000 Du        
   2815 ****        20.0000  -1.5000   2.7500 Du        
   2816 ****        20.0000  -1.5000   3.0000 Du        
   2817 ****        20.0000  -1.5000   3.2500 Du        
   2818 ****        20.0000  -1.5000   3.5000 Du        
   2819 ****        20.0000  -1.5000   3.7500 Du        
   2820 ****        20.0000  -1.5000   4.0000 Du        
   2821 ****        20.0000  -1.2500   0.7500 Du        
   2822 ****        20.0000  -1.2500   1.0000 Du        
   2823 ****        20.0000  -1.2500   1.2500 Du        
   2824 ****        20.0000  -1.2500   1.5000 Du        
   2825 ****        20.0000  -1.2500   1.7500 Du        
   2826 ****        20.0000  -1.2500   2.0000 Du        
   2827 ****        20.0000  -1.2500   2.2500 Du        
   2828 ****        20.0000  -1.2500   2.5000 Du        
   2829 ****        20.0000  -1.2500   2.7500 Du        
   2830 ****        20.0000  -1.2500   3.0000 Du        
   2831 ****        20.0000  -1.2500   3.2500 Du        
   2832 ****        20.0000  -1.2500   3.5000 Du        
   2833 ****        20.0000  -1.2500   3.7500 Du        
   2834 ****        20.0000  -1.2500   4.0000 Du        
   2835 ****        20.0000  -1.0000   0.7500 Du        
   2836 ****        20.0000  -1.0000   1.0000 Du        
   2837 ****        20.0000  -1.0000   1.2500 Du        
   2838 ****        20.0000  -1.0000   1.5000 Du        
   2839 ****        20.0000  -1.0000   1.7500 Du        
   2840 ****        20.0000  -1.0000   2.0000 Du        
   2841 ****        20.0000  -1.0000   2.2500 Du        
   2842 ****        20.0000  -1.0000   2.5000 Du        
   2843 ****        20.0000  -1.0000   2.7500 Du        
   2844 ****        20.0000  -1.0000   3.0000 Du        
   2845 ****        20.0000  -1.0000   3.2500 Du        
   2846 ****        20.0000  -1.0000   3.5000 Du        
   2847 ****        20.0000  -1.0000   3.7500 Du        
   2848 ****        20.0000  -1.0000   4.0000 Du        
   2849 ****        20.0000  -0.7500   0.7500 Du        
   2850 ****        20.0000  -0.7500   1.0000 Du        
   2851 ****        20.0000  -0.7500   1.2500 Du        
   2852 ****        20.0000  -0.7500   1.5000 Du        
   2853 ****        20.0000  -0.7500   1.7500 Du        
   2854 ****        20.0000  -0.7500   2.0000 Du        
   2855 ****        20.0000  -0.7500   2.2500 Du        
   2856 ****        20.0000  -0.7500   2.5000 Du        
   2857 ****        20.0000  -0.7500   2.7500 Du        
   2858 ****        20.0000  -0.7500   3.0000 Du        
   2859 ****        20.0000  -0.7500   3.2500 Du        
   2860 ****        20.0000  -0.7500   3.5000 Du        
   2861 ****        20.0000  -0.5000   1.2500 Du        
   2862 ****        20.0000  -0.5000   1.5000 Du        
   2863 ****        20.0000  -0.5000   1.7500 Du        
   2864 ****        20.0000  -0.5000   2.0000 Du        
   2865 ****        20.0000  -0.5000   2.2500 Du        
   2866 ****        20.0000  -0.5000   2.5000 Du        
   2867 ****        20.0000  -0.5000   2.7500 Du        
   2868 ****        20.0000  -0.2500   1.5000 Du        
   2869 ****        20.0000  -0.2500   1.7500 Du        
   2870 ****        20.0000   4.5000 -10.0000 Du        
   2871 ****        20.0000   4.5000  -9.7500 Du        
   2872 ****        20.0000   4.5000  -9.5000 Du        
   2873 ****        20.0000   4.5000  -9.2500 Du        
   2874 ****        20.0000   4.5000  -9.0000 Du        
   2875 ****        20.0000   4.5000  -8.7500 Du        
   2876 ****        20.0000   4.7500 -10.0000 Du        
   2877 ****        20.0000   4.7500  -9.7500 Du        
   2878 ****        20.0000   4.7500  -9.5000 Du        
   2879 ****        20.0000   4.7500  -9.2500 Du        
   2880 ****        20.0000   4.7500  -9.0000 Du        
   2881 ****        20.0000   4.7500  -8.7500 Du        
   2882 ****        20.0000   5.0000 -10.2500 Du        
   2883 ****        20.0000   5.0000 -10.0000 Du        
   2884 ****        20.0000   5.0000  -9.7500 Du        
   2885 ****        20.0000   5.0000  -9.5000 Du        
   2886 ****        20.0000   5.0000  -9.2500 Du        
   2887 ****        20.0000   5.0000  -9.0000 Du        
   2888 ****        20.0000   5.0000  -8.7500 Du        
   2889 ****        20.0000   5.0000  -8.5000 Du        
   2890 ****        20.0000   5.2500 -10.5000 Du        
   2891 ****        20.0000   5.2500 -10.2500 Du        
   2892 ****        20.0000   5.2500 -10.0000 Du        
   2893 ****        20.0000   5.2500  -9.7500 Du        
   2894 ****        20.0000   5.2500  -9.5000 Du        
   2895 ****        20.0000   5.2500  -9.2500 Du        
   2896 ****        20.0000   5.2500  -9.0000 Du        
   2897 ****        20.0000   5.2500  -8.7500 Du        
   2898 ****        20.0000   5.2500  -8.5000 Du        
   2899 ****        20.0000   5.5000 -10.5000 Du        
   2900 ****        20.0000   5.5000 -10.2500 Du        
   2901 ****        20.0000   5.5000 -10.0000 Du        
   2902 ****        20.0000   5.5000  -9.7500 Du        
   2903 ****        20.0000   5.5000  -9.5000 Du        
   2904 ****        20.0000   5.5000  -9.2500 Du        
   2905 ****        20.0000   5.5000  -9.0000 Du        
   2906 ****        20.0000   5.5000  -8.7500 Du        
   2907 ****        20.0000   5.5000  -8.5000 Du        
   2908 ****        20.0000   5.7500 -10.5000 Du        
   2909 ****        20.0000   5.7500 -10.2500 Du        
   2910 ****        20.0000   5.7500 -10.0000 Du        
   2911 ****        20.0000   5.7500  -9.7500 Du        
   2912 ****        20.0000   5.7500  -9.5000 Du        
   2913 ****        20.0000   5.7500  -9.2500 Du        
   2914 ****        20.0000   5.7500  -9.0000 Du        
   2915 ****        20.0000   5.7500  -8.7500 Du        
   2916 ****        20.0000   5.7500  -8.5000 Du        
   2917 ****        20.0000   6.0000 -10.5000 Du        
   2918 ****        20.0000   6.0000 -10.2500 Du        
   2919 ****        20.0000   6.0000 -10.0000 Du        
   2920 ****        20.0000   6.0000  -9.7500 Du        
   2921 ****        20.0000   6.0000  -9.5000 Du        
   2922 ****        20.0000   6.0000  -9.2500 Du        
   2923 ****        20.0000   6.0000  -9.0000 Du        
   2924 ****        20.0000   6.0000  -8.7500 Du        
   2925 ****        20.0000   6.0000  -8.5000 Du        
   2926 ****        20.0000   6.2500 -10.5000 Du        
   2927 ****        20.0000   6.2500 -10.2500 Du        
   2928 ****        20.0000   6.2500 -10.0000 Du        
   2929 ****        20.0000   6.2500  -9.7500 Du        
   2930 ****        20.0000   6.2500  -9.5000 Du        
   2931 ****        20.0000   6.5000 -10.2500 Du        
   2932 ****        20.0000   6.5000 -10.0000 Du        
   2933 ****        20.0000   9.0000 -13.7500 Du        
   2934 ****        20.0000   9.0000 -13.5000 Du        
   2935 ****        20.0000   9.0000 -13.2500 Du        
   2936 ****        20.0000   9.2500 -14.0000 Du        
   2937 ****        20.0000   9.2500 -13.7500 Du        
   2938 ****        20.0000   9.2500 -13.5000 Du        
   2939 ****        20.0000   9.2500 -13.2500 Du        
   2940 ****        20.0000   9.5000 -14.0000 Du        
   2941 ****        20.0000   9.5000 -13.7500 Du        
   2942 ****        20.0000   9.5000 -13.5000 Du        
   2943 ****        20.0000   9.5000 -13.2500 Du        
   2944 ****        20.0000   9.7500 -14.5000 Du        
   2945 ****        20.0000   9.7500 -14.2500 Du        
   2946 ****        20.0000   9.7500 -14.0000 Du        
   2947 ****        20.0000   9.7500 -13.7500 Du        
   2948 ****        20.0000   9.7500 -13.5000 Du        
   2949 ****        20.0000   9.7500 -13.2500 Du        
   2950 ****        20.0000  10.0000 -14.5000 Du        
   2951 ****        20.0000  10.0000 -14.2500 Du        
   2952 ****        20.0000  10.0000 -14.0000 Du        
   2953 ****        20.0000  10.0000 -13.7500 Du        
   2954 ****        20.0000  10.0000 -13.5000 Du        
   2955 ****        20.0000  10.2500 -14.5000 Du        
   2956 ****        20.0000  10.2500 -14.2500 Du        
   2957 ****        20.0000  10.2500 -14.0000 Du        
   2958 ****        20.0000  10.2500 -13.7500 Du        
   2959 ****        20.0000  10.5000 -14.7500 Du        
   2960 ****        20.0000  10.5000 -14.5000 Du        
   2961 ****        20.0000  10.5000 -14.2500 Du        
   2962 ****        20.0000  10.5000 -14.0000 Du        
   2963 ****        20.0000  10.5000 -13.7500 Du        
   2964 ****        20.0000  10.7500 -15.0000 Du        
   2965 ****        20.0000  10.7500 -14.7500 Du        
   2966 ****        20.0000  10.7500 -14.5000 Du        
   2967 ****        20.0000  10.7500 -14.2500 Du        
   2968 ****        20.0000  10.7500 -14.0000 Du        
   2969 ****        20.0000  10.7500 -13.7500 Du        
   2970 ****        20.0000  11.0000 -14.7500 Du        
   2971 ****        20.0000  11.0000 -14.5000 Du        
   2972 ****        20.0000  11.0000 -14.2500 Du        
   2973 ****        20.0000  11.0000 -14.0000 Du        
   2974 ****        20.2500  -2.0000   3.0000 Du        
   2975 ****        20.2500  -1.7500   2.5000 Du        
   2976 ****        20.2500  -1.7500   2.7500 Du        
   2977 ****        20.2500  -1.7500   3.0000 Du        
   2978 ****        20.2500  -1.5000   1.5000 Du        
   2979 ****        20.2500  -1.5000   1.7500 Du        
   2980 ****        20.2500  -1.5000   2.0000 Du        
   2981 ****        20.2500  -1.5000   2.2500 Du        
   2982 ****        20.2500  -1.5000   2.5000 Du        
   2983 ****        20.2500  -1.5000   2.7500 Du        
   2984 ****        20.2500  -1.5000   3.0000 Du        
   2985 ****        20.2500  -1.5000   3.2500 Du        
   2986 ****        20.2500  -1.5000   3.5000 Du        
   2987 ****        20.2500  -1.2500   1.0000 Du        
   2988 ****        20.2500  -1.2500   1.2500 Du        
   2989 ****        20.2500  -1.2500   1.5000 Du        
   2990 ****        20.2500  -1.2500   1.7500 Du        
   2991 ****        20.2500  -1.2500   2.0000 Du        
   2992 ****        20.2500  -1.2500   2.2500 Du        
   2993 ****        20.2500  -1.2500   2.5000 Du        
   2994 ****        20.2500  -1.2500   2.7500 Du        
   2995 ****        20.2500  -1.2500   3.0000 Du        
   2996 ****        20.2500  -1.2500   3.2500 Du        
   2997 ****        20.2500  -1.2500   3.5000 Du        
   2998 ****        20.2500  -1.0000   1.0000 Du        
   2999 ****        20.2500  -1.0000   1.2500 Du        
   3000 ****        20.2500  -1.0000   1.5000 Du        
   3001 ****        20.2500  -1.0000   1.7500 Du        
   3002 ****        20.2500  -1.0000   2.0000 Du        
   3003 ****        20.2500  -1.0000   2.2500 Du        
   3004 ****        20.2500  -1.0000   2.5000 Du        
   3005 ****        20.2500  -1.0000   2.7500 Du        
   3006 ****        20.2500  -1.0000   3.0000 Du        
   3007 ****        20.2500  -1.0000   3.2500 Du        
   3008 ****        20.2500  -1.0000   3.5000 Du        
   3009 ****        20.2500  -1.0000   3.7500 Du        
   3010 ****        20.2500  -1.0000   4.0000 Du        
   3011 ****        20.2500  -0.7500   1.2500 Du        
   3012 ****        20.2500  -0.7500   1.5000 Du        
   3013 ****        20.2500  -0.7500   1.7500 Du        
   3014 ****        20.2500  -0.7500   2.0000 Du        
   3015 ****        20.2500  -0.7500   2.2500 Du        
   3016 ****        20.2500  -0.7500   2.5000 Du        
   3017 ****        20.2500  -0.7500   2.7500 Du        
   3018 ****        20.2500  -0.7500   3.0000 Du        
   3019 ****        20.2500  -0.7500   3.2500 Du        
   3020 ****        20.2500  -0.7500   3.5000 Du        
   3021 ****        20.2500  -0.5000   1.5000 Du        
   3022 ****        20.2500  -0.5000   1.7500 Du        
   3023 ****        20.2500  -0.5000   2.0000 Du        
   3024 ****        20.2500  -0.5000   2.2500 Du        
   3025 ****        20.2500  -0.5000   2.5000 Du        
   3026 ****        20.2500  -0.5000   2.7500 Du        
   3027 ****        20.2500  -0.5000   3.0000 Du        
   3028 ****        20.2500  -0.2500   1.7500 Du        
   3029 ****        20.2500  -0.2500   2.0000 Du        
   3030 ****        20.2500  -0.2500   2.2500 Du        
   3031 ****        20.2500   4.5000 -10.0000 Du        
   3032 ****        20.2500   4.5000  -9.7500 Du        
   3033 ****        20.2500   4.5000  -9.5000 Du        
   3034 ****        20.2500   4.5000  -9.2500 Du        
   3035 ****        20.2500   4.5000  -9.0000 Du        
   3036 ****        20.2500   4.7500 -10.2500 Du        
   3037 ****        20.2500   4.7500 -10.0000 Du        
   3038 ****        20.2500   4.7500  -9.7500 Du        
   3039 ****        20.2500   4.7500  -9.5000 Du        
   3040 ****        20.2500   4.7500  -9.2500 Du        
   3041 ****        20.2500   4.7500  -9.0000 Du        
   3042 ****        20.2500   4.7500  -8.7500 Du        
   3043 ****        20.2500   5.0000 -10.2500 Du        
   3044 ****        20.2500   5.0000 -10.0000 Du        
   3045 ****        20.2500   5.0000  -9.7500 Du        
   3046 ****        20.2500   5.0000  -9.5000 Du        
   3047 ****        20.2500   5.0000  -9.2500 Du        
   3048 ****        20.2500   5.0000  -9.0000 Du        
   3049 ****        20.2500   5.0000  -8.7500 Du        
   3050 ****        20.2500   5.2500 -10.2500 Du        
   3051 ****        20.2500   5.2500 -10.0000 Du        
   3052 ****        20.2500   5.2500  -9.7500 Du        
   3053 ****        20.2500   5.2500  -9.5000 Du        
   3054 ****        20.2500   5.2500  -9.2500 Du        
   3055 ****        20.2500   5.2500  -9.0000 Du        
   3056 ****        20.2500   5.2500  -8.7500 Du        
   3057 ****        20.2500   5.5000 -10.2500 Du        
   3058 ****        20.2500   5.5000 -10.0000 Du        
   3059 ****        20.2500   5.5000  -9.7500 Du        
   3060 ****        20.2500   5.5000  -9.5000 Du        
   3061 ****        20.2500   5.5000  -9.2500 Du        
   3062 ****        20.2500   5.5000  -9.0000 Du        
   3063 ****        20.2500   5.5000  -8.7500 Du        
   3064 ****        20.2500   5.5000  -8.5000 Du        
   3065 ****        20.2500   5.7500 -10.2500 Du        
   3066 ****        20.2500   5.7500 -10.0000 Du        
   3067 ****        20.2500   5.7500  -9.7500 Du        
   3068 ****        20.2500   5.7500  -9.5000 Du        
   3069 ****        20.2500   5.7500  -9.2500 Du        
   3070 ****        20.2500   5.7500  -9.0000 Du        
   3071 ****        20.2500   5.7500  -8.7500 Du        
   3072 ****        20.2500   5.7500  -8.5000 Du        
   3073 ****        20.2500   6.0000 -10.2500 Du        
   3074 ****        20.2500   6.0000 -10.0000 Du        
   3075 ****        20.2500   6.0000  -9.7500 Du        
   3076 ****        20.2500   6.0000  -9.5000 Du        
   3077 ****        20.2500   6.0000  -9.2500 Du        
   3078 ****        20.2500   6.0000  -9.0000 Du        
   3079 ****        20.2500   6.0000  -8.7500 Du        
   3080 ****        20.2500   6.0000  -8.5000 Du        
   3081 ****        20.2500   6.2500 -10.2500 Du        
   3082 ****        20.2500   6.2500 -10.0000 Du        
   3083 ****        20.2500   6.2500  -9.7500 Du        
   3084 ****        20.2500   6.2500  -9.5000 Du        
   3085 ****        20.2500   6.2500  -9.2500 Du        
   3086 ****        20.2500   6.2500  -9.0000 Du        
   3087 ****        20.2500   6.2500  -8.7500 Du        
   3088 ****        20.2500   6.5000 -10.2500 Du        
   3089 ****        20.2500   6.5000 -10.0000 Du        
   3090 ****        20.2500   6.5000  -9.7500 Du        
   3091 ****        20.2500   6.5000  -9.5000 Du        
   3092 ****        20.2500   6.5000  -9.2500 Du        
   3093 ****        20.2500   6.7500 -10.0000 Du        
   3094 ****        20.2500   9.2500 -14.0000 Du        
   3095 ****        20.2500   9.2500 -13.7500 Du        
   3096 ****        20.2500   9.2500 -13.5000 Du        
   3097 ****        20.2500   9.2500 -13.2500 Du        
   3098 ****        20.2500   9.5000 -14.2500 Du        
   3099 ****        20.2500   9.5000 -14.0000 Du        
   3100 ****        20.2500   9.5000 -13.7500 Du        
   3101 ****        20.2500   9.5000 -13.5000 Du        
   3102 ****        20.2500   9.5000 -13.2500 Du        
   3103 ****        20.2500   9.7500 -14.5000 Du        
   3104 ****        20.2500   9.7500 -14.2500 Du        
   3105 ****        20.2500   9.7500 -14.0000 Du        
   3106 ****        20.2500   9.7500 -13.7500 Du        
   3107 ****        20.2500   9.7500 -13.5000 Du        
   3108 ****        20.2500   9.7500 -13.2500 Du        
   3109 ****        20.2500  10.0000 -14.5000 Du        
   3110 ****        20.2500  10.0000 -14.2500 Du        
   3111 ****        20.2500  10.0000 -14.0000 Du        
   3112 ****        20.2500  10.0000 -13.7500 Du        
   3113 ****        20.2500  10.0000 -13.5000 Du        
   3114 ****        20.2500  10.2500 -14.5000 Du        
   3115 ****        20.2500  10.2500 -14.2500 Du        
   3116 ****        20.2500  10.2500 -14.0000 Du        
   3117 ****        20.2500  10.2500 -13.7500 Du        
   3118 ****        20.2500  10.5000 -14.7500 Du        
   3119 ****        20.2500  10.5000 -14.5000 Du        
   3120 ****        20.2500  10.5000 -14.2500 Du        
   3121 ****        20.2500  10.5000 -14.0000 Du        
   3122 ****        20.2500  10.5000 -13.7500 Du        
   3123 ****        20.2500  10.7500 -14.7500 Du        
   3124 ****        20.2500  10.7500 -14.5000 Du        
   3125 ****        20.2500  10.7500 -14.2500 Du        
   3126 ****        20.2500  10.7500 -14.0000 Du        
   3127 ****        20.2500  11.0000 -14.5000 Du        
   3128 ****        20.2500  11.0000 -14.2500 Du        
   3129 ****        20.2500  11.0000 -14.0000 Du        
   3130 ****        20.5000  -1.7500   2.7500 Du        
   3131 ****        20.5000  -1.7500   3.0000 Du        
   3132 ****        20.5000  -1.5000   2.2500 Du        
   3133 ****        20.5000  -1.5000   2.5000 Du        
   3134 ****        20.5000  -1.5000   2.7500 Du        
   3135 ****        20.5000  -1.5000   3.0000 Du        
   3136 ****        20.5000  -1.5000   3.2500 Du        
   3137 ****        20.5000  -1.5000   3.5000 Du        
   3138 ****        20.5000  -1.2500   1.7500 Du        
   3139 ****        20.5000  -1.2500   2.0000 Du        
   3140 ****        20.5000  -1.2500   2.2500 Du        
   3141 ****        20.5000  -1.2500   2.5000 Du        
   3142 ****        20.5000  -1.2500   2.7500 Du        
   3143 ****        20.5000  -1.2500   3.0000 Du        
   3144 ****        20.5000  -1.2500   3.2500 Du        
   3145 ****        20.5000  -1.2500   3.5000 Du        
   3146 ****        20.5000  -1.0000   1.5000 Du        
   3147 ****        20.5000  -1.0000   1.7500 Du        
   3148 ****        20.5000  -1.0000   2.0000 Du        
   3149 ****        20.5000  -1.0000   2.2500 Du        
   3150 ****        20.5000  -1.0000   2.5000 Du        
   3151 ****        20.5000  -1.0000   2.7500 Du        
   3152 ****        20.5000  -1.0000   3.0000 Du        
   3153 ****        20.5000  -1.0000   3.2500 Du        
   3154 ****        20.5000  -1.0000   3.5000 Du        
   3155 ****        20.5000  -1.0000   3.7500 Du        
   3156 ****        20.5000  -1.0000   4.0000 Du        
   3157 ****        20.5000  -0.7500   1.7500 Du        
   3158 ****        20.5000  -0.7500   2.0000 Du        
   3159 ****        20.5000  -0.7500   2.2500 Du        
   3160 ****        20.5000  -0.7500   2.5000 Du        
   3161 ****        20.5000  -0.7500   2.7500 Du        
   3162 ****        20.5000  -0.7500   3.0000 Du        
   3163 ****        20.5000  -0.7500   3.2500 Du        
   3164 ****        20.5000  -0.7500   3.5000 Du        
   3165 ****        20.5000  -0.5000   1.7500 Du        
   3166 ****        20.5000  -0.5000   2.0000 Du        
   3167 ****        20.5000  -0.5000   2.2500 Du        
   3168 ****        20.5000  -0.5000   2.5000 Du        
   3169 ****        20.5000  -0.5000   2.7500 Du        
   3170 ****        20.5000  -0.5000   3.0000 Du        
   3171 ****        20.5000  -0.2500   2.2500 Du        
   3172 ****        20.5000  -0.2500   2.5000 Du        
   3173 ****        20.5000   4.5000 -10.2500 Du        
   3174 ****        20.5000   4.5000 -10.0000 Du        
   3175 ****        20.5000   4.5000  -9.7500 Du        
   3176 ****        20.5000   4.5000  -9.5000 Du        
   3177 ****        20.5000   4.5000  -9.2500 Du        
   3178 ****        20.5000   4.5000  -9.0000 Du        
   3179 ****        20.5000   4.7500 -10.2500 Du        
   3180 ****        20.5000   4.7500 -10.0000 Du        
   3181 ****        20.5000   4.7500  -9.7500 Du        
   3182 ****        20.5000   4.7500  -9.5000 Du        
   3183 ****        20.5000   4.7500  -9.2500 Du        
   3184 ****        20.5000   4.7500  -9.0000 Du        
   3185 ****        20.5000   5.0000 -10.2500 Du        
   3186 ****        20.5000   5.0000 -10.0000 Du        
   3187 ****        20.5000   5.0000  -9.7500 Du        
   3188 ****        20.5000   5.0000  -9.5000 Du        
   3189 ****        20.5000   5.0000  -9.2500 Du        
   3190 ****        20.5000   5.0000  -9.0000 Du        
   3191 ****        20.5000   5.0000  -8.7500 Du        
   3192 ****        20.5000   5.2500 -10.2500 Du        
   3193 ****        20.5000   5.2500 -10.0000 Du        
   3194 ****        20.5000   5.2500  -9.7500 Du        
   3195 ****        20.5000   5.2500  -9.5000 Du        
   3196 ****        20.5000   5.2500  -9.2500 Du        
   3197 ****        20.5000   5.2500  -9.0000 Du        
   3198 ****        20.5000   5.2500  -8.7500 Du        
   3199 ****        20.5000   5.5000 -10.2500 Du        
   3200 ****        20.5000   5.5000 -10.0000 Du        
   3201 ****        20.5000   5.5000  -9.7500 Du        
   3202 ****        20.5000   5.5000  -9.5000 Du        
   3203 ****        20.5000   5.5000  -9.2500 Du        
   3204 ****        20.5000   5.5000  -9.0000 Du        
   3205 ****        20.5000   5.5000  -8.7500 Du        
   3206 ****        20.5000   5.7500 -10.2500 Du        
   3207 ****        20.5000   5.7500 -10.0000 Du        
   3208 ****        20.5000   5.7500  -9.7500 Du        
   3209 ****        20.5000   5.7500  -9.5000 Du        
   3210 ****        20.5000   5.7500  -9.2500 Du        
   3211 ****        20.5000   5.7500  -9.0000 Du        
   3212 ****        20.5000   5.7500  -8.7500 Du        
   3213 ****        20.5000   6.0000 -10.2500 Du        
   3214 ****        20.5000   6.0000 -10.0000 Du        
   3215 ****        20.5000   6.0000  -9.7500 Du        
   3216 ****        20.5000   6.0000  -9.5000 Du        
   3217 ****        20.5000   6.0000  -9.2500 Du        
   3218 ****        20.5000   6.0000  -9.0000 Du        
   3219 ****        20.5000   6.0000  -8.7500 Du        
   3220 ****        20.5000   6.2500 -10.2500 Du        
   3221 ****        20.5000   6.2500 -10.0000 Du        
   3222 ****        20.5000   6.2500  -9.7500 Du        
   3223 ****        20.5000   6.2500  -9.5000 Du        
   3224 ****        20.5000   6.2500  -9.2500 Du        
   3225 ****        20.5000   6.2500  -9.0000 Du        
   3226 ****        20.5000   6.2500  -8.7500 Du        
   3227 ****        20.5000   6.5000 -10.0000 Du        
   3228 ****        20.5000   6.5000  -9.7500 Du        
   3229 ****        20.5000   6.5000  -9.5000 Du        
   3230 ****        20.5000   6.5000  -9.2500 Du        
   3231 ****        20.5000   6.5000  -9.0000 Du        
   3232 ****        20.5000   6.5000  -8.7500 Du        
   3233 ****        20.5000   6.7500 -10.0000 Du        
   3234 ****        20.5000   6.7500  -9.7500 Du        
   3235 ****        20.5000   6.7500  -9.5000 Du        
   3236 ****        20.5000   6.7500  -9.2500 Du        
   3237 ****        20.5000   6.7500  -9.0000 Du        
   3238 ****        20.5000   9.5000 -14.2500 Du        
   3239 ****        20.5000   9.5000 -14.0000 Du        
   3240 ****        20.5000   9.5000 -13.7500 Du        
   3241 ****        20.5000   9.5000 -13.5000 Du        
   3242 ****        20.5000   9.7500 -14.5000 Du        
   3243 ****        20.5000   9.7500 -14.2500 Du        
   3244 ****        20.5000   9.7500 -14.0000 Du        
   3245 ****        20.5000   9.7500 -13.7500 Du        
   3246 ****        20.5000   9.7500 -13.5000 Du        
   3247 ****        20.5000  10.0000 -14.5000 Du        
   3248 ****        20.5000  10.0000 -14.2500 Du        
   3249 ****        20.5000  10.0000 -14.0000 Du        
   3250 ****        20.5000  10.0000 -13.7500 Du        
   3251 ****        20.5000  10.0000 -13.5000 Du        
   3252 ****        20.5000  10.2500 -14.5000 Du        
   3253 ****        20.5000  10.2500 -14.2500 Du        
   3254 ****        20.5000  10.2500 -14.0000 Du        
   3255 ****        20.5000  10.2500 -13.7500 Du        
   3256 ****        20.5000  10.5000 -14.7500 Du        
   3257 ****        20.5000  10.5000 -14.5000 Du        
   3258 ****        20.5000  10.5000 -14.2500 Du        
   3259 ****        20.5000  10.5000 -14.0000 Du        
   3260 ****        20.5000  10.5000 -13.7500 Du        
   3261 ****        20.5000  10.7500 -14.5000 Du        
   3262 ****        20.5000  10.7500 -14.2500 Du        
   3263 ****        20.5000  10.7500 -14.0000 Du        
   3264 ****        20.7500  -1.5000   2.5000 Du        
   3265 ****        20.7500  -1.5000   2.7500 Du        
   3266 ****        20.7500  -1.5000   3.0000 Du        
   3267 ****        20.7500  -1.5000   3.2500 Du        
   3268 ****        20.7500  -1.5000   3.5000 Du        
   3269 ****        20.7500  -1.2500   1.7500 Du        
   3270 ****        20.7500  -1.2500   2.0000 Du        
   3271 ****        20.7500  -1.2500   2.2500 Du        
   3272 ****        20.7500  -1.2500   2.5000 Du        
   3273 ****        20.7500  -1.2500   2.7500 Du        
   3274 ****        20.7500  -1.2500   3.0000 Du        
   3275 ****        20.7500  -1.2500   3.2500 Du        
   3276 ****        20.7500  -1.2500   3.5000 Du        
   3277 ****        20.7500  -1.0000   1.7500 Du        
   3278 ****        20.7500  -1.0000   2.0000 Du        
   3279 ****        20.7500  -1.0000   2.2500 Du        
   3280 ****        20.7500  -1.0000   2.5000 Du        
   3281 ****        20.7500  -1.0000   2.7500 Du        
   3282 ****        20.7500  -1.0000   3.0000 Du        
   3283 ****        20.7500  -1.0000   3.2500 Du        
   3284 ****        20.7500  -1.0000   3.5000 Du        
   3285 ****        20.7500  -1.0000   3.7500 Du        
   3286 ****        20.7500  -1.0000   4.0000 Du        
   3287 ****        20.7500  -0.7500   2.0000 Du        
   3288 ****        20.7500  -0.7500   2.2500 Du        
   3289 ****        20.7500  -0.7500   2.5000 Du        
   3290 ****        20.7500  -0.7500   2.7500 Du        
   3291 ****        20.7500  -0.7500   3.0000 Du        
   3292 ****        20.7500  -0.7500   3.2500 Du        
   3293 ****        20.7500  -0.7500   3.5000 Du        
   3294 ****        20.7500  -0.5000   2.0000 Du        
   3295 ****        20.7500  -0.5000   2.2500 Du        
   3296 ****        20.7500  -0.5000   2.5000 Du        
   3297 ****        20.7500  -0.5000   2.7500 Du        
   3298 ****        20.7500  -0.5000   3.0000 Du        
   3299 ****        20.7500  -0.5000   3.2500 Du        
   3300 ****        20.7500  -0.2500   2.2500 Du        
   3301 ****        20.7500  -0.2500   2.5000 Du        
   3302 ****        20.7500  -0.2500   2.7500 Du        
   3303 ****        20.7500   4.2500 -10.0000 Du        
   3304 ****        20.7500   4.2500  -9.7500 Du        
   3305 ****        20.7500   4.2500  -9.5000 Du        
   3306 ****        20.7500   4.2500  -9.2500 Du        
   3307 ****        20.7500   4.5000 -10.2500 Du        
   3308 ****        20.7500   4.5000 -10.0000 Du        
   3309 ****        20.7500   4.5000  -9.7500 Du        
   3310 ****        20.7500   4.5000  -9.5000 Du        
   3311 ****        20.7500   4.5000  -9.2500 Du        
   3312 ****        20.7500   4.5000  -9.0000 Du        
   3313 ****        20.7500   4.7500 -10.2500 Du        
   3314 ****        20.7500   4.7500 -10.0000 Du        
   3315 ****        20.7500   4.7500  -9.7500 Du        
   3316 ****        20.7500   4.7500  -9.5000 Du        
   3317 ****        20.7500   4.7500  -9.2500 Du        
   3318 ****        20.7500   4.7500  -9.0000 Du        
   3319 ****        20.7500   5.0000 -10.2500 Du        
   3320 ****        20.7500   5.0000 -10.0000 Du        
   3321 ****        20.7500   5.0000  -9.7500 Du        
   3322 ****        20.7500   5.0000  -9.5000 Du        
   3323 ****        20.7500   5.0000  -9.2500 Du        
   3324 ****        20.7500   5.0000  -9.0000 Du        
   3325 ****        20.7500   5.2500 -10.2500 Du        
   3326 ****        20.7500   5.2500 -10.0000 Du        
   3327 ****        20.7500   5.2500  -9.7500 Du        
   3328 ****        20.7500   5.2500  -9.5000 Du        
   3329 ****        20.7500   5.2500  -9.2500 Du        
   3330 ****        20.7500   5.2500  -9.0000 Du        
   3331 ****        20.7500   5.5000 -10.2500 Du        
   3332 ****        20.7500   5.5000 -10.0000 Du        
   3333 ****        20.7500   5.5000  -9.7500 Du        
   3334 ****        20.7500   5.5000  -9.5000 Du        
   3335 ****        20.7500   5.5000  -9.2500 Du        
   3336 ****        20.7500   5.5000  -9.0000 Du        
   3337 ****        20.7500   5.5000  -8.7500 Du        
   3338 ****        20.7500   5.7500 -10.0000 Du        
   3339 ****        20.7500   5.7500  -9.7500 Du        
   3340 ****        20.7500   5.7500  -9.5000 Du        
   3341 ****        20.7500   5.7500  -9.2500 Du        
   3342 ****        20.7500   5.7500  -9.0000 Du        
   3343 ****        20.7500   5.7500  -8.7500 Du        
   3344 ****        20.7500   6.0000 -10.0000 Du        
   3345 ****        20.7500   6.0000  -9.7500 Du        
   3346 ****        20.7500   6.0000  -9.5000 Du        
   3347 ****        20.7500   6.0000  -9.2500 Du        
   3348 ****        20.7500   6.0000  -9.0000 Du        
   3349 ****        20.7500   6.0000  -8.7500 Du        
   3350 ****        20.7500   6.2500 -10.0000 Du        
   3351 ****        20.7500   6.2500  -9.7500 Du        
   3352 ****        20.7500   6.2500  -9.5000 Du        
   3353 ****        20.7500   6.2500  -9.2500 Du        
   3354 ****        20.7500   6.2500  -9.0000 Du        
   3355 ****        20.7500   6.2500  -8.7500 Du        
   3356 ****        20.7500   6.5000 -10.0000 Du        
   3357 ****        20.7500   6.5000  -9.7500 Du        
   3358 ****        20.7500   6.5000  -9.5000 Du        
   3359 ****        20.7500   6.5000  -9.2500 Du        
   3360 ****        20.7500   6.5000  -9.0000 Du        
   3361 ****        20.7500   6.5000  -8.7500 Du        
   3362 ****        20.7500   6.7500  -9.7500 Du        
   3363 ****        20.7500   6.7500  -9.5000 Du        
   3364 ****        20.7500   6.7500  -9.2500 Du        
   3365 ****        20.7500   6.7500  -9.0000 Du        
   3366 ****        20.7500   9.5000 -14.2500 Du        
   3367 ****        20.7500   9.5000 -14.0000 Du        
   3368 ****        20.7500   9.7500 -14.5000 Du        
   3369 ****        20.7500   9.7500 -14.2500 Du        
   3370 ****        20.7500   9.7500 -14.0000 Du        
   3371 ****        20.7500   9.7500 -13.7500 Du        
   3372 ****        20.7500   9.7500 -13.5000 Du        
   3373 ****        20.7500  10.0000 -14.7500 Du        
   3374 ****        20.7500  10.0000 -14.5000 Du        
   3375 ****        20.7500  10.0000 -14.2500 Du        
   3376 ****        20.7500  10.0000 -14.0000 Du        
   3377 ****        20.7500  10.0000 -13.7500 Du        
   3378 ****        20.7500  10.0000 -13.5000 Du        
   3379 ****        20.7500  10.2500 -14.7500 Du        
   3380 ****        20.7500  10.2500 -14.5000 Du        
   3381 ****        20.7500  10.2500 -14.2500 Du        
   3382 ****        20.7500  10.2500 -14.0000 Du        
   3383 ****        20.7500  10.2500 -13.7500 Du        
   3384 ****        20.7500  10.5000 -14.7500 Du        
   3385 ****        20.7500  10.5000 -14.5000 Du        
   3386 ****        20.7500  10.5000 -14.2500 Du        
   3387 ****        20.7500  10.5000 -14.0000 Du        
   3388 ****        20.7500  10.5000 -13.7500 Du        
   3389 ****        20.7500  10.7500 -14.5000 Du        
   3390 ****        20.7500  10.7500 -14.2500 Du        
   3391 ****        20.7500  10.7500 -14.0000 Du        
   3392 ****        21.0000  -1.5000   2.7500 Du        
   3393 ****        21.0000  -1.5000   3.0000 Du        
   3394 ****        21.0000  -1.5000   3.2500 Du        
   3395 ****        21.0000  -1.5000   3.5000 Du        
   3396 ****        21.0000  -1.2500   2.2500 Du        
   3397 ****        21.0000  -1.2500   2.5000 Du        
   3398 ****        21.0000  -1.2500   2.7500 Du        
   3399 ****        21.0000  -1.2500   3.0000 Du        
   3400 ****        21.0000  -1.2500   3.2500 Du        
   3401 ****        21.0000  -1.2500   3.5000 Du        
   3402 ****        21.0000  -1.0000   2.0000 Du        
   3403 ****        21.0000  -1.0000   2.2500 Du        
   3404 ****        21.0000  -1.0000   2.5000 Du        
   3405 ****        21.0000  -1.0000   2.7500 Du        
   3406 ****        21.0000  -1.0000   3.0000 Du        
   3407 ****        21.0000  -1.0000   3.2500 Du        
   3408 ****        21.0000  -1.0000   3.5000 Du        
   3409 ****        21.0000  -1.0000   3.7500 Du        
   3410 ****        21.0000  -1.0000   4.0000 Du        
   3411 ****        21.0000  -0.7500   2.2500 Du        
   3412 ****        21.0000  -0.7500   2.5000 Du        
   3413 ****        21.0000  -0.7500   2.7500 Du        
   3414 ****        21.0000  -0.7500   3.0000 Du        
   3415 ****        21.0000  -0.7500   3.2500 Du        
   3416 ****        21.0000  -0.7500   3.5000 Du        
   3417 ****        21.0000  -0.5000   2.2500 Du        
   3418 ****        21.0000  -0.5000   2.5000 Du        
   3419 ****        21.0000  -0.5000   2.7500 Du        
   3420 ****        21.0000  -0.5000   3.0000 Du        
   3421 ****        21.0000  -0.5000   3.2500 Du        
   3422 ****        21.0000  -0.2500   2.5000 Du        
   3423 ****        21.0000  -0.2500   2.7500 Du        
   3424 ****        21.0000   3.7500 -10.0000 Du        
   3425 ****        21.0000   3.7500  -9.7500 Du        
   3426 ****        21.0000   4.0000 -10.2500 Du        
   3427 ****        21.0000   4.0000 -10.0000 Du        
   3428 ****        21.0000   4.0000  -9.7500 Du        
   3429 ****        21.0000   4.2500 -10.2500 Du        
   3430 ****        21.0000   4.2500 -10.0000 Du        
   3431 ****        21.0000   4.2500  -9.7500 Du        
   3432 ****        21.0000   4.2500  -9.5000 Du        
   3433 ****        21.0000   4.5000 -10.2500 Du        
   3434 ****        21.0000   4.5000 -10.0000 Du        
   3435 ****        21.0000   4.5000  -9.7500 Du        
   3436 ****        21.0000   4.5000  -9.5000 Du        
   3437 ****        21.0000   4.5000  -9.2500 Du        
   3438 ****        21.0000   4.7500 -10.2500 Du        
   3439 ****        21.0000   4.7500 -10.0000 Du        
   3440 ****        21.0000   4.7500  -9.7500 Du        
   3441 ****        21.0000   4.7500  -9.5000 Du        
   3442 ****        21.0000   4.7500  -9.2500 Du        
   3443 ****        21.0000   4.7500  -9.0000 Du        
   3444 ****        21.0000   5.0000 -10.2500 Du        
   3445 ****        21.0000   5.0000 -10.0000 Du        
   3446 ****        21.0000   5.0000  -9.7500 Du        
   3447 ****        21.0000   5.0000  -9.5000 Du        
   3448 ****        21.0000   5.0000  -9.2500 Du        
   3449 ****        21.0000   5.0000  -9.0000 Du        
   3450 ****        21.0000   5.2500 -10.0000 Du        
   3451 ****        21.0000   5.2500  -9.7500 Du        
   3452 ****        21.0000   5.2500  -9.5000 Du        
   3453 ****        21.0000   5.2500  -9.2500 Du        
   3454 ****        21.0000   5.2500  -9.0000 Du        
   3455 ****        21.0000   5.5000 -10.0000 Du        
   3456 ****        21.0000   5.5000  -9.7500 Du        
   3457 ****        21.0000   5.5000  -9.5000 Du        
   3458 ****        21.0000   5.5000  -9.2500 Du        
   3459 ****        21.0000   5.5000  -9.0000 Du        
   3460 ****        21.0000   5.7500 -10.0000 Du        
   3461 ****        21.0000   5.7500  -9.7500 Du        
   3462 ****        21.0000   5.7500  -9.5000 Du        
   3463 ****        21.0000   5.7500  -9.2500 Du        
   3464 ****        21.0000   5.7500  -9.0000 Du        
   3465 ****        21.0000   6.0000 -10.0000 Du        
   3466 ****        21.0000   6.0000  -9.7500 Du        
   3467 ****        21.0000   6.0000  -9.5000 Du        
   3468 ****        21.0000   6.0000  -9.2500 Du        
   3469 ****        21.0000   6.0000  -9.0000 Du        
   3470 ****        21.0000   6.2500  -9.7500 Du        
   3471 ****        21.0000   6.2500  -9.5000 Du        
   3472 ****        21.0000   6.2500  -9.2500 Du        
   3473 ****        21.0000   6.2500  -9.0000 Du        
   3474 ****        21.0000   6.5000  -9.7500 Du        
   3475 ****        21.0000   6.5000  -9.5000 Du        
   3476 ****        21.0000   6.5000  -9.2500 Du        
   3477 ****        21.0000   6.5000  -9.0000 Du        
   3478 ****        21.0000   6.7500  -9.7500 Du        
   3479 ****        21.0000   6.7500  -9.5000 Du        
   3480 ****        21.0000   6.7500  -9.2500 Du        
   3481 ****        21.0000   6.7500  -9.0000 Du        
   3482 ****        21.0000   9.7500 -14.5000 Du        
   3483 ****        21.0000   9.7500 -14.2500 Du        
   3484 ****        21.0000   9.7500 -14.0000 Du        
   3485 ****        21.0000   9.7500 -13.7500 Du        
   3486 ****        21.0000  10.0000 -14.7500 Du        
   3487 ****        21.0000  10.0000 -14.5000 Du        
   3488 ****        21.0000  10.0000 -14.2500 Du        
   3489 ****        21.0000  10.0000 -14.0000 Du        
   3490 ****        21.0000  10.0000 -13.7500 Du        
   3491 ****        21.0000  10.0000 -13.5000 Du        
   3492 ****        21.0000  10.2500 -14.7500 Du        
   3493 ****        21.0000  10.2500 -14.5000 Du        
   3494 ****        21.0000  10.2500 -14.2500 Du        
   3495 ****        21.0000  10.2500 -14.0000 Du        
   3496 ****        21.0000  10.2500 -13.7500 Du        
   3497 ****        21.0000  10.5000 -14.7500 Du        
   3498 ****        21.0000  10.5000 -14.5000 Du        
   3499 ****        21.0000  10.5000 -14.2500 Du        
   3500 ****        21.0000  10.5000 -14.0000 Du        
   3501 ****        21.0000  10.7500 -14.5000 Du        
   3502 ****        21.0000  10.7500 -14.2500 Du        
   3503 ****        21.2500  -1.5000   3.5000 Du        
   3504 ****        21.2500  -1.2500   3.0000 Du        
   3505 ****        21.2500  -1.2500   3.2500 Du        
   3506 ****        21.2500  -1.2500   3.5000 Du        
   3507 ****        21.2500  -1.0000   2.2500 Du        
   3508 ****        21.2500  -1.0000   2.5000 Du        
   3509 ****        21.2500  -1.0000   2.7500 Du        
   3510 ****        21.2500  -1.0000   3.0000 Du        
   3511 ****        21.2500  -1.0000   3.2500 Du        
   3512 ****        21.2500  -1.0000   3.5000 Du        
   3513 ****        21.2500  -1.0000   3.7500 Du        
   3514 ****        21.2500  -1.0000   4.0000 Du        
   3515 ****        21.2500  -0.7500   2.5000 Du        
   3516 ****        21.2500  -0.7500   2.7500 Du        
   3517 ****        21.2500  -0.7500   3.0000 Du        
   3518 ****        21.2500  -0.7500   3.2500 Du        
   3519 ****        21.2500  -0.7500   3.5000 Du        
   3520 ****        21.2500  -0.7500   3.7500 Du        
   3521 ****        21.2500  -0.5000   2.5000 Du        
   3522 ****        21.2500  -0.5000   2.7500 Du        
   3523 ****        21.2500  -0.5000   3.0000 Du        
   3524 ****        21.2500  -0.5000   3.2500 Du        
   3525 ****        21.2500  -0.2500   2.7500 Du        
   3526 ****        21.2500   3.7500 -10.2500 Du        
   3527 ****        21.2500   3.7500 -10.0000 Du        
   3528 ****        21.2500   3.7500  -9.7500 Du        
   3529 ****        21.2500   4.0000 -10.2500 Du        
   3530 ****        21.2500   4.0000 -10.0000 Du        
   3531 ****        21.2500   4.0000  -9.7500 Du        
   3532 ****        21.2500   4.2500 -10.2500 Du        
   3533 ****        21.2500   4.2500 -10.0000 Du        
   3534 ****        21.2500   4.2500  -9.7500 Du        
   3535 ****        21.2500   4.2500  -9.5000 Du        
   3536 ****        21.2500   4.5000 -10.2500 Du        
   3537 ****        21.2500   4.5000 -10.0000 Du        
   3538 ****        21.2500   4.5000  -9.7500 Du        
   3539 ****        21.2500   4.5000  -9.5000 Du        
   3540 ****        21.2500   4.7500 -10.2500 Du        
   3541 ****        21.2500   4.7500 -10.0000 Du        
   3542 ****        21.2500   4.7500  -9.7500 Du        
   3543 ****        21.2500   4.7500  -9.5000 Du        
   3544 ****        21.2500   4.7500  -9.2500 Du        
   3545 ****        21.2500   5.0000 -10.0000 Du        
   3546 ****        21.2500   5.0000  -9.7500 Du        
   3547 ****        21.2500   5.0000  -9.5000 Du        
   3548 ****        21.2500   5.0000  -9.2500 Du        
   3549 ****        21.2500   5.2500 -10.0000 Du        
   3550 ****        21.2500   5.2500  -9.7500 Du        
   3551 ****        21.2500   5.2500  -9.5000 Du        
   3552 ****        21.2500   5.2500  -9.2500 Du        
   3553 ****        21.2500   5.5000 -10.0000 Du        
   3554 ****        21.2500   5.5000  -9.7500 Du        
   3555 ****        21.2500   5.5000  -9.5000 Du        
   3556 ****        21.2500   5.5000  -9.2500 Du        
   3557 ****        21.2500   5.7500  -9.7500 Du        
   3558 ****        21.2500   5.7500  -9.5000 Du        
   3559 ****        21.2500   5.7500  -9.2500 Du        
   3560 ****        21.2500   6.0000  -9.7500 Du        
   3561 ****        21.2500   6.0000  -9.5000 Du        
   3562 ****        21.2500   6.0000  -9.2500 Du        
   3563 ****        21.2500   6.2500  -9.7500 Du        
   3564 ****        21.2500   6.2500  -9.5000 Du        
   3565 ****        21.2500   6.2500  -9.2500 Du        
   3566 ****        21.2500   6.5000  -9.5000 Du        
   3567 ****        21.2500   6.5000  -9.2500 Du        
   3568 ****        21.2500   6.7500  -9.5000 Du        
   3569 ****        21.2500   6.7500  -9.2500 Du        
   3570 ****        21.2500   9.7500 -14.5000 Du        
   3571 ****        21.2500   9.7500 -14.2500 Du        
   3572 ****        21.2500  10.0000 -14.7500 Du        
   3573 ****        21.2500  10.0000 -14.5000 Du        
   3574 ****        21.2500  10.0000 -14.2500 Du        
   3575 ****        21.2500  10.0000 -14.0000 Du        
   3576 ****        21.2500  10.0000 -13.7500 Du        
   3577 ****        21.2500  10.2500 -15.0000 Du        
   3578 ****        21.2500  10.2500 -14.7500 Du        
   3579 ****        21.2500  10.2500 -14.5000 Du        
   3580 ****        21.2500  10.2500 -14.2500 Du        
   3581 ****        21.2500  10.2500 -14.0000 Du        
   3582 ****        21.2500  10.2500 -13.7500 Du        
   3583 ****        21.2500  10.5000 -14.7500 Du        
   3584 ****        21.2500  10.5000 -14.5000 Du        
   3585 ****        21.2500  10.5000 -14.2500 Du        
   3586 ****        21.2500  10.5000 -14.0000 Du        
   3587 ****        21.5000  -1.0000   3.5000 Du        
   3588 ****        21.5000  -1.0000   3.7500 Du        
   3589 ****        21.5000  -0.5000   3.0000 Du        
   3590 ****        21.5000   3.0000 -10.0000 Du        
   3591 ****        21.5000   3.2500 -10.2500 Du        
   3592 ****        21.5000   3.2500 -10.0000 Du        
   3593 ****        21.5000   3.5000 -10.5000 Du        
   3594 ****        21.5000   3.5000 -10.2500 Du        
   3595 ****        21.5000   3.5000 -10.0000 Du        
   3596 ****        21.5000   3.7500 -10.5000 Du        
   3597 ****        21.5000   3.7500 -10.2500 Du        
   3598 ****        21.5000   3.7500 -10.0000 Du        
   3599 ****        21.5000   4.0000 -10.5000 Du        
   3600 ****        21.5000   4.0000 -10.2500 Du        
   3601 ****        21.5000   4.0000 -10.0000 Du        
   3602 ****        21.5000   4.0000  -9.7500 Du        
   3603 ****        21.5000   4.2500 -10.2500 Du        
   3604 ****        21.5000   4.2500 -10.0000 Du        
   3605 ****        21.5000   4.2500  -9.7500 Du        
   3606 ****        21.5000   4.5000 -10.2500 Du        
   3607 ****        21.5000   4.5000 -10.0000 Du        
   3608 ****        21.5000   4.5000  -9.7500 Du        
   3609 ****        21.5000   4.5000  -9.5000 Du        
   3610 ****        21.5000   4.7500 -10.0000 Du        
   3611 ****        21.5000   4.7500  -9.7500 Du        
   3612 ****        21.5000   4.7500  -9.5000 Du        
   3613 ****        21.5000   5.0000 -10.0000 Du        
   3614 ****        21.5000   5.0000  -9.7500 Du        
   3615 ****        21.5000   5.0000  -9.5000 Du        
   3616 ****        21.5000   5.2500  -9.7500 Du        
   3617 ****        21.5000   5.2500  -9.5000 Du        
   3618 ****        21.5000   5.5000  -9.7500 Du        
   3619 ****        21.5000   5.5000  -9.5000 Du        
   3620 ****        21.5000   5.7500  -9.5000 Du        
   3621 ****        21.5000   6.0000  -9.5000 Du        
   3622 ****        21.5000  10.0000 -14.5000 Du        
   3623 ****        21.5000  10.0000 -14.2500 Du        
   3624 ****        21.5000  10.0000 -14.0000 Du        
   3625 ****        21.5000  10.0000 -13.7500 Du        
   3626 ****        21.5000  10.2500 -14.7500 Du        
   3627 ****        21.5000  10.2500 -14.5000 Du        
   3628 ****        21.5000  10.2500 -14.2500 Du        
   3629 ****        21.5000  10.2500 -14.0000 Du        
   3630 ****        21.5000  10.2500 -13.7500 Du        
   3631 ****        21.5000  10.5000 -14.7500 Du        
   3632 ****        21.5000  10.5000 -14.5000 Du        
   3633 ****        21.5000  10.5000 -14.2500 Du        
   3634 ****        21.5000  10.5000 -14.0000 Du        
   3635 ****        21.7500   1.7500  -9.7500 Du        
   3636 ****        21.7500   2.2500 -10.0000 Du        
   3637 ****        21.7500   2.2500  -9.7500 Du        
   3638 ****        21.7500   2.5000 -10.2500 Du        
   3639 ****        21.7500   2.5000 -10.0000 Du        
   3640 ****        21.7500   2.7500 -10.5000 Du        
   3641 ****        21.7500   2.7500 -10.2500 Du        
   3642 ****        21.7500   2.7500 -10.0000 Du        
   3643 ****        21.7500   3.0000 -10.7500 Du        
   3644 ****        21.7500   3.0000 -10.5000 Du        
   3645 ****        21.7500   3.0000 -10.2500 Du        
   3646 ****        21.7500   3.0000 -10.0000 Du        
   3647 ****        21.7500   3.2500 -10.7500 Du        
   3648 ****        21.7500   3.2500 -10.5000 Du        
   3649 ****        21.7500   3.2500 -10.2500 Du        
   3650 ****        21.7500   3.2500 -10.0000 Du        
   3651 ****        21.7500   3.5000 -10.5000 Du        
   3652 ****        21.7500   3.5000 -10.2500 Du        
   3653 ****        21.7500   3.5000 -10.0000 Du        
   3654 ****        21.7500   3.7500 -10.5000 Du        
   3655 ****        21.7500   3.7500 -10.2500 Du        
   3656 ****        21.7500   3.7500 -10.0000 Du        
   3657 ****        21.7500   4.0000 -10.2500 Du        
   3658 ****        21.7500   4.0000 -10.0000 Du        
   3659 ****        21.7500   4.2500 -10.2500 Du        
   3660 ****        21.7500   4.2500 -10.0000 Du        
   3661 ****        21.7500   4.5000 -10.0000 Du        
   3662 ****        21.7500   4.5000  -9.7500 Du        
   3663 ****        21.7500   4.7500  -9.7500 Du        
   3664 ****        21.7500  10.0000 -14.5000 Du        
   3665 ****        21.7500  10.0000 -14.2500 Du        
   3666 ****        21.7500  10.0000 -14.0000 Du        
   3667 ****        21.7500  10.2500 -14.7500 Du        
   3668 ****        21.7500  10.2500 -14.5000 Du        
   3669 ****        21.7500  10.2500 -14.2500 Du        
   3670 ****        21.7500  10.2500 -14.0000 Du        
   3671 ****        21.7500  10.2500 -13.7500 Du        
   3672 ****        21.7500  10.5000 -14.7500 Du        
   3673 ****        21.7500  10.5000 -14.5000 Du        
   3674 ****        21.7500  10.5000 -14.2500 Du        
   3675 ****        21.7500  10.5000 -14.0000 Du        
   3676 ****        21.7500  10.7500 -14.5000 Du        
   3677 ****        21.7500  10.7500 -14.2500 Du        
   3678 ****        22.0000   1.5000  -9.7500 Du        
   3679 ****        22.0000   1.5000  -9.5000 Du        
   3680 ****        22.0000   1.5000  -9.2500 Du        
   3681 ****        22.0000   1.7500 -10.2500 Du        
   3682 ****        22.0000   1.7500 -10.0000 Du        
   3683 ****        22.0000   1.7500  -9.7500 Du        
   3684 ****        22.0000   1.7500  -9.5000 Du        
   3685 ****        22.0000   1.7500  -9.2500 Du        
   3686 ****        22.0000   2.0000 -10.5000 Du        
   3687 ****        22.0000   2.0000 -10.2500 Du        
   3688 ****        22.0000   2.0000 -10.0000 Du        
   3689 ****        22.0000   2.0000  -9.7500 Du        
   3690 ****        22.0000   2.0000  -9.5000 Du        
   3691 ****        22.0000   2.2500 -10.5000 Du        
   3692 ****        22.0000   2.2500 -10.2500 Du        
   3693 ****        22.0000   2.2500 -10.0000 Du        
   3694 ****        22.0000   2.2500  -9.7500 Du        
   3695 ****        22.0000   2.5000 -10.7500 Du        
   3696 ****        22.0000   2.5000 -10.5000 Du        
   3697 ****        22.0000   2.5000 -10.2500 Du        
   3698 ****        22.0000   2.5000 -10.0000 Du        
   3699 ****        22.0000   2.7500 -10.7500 Du        
   3700 ****        22.0000   2.7500 -10.5000 Du        
   3701 ****        22.0000   2.7500 -10.2500 Du        
   3702 ****        22.0000   2.7500 -10.0000 Du        
   3703 ****        22.0000   3.0000 -10.7500 Du        
   3704 ****        22.0000   3.0000 -10.5000 Du        
   3705 ****        22.0000   3.0000 -10.2500 Du        
   3706 ****        22.0000   3.0000 -10.0000 Du        
   3707 ****        22.0000   3.2500 -10.7500 Du        
   3708 ****        22.0000   3.2500 -10.5000 Du        
   3709 ****        22.0000   3.2500 -10.2500 Du        
   3710 ****        22.0000   3.2500 -10.0000 Du        
   3711 ****        22.0000   3.5000 -10.5000 Du        
   3712 ****        22.0000   3.5000 -10.2500 Du        
   3713 ****        22.0000   3.5000 -10.0000 Du        
   3714 ****        22.0000   3.7500 -10.2500 Du        
   3715 ****        22.0000   4.0000 -10.0000 Du        
   3716 ****        22.0000  10.0000 -14.5000 Du        
   3717 ****        22.0000  10.0000 -14.2500 Du        
   3718 ****        22.0000  10.2500 -15.0000 Du        
   3719 ****        22.0000  10.2500 -14.7500 Du        
   3720 ****        22.0000  10.2500 -14.5000 Du        
   3721 ****        22.0000  10.2500 -14.2500 Du        
   3722 ****        22.0000  10.2500 -14.0000 Du        
   3723 ****        22.0000  10.5000 -15.0000 Du        
   3724 ****        22.0000  10.5000 -14.7500 Du        
   3725 ****        22.0000  10.5000 -14.5000 Du        
   3726 ****        22.0000  10.5000 -14.2500 Du        
   3727 ****        22.0000  10.5000 -14.0000 Du        
   3728 ****        22.0000  10.7500 -14.5000 Du        
   3729 ****        22.0000  10.7500 -14.2500 Du        
   3730 ****        22.2500   1.5000 -10.5000 Du        
   3731 ****        22.2500   1.5000 -10.2500 Du        
   3732 ****        22.2500   1.5000 -10.0000 Du        
   3733 ****        22.2500   1.5000  -9.7500 Du        
   3734 ****        22.2500   1.5000  -9.5000 Du        
   3735 ****        22.2500   1.5000  -9.2500 Du        
   3736 ****        22.2500   1.7500 -10.5000 Du        
   3737 ****        22.2500   1.7500 -10.2500 Du        
   3738 ****        22.2500   1.7500 -10.0000 Du        
   3739 ****        22.2500   1.7500  -9.7500 Du        
   3740 ****        22.2500   1.7500  -9.5000 Du        
   3741 ****        22.2500   2.0000 -10.7500 Du        
   3742 ****        22.2500   2.0000 -10.5000 Du        
   3743 ****        22.2500   2.0000 -10.2500 Du        
   3744 ****        22.2500   2.0000 -10.0000 Du        
   3745 ****        22.2500   2.0000  -9.7500 Du        
   3746 ****        22.2500   2.0000  -9.5000 Du        
   3747 ****        22.2500   2.2500 -11.0000 Du        
   3748 ****        22.2500   2.2500 -10.7500 Du        
   3749 ****        22.2500   2.2500 -10.5000 Du        
   3750 ****        22.2500   2.2500 -10.2500 Du        
   3751 ****        22.2500   2.2500 -10.0000 Du        
   3752 ****        22.2500   2.2500  -9.7500 Du        
   3753 ****        22.2500   2.5000 -11.0000 Du        
   3754 ****        22.2500   2.5000 -10.7500 Du        
   3755 ****        22.2500   2.5000 -10.5000 Du        
   3756 ****        22.2500   2.5000 -10.2500 Du        
   3757 ****        22.2500   2.5000 -10.0000 Du        
   3758 ****        22.2500   2.7500 -11.0000 Du        
   3759 ****        22.2500   2.7500 -10.7500 Du        
   3760 ****        22.2500   2.7500 -10.5000 Du        
   3761 ****        22.2500   2.7500 -10.2500 Du        
   3762 ****        22.2500   2.7500 -10.0000 Du        
   3763 ****        22.2500   3.0000 -11.0000 Du        
   3764 ****        22.2500   3.0000 -10.7500 Du        
   3765 ****        22.2500   3.0000 -10.5000 Du        
   3766 ****        22.2500   3.0000 -10.2500 Du        
   3767 ****        22.2500   3.0000 -10.0000 Du        
   3768 ****        22.2500   3.2500 -10.7500 Du        
   3769 ****        22.2500   3.2500 -10.5000 Du        
   3770 ****        22.2500   3.2500 -10.2500 Du        
   3771 ****        22.2500   3.5000 -10.5000 Du        
   3772 ****        22.2500   3.5000 -10.2500 Du        
   3773 ****        22.2500  10.0000 -14.5000 Du        
   3774 ****        22.2500  10.2500 -14.7500 Du        
   3775 ****        22.2500  10.2500 -14.5000 Du        
   3776 ****        22.2500  10.2500 -14.2500 Du        
   3777 ****        22.2500  10.2500 -14.0000 Du        
   3778 ****        22.2500  10.5000 -15.0000 Du        
   3779 ****        22.2500  10.5000 -14.7500 Du        
   3780 ****        22.2500  10.5000 -14.5000 Du        
   3781 ****        22.2500  10.5000 -14.2500 Du        
   3782 ****        22.2500  10.5000 -14.0000 Du        
   3783 ****        22.2500  10.7500 -14.5000 Du        
   3784 ****        22.2500  10.7500 -14.2500 Du        
   3785 ****        22.5000   1.2500 -10.5000 Du        
   3786 ****        22.5000   1.2500 -10.2500 Du        
   3787 ****        22.5000   1.2500 -10.0000 Du        
   3788 ****        22.5000   1.2500  -9.7500 Du        
   3789 ****        22.5000   1.5000 -10.7500 Du        
   3790 ****        22.5000   1.5000 -10.5000 Du        
   3791 ****        22.5000   1.5000 -10.2500 Du        
   3792 ****        22.5000   1.5000 -10.0000 Du        
   3793 ****        22.5000   1.5000  -9.7500 Du        
   3794 ****        22.5000   1.5000  -9.5000 Du        
   3795 ****        22.5000   1.7500 -11.2500 Du        
   3796 ****        22.5000   1.7500 -11.0000 Du        
   3797 ****        22.5000   1.7500 -10.7500 Du        
   3798 ****        22.5000   1.7500 -10.5000 Du        
   3799 ****        22.5000   1.7500 -10.2500 Du        
   3800 ****        22.5000   1.7500 -10.0000 Du        
   3801 ****        22.5000   1.7500  -9.7500 Du        
   3802 ****        22.5000   1.7500  -9.5000 Du        
   3803 ****        22.5000   2.0000 -11.5000 Du        
   3804 ****        22.5000   2.0000 -11.2500 Du        
   3805 ****        22.5000   2.0000 -11.0000 Du        
   3806 ****        22.5000   2.0000 -10.7500 Du        
   3807 ****        22.5000   2.0000 -10.5000 Du        
   3808 ****        22.5000   2.0000 -10.2500 Du        
   3809 ****        22.5000   2.0000 -10.0000 Du        
   3810 ****        22.5000   2.0000  -9.7500 Du        
   3811 ****        22.5000   2.2500 -11.5000 Du        
   3812 ****        22.5000   2.2500 -11.2500 Du        
   3813 ****        22.5000   2.2500 -11.0000 Du        
   3814 ****        22.5000   2.2500 -10.7500 Du        
   3815 ****        22.5000   2.2500 -10.5000 Du        
   3816 ****        22.5000   2.2500 -10.2500 Du        
   3817 ****        22.5000   2.2500 -10.0000 Du        
   3818 ****        22.5000   2.2500  -9.7500 Du        
   3819 ****        22.5000   2.5000 -11.2500 Du        
   3820 ****        22.5000   2.5000 -11.0000 Du        
   3821 ****        22.5000   2.5000 -10.7500 Du        
   3822 ****        22.5000   2.5000 -10.5000 Du        
   3823 ****        22.5000   2.5000 -10.2500 Du        
   3824 ****        22.5000   2.5000 -10.0000 Du        
   3825 ****        22.5000   2.5000  -9.7500 Du        
   3826 ****        22.5000   2.7500 -11.2500 Du        
   3827 ****        22.5000   2.7500 -11.0000 Du        
   3828 ****        22.5000   2.7500 -10.7500 Du        
   3829 ****        22.5000   2.7500 -10.5000 Du        
   3830 ****        22.5000   2.7500 -10.2500 Du        
   3831 ****        22.5000   2.7500 -10.0000 Du        
   3832 ****        22.5000   3.0000 -11.0000 Du        
   3833 ****        22.5000   3.0000 -10.7500 Du        
   3834 ****        22.5000   3.0000 -10.5000 Du        
   3835 ****        22.5000   3.0000 -10.2500 Du        
   3836 ****        22.5000   3.0000 -10.0000 Du        
   3837 ****        22.5000   3.2500 -10.7500 Du        
   3838 ****        22.5000   3.2500 -10.5000 Du        
   3839 ****        22.5000   3.2500 -10.2500 Du        
   3840 ****        22.5000   3.5000 -10.2500 Du        
   3841 ****        22.5000  10.2500 -15.0000 Du        
   3842 ****        22.5000  10.2500 -14.7500 Du        
   3843 ****        22.5000  10.2500 -14.5000 Du        
   3844 ****        22.5000  10.2500 -14.2500 Du        
   3845 ****        22.5000  10.5000 -15.0000 Du        
   3846 ****        22.5000  10.5000 -14.7500 Du        
   3847 ****        22.5000  10.5000 -14.5000 Du        
   3848 ****        22.5000  10.5000 -14.2500 Du        
   3849 ****        22.5000  10.7500 -14.7500 Du        
   3850 ****        22.5000  10.7500 -14.5000 Du        
   3851 ****        22.5000  10.7500 -14.2500 Du        
   3852 ****        22.7500   1.2500 -10.7500 Du        
   3853 ****        22.7500   1.2500 -10.5000 Du        
   3854 ****        22.7500   1.5000 -11.2500 Du        
   3855 ****        22.7500   1.5000 -11.0000 Du        
   3856 ****        22.7500   1.5000 -10.7500 Du        
   3857 ****        22.7500   1.5000 -10.5000 Du        
   3858 ****        22.7500   1.5000 -10.2500 Du        
   3859 ****        22.7500   1.5000 -10.0000 Du        
   3860 ****        22.7500   1.7500 -11.5000 Du        
   3861 ****        22.7500   1.7500 -11.2500 Du        
   3862 ****        22.7500   1.7500 -11.0000 Du        
   3863 ****        22.7500   1.7500 -10.7500 Du        
   3864 ****        22.7500   1.7500 -10.5000 Du        
   3865 ****        22.7500   1.7500 -10.2500 Du        
   3866 ****        22.7500   1.7500 -10.0000 Du        
   3867 ****        22.7500   1.7500  -9.7500 Du        
   3868 ****        22.7500   2.0000 -11.5000 Du        
   3869 ****        22.7500   2.0000 -11.2500 Du        
   3870 ****        22.7500   2.0000 -11.0000 Du        
   3871 ****        22.7500   2.0000 -10.7500 Du        
   3872 ****        22.7500   2.0000 -10.5000 Du        
   3873 ****        22.7500   2.0000 -10.2500 Du        
   3874 ****        22.7500   2.0000 -10.0000 Du        
   3875 ****        22.7500   2.0000  -9.7500 Du        
   3876 ****        22.7500   2.2500 -11.5000 Du        
   3877 ****        22.7500   2.2500 -11.2500 Du        
   3878 ****        22.7500   2.2500 -11.0000 Du        
   3879 ****        22.7500   2.2500 -10.7500 Du        
   3880 ****        22.7500   2.2500 -10.5000 Du        
   3881 ****        22.7500   2.2500 -10.2500 Du        
   3882 ****        22.7500   2.2500 -10.0000 Du        
   3883 ****        22.7500   2.2500  -9.7500 Du        
   3884 ****        22.7500   2.5000 -11.5000 Du        
   3885 ****        22.7500   2.5000 -11.2500 Du        
   3886 ****        22.7500   2.5000 -11.0000 Du        
   3887 ****        22.7500   2.5000 -10.7500 Du        
   3888 ****        22.7500   2.5000 -10.5000 Du        
   3889 ****        22.7500   2.5000 -10.2500 Du        
   3890 ****        22.7500   2.5000 -10.0000 Du        
   3891 ****        22.7500   2.7500 -11.2500 Du        
   3892 ****        22.7500   2.7500 -11.0000 Du        
   3893 ****        22.7500   2.7500 -10.7500 Du        
   3894 ****        22.7500   2.7500 -10.5000 Du        
   3895 ****        22.7500   2.7500 -10.2500 Du        
   3896 ****        22.7500   2.7500 -10.0000 Du        
   3897 ****        22.7500   3.0000 -11.0000 Du        
   3898 ****        22.7500   3.0000 -10.7500 Du        
   3899 ****        22.7500   3.0000 -10.5000 Du        
   3900 ****        22.7500   3.0000 -10.2500 Du        
   3901 ****        22.7500   3.2500 -10.5000 Du        
   3902 ****        22.7500   3.2500 -10.2500 Du        
   3903 ****        22.7500  10.2500 -15.0000 Du        
   3904 ****        22.7500  10.2500 -14.7500 Du        
   3905 ****        22.7500  10.2500 -14.5000 Du        
   3906 ****        22.7500  10.5000 -15.2500 Du        
   3907 ****        22.7500  10.5000 -15.0000 Du        
   3908 ****        22.7500  10.5000 -14.7500 Du        
   3909 ****        22.7500  10.5000 -14.5000 Du        
   3910 ****        22.7500  10.5000 -14.2500 Du        
   3911 ****        22.7500  10.7500 -15.0000 Du        
   3912 ****        22.7500  10.7500 -14.7500 Du        
   3913 ****        22.7500  10.7500 -14.5000 Du        
   3914 ****        22.7500  10.7500 -14.2500 Du        
   3915 ****        23.0000   1.5000 -11.5000 Du        
   3916 ****        23.0000   1.5000 -11.2500 Du        
   3917 ****        23.0000   1.5000 -11.0000 Du        
   3918 ****        23.0000   1.5000 -10.5000 Du        
   3919 ****        23.0000   1.7500 -11.7500 Du        
   3920 ****        23.0000   1.7500 -11.5000 Du        
   3921 ****        23.0000   1.7500 -11.2500 Du        
   3922 ****        23.0000   1.7500 -11.0000 Du        
   3923 ****        23.0000   1.7500 -10.7500 Du        
   3924 ****        23.0000   1.7500 -10.5000 Du        
   3925 ****        23.0000   1.7500 -10.2500 Du        
   3926 ****        23.0000   2.0000 -11.5000 Du        
   3927 ****        23.0000   2.0000 -11.2500 Du        
   3928 ****        23.0000   2.0000 -11.0000 Du        
   3929 ****        23.0000   2.0000 -10.7500 Du        
   3930 ****        23.0000   2.0000 -10.5000 Du        
   3931 ****        23.0000   2.0000 -10.2500 Du        
   3932 ****        23.0000   2.0000 -10.0000 Du        
   3933 ****        23.0000   2.2500 -11.5000 Du        
   3934 ****        23.0000   2.2500 -11.2500 Du        
   3935 ****        23.0000   2.2500 -11.0000 Du        
   3936 ****        23.0000   2.2500 -10.7500 Du        
   3937 ****        23.0000   2.2500 -10.5000 Du        
   3938 ****        23.0000   2.2500 -10.2500 Du        
   3939 ****        23.0000   2.2500 -10.0000 Du        
   3940 ****        23.0000   2.5000 -11.2500 Du        
   3941 ****        23.0000   2.5000 -11.0000 Du        
   3942 ****        23.0000   2.5000 -10.7500 Du        
   3943 ****        23.0000   2.5000 -10.5000 Du        
   3944 ****        23.0000   2.5000 -10.2500 Du        
   3945 ****        23.0000   2.5000 -10.0000 Du        
   3946 ****        23.0000   2.7500 -11.0000 Du        
   3947 ****        23.0000   2.7500 -10.7500 Du        
   3948 ****        23.0000   2.7500 -10.5000 Du        
   3949 ****        23.0000   2.7500 -10.2500 Du        
   3950 ****        23.0000   2.7500 -10.0000 Du        
   3951 ****        23.0000   3.0000 -10.5000 Du        
   3952 ****        23.0000   3.0000 -10.2500 Du        
   3953 ****        23.0000  10.2500 -15.0000 Du        
   3954 ****        23.0000  10.2500 -14.7500 Du        
   3955 ****        23.0000  10.5000 -15.0000 Du        
   3956 ****        23.0000  10.5000 -14.7500 Du        
   3957 ****        23.0000  10.5000 -14.5000 Du        
   3958 ****        23.0000  10.5000 -14.2500 Du        
   3959 ****        23.0000  10.7500 -15.2500 Du        
   3960 ****        23.0000  10.7500 -15.0000 Du        
   3961 ****        23.0000  10.7500 -14.7500 Du        
   3962 ****        23.0000  10.7500 -14.5000 Du        
   3963 ****        23.0000  10.7500 -14.2500 Du        
   3964 ****        23.2500   1.7500 -11.5000 Du        
   3965 ****        23.2500   1.7500 -11.2500 Du        
   3966 ****        23.2500   1.7500 -11.0000 Du        
   3967 ****        23.2500   2.0000 -11.5000 Du        
   3968 ****        23.2500   2.0000 -11.2500 Du        
   3969 ****        23.2500   2.0000 -11.0000 Du        
   3970 ****        23.2500   2.0000 -10.7500 Du        
   3971 ****        23.2500   2.0000 -10.5000 Du        
   3972 ****        23.2500   2.2500 -11.2500 Du        
   3973 ****        23.2500   2.2500 -11.0000 Du        
   3974 ****        23.2500   2.2500 -10.7500 Du        
   3975 ****        23.2500   2.2500 -10.5000 Du        
   3976 ****        23.2500   2.5000 -11.0000 Du        
   3977 ****        23.2500   2.5000 -10.7500 Du        
   3978 ****        23.2500   2.5000 -10.5000 Du        
   3979 ****        23.2500   2.5000 -10.2500 Du        
   3980 ****        23.2500   2.7500 -10.5000 Du        
   3981 ****        23.2500  10.2500 -15.0000 Du        
   3982 ****        23.2500  10.5000 -15.2500 Du        
   3983 ****        23.2500  10.5000 -15.0000 Du        
   3984 ****        23.2500  10.5000 -14.7500 Du        
   3985 ****        23.2500  10.5000 -14.5000 Du        
   3986 ****        23.2500  10.7500 -15.2500 Du        
   3987 ****        23.2500  10.7500 -15.0000 Du        
   3988 ****        23.2500  10.7500 -14.7500 Du        
   3989 ****        23.2500  10.7500 -14.5000 Du        
   3990 ****        23.2500  11.0000 -15.0000 Du        
   3991 ****        23.2500  11.0000 -14.7500 Du        
   3992 ****        23.2500  11.0000 -14.5000 Du        
   3993 ****        23.5000   2.0000 -11.5000 Du        
   3994 ****        23.5000   2.0000 -11.2500 Du        
   3995 ****        23.5000  10.5000 -15.2500 Du        
   3996 ****        23.5000  10.5000 -15.0000 Du        
   3997 ****        23.5000  10.5000 -14.7500 Du        
   3998 ****        23.5000  10.7500 -15.2500 Du        
   3999 ****        23.5000  10.7500 -15.0000 Du        
   4000 ****        23.5000  10.7500 -14.7500 Du        
   4001 ****        23.5000  10.7500 -14.5000 Du        
   4002 ****        23.5000  11.0000 -15.0000 Du        
   4003 ****        23.5000  11.0000 -14.7500 Du        
   4004 ****        23.7500  10.7500 -14.7500 Du        
   4005 ****        23.7500  11.0000 -14.7500 Du        
