#       Name:                CT1002167954
#       Creating user name   hitesit
#       Creation time:       Sun Apr 16 02:21:15 2023


#       File generated by GOLD software.
#

@<TRIPOS>MOLECULE
CT1002167954|ligand_prepared|mol2|1|dock6
    29    30     1
SMALL
NO_CHARGES


@<TRIPOS>ATOM
      1 C1          17.3894   3.8595  -6.1412 C.3            1 RES1               0.0000
      2 C2          16.9550   3.9205  -4.6626 C.ar           1 RES1               0.0000
      3 C3          18.1869   2.5684  -6.3005 C.2            1 RES1               0.0000
      4 C4          16.1071   3.9044  -6.9648 C.2            1 RES1               0.0000
      5 C5          18.2807   5.0447  -6.5799 C.3            1 RES1               0.0000
      6 C6          16.9390   2.7694  -3.8806 C.ar           1 RES1               0.0000
      7 C7          16.5707   5.1188  -4.0668 C.ar           1 RES1               0.0000
      8 N8          17.5889   1.5333  -6.9568 N.am           1 RES1               0.0000
      9 O9          19.3083   2.4470  -5.8230 O.2            1 RES1               0.0000
     10 N10         15.7785   2.7970  -7.7020 N.am           1 RES1               0.0000
     11 O11         15.3698   4.8824  -6.9689 O.2            1 RES1               0.0000
     12 C12         18.9275   4.8539  -7.9428 C.3            1 RES1               0.0000
     13 C13         16.5556   2.8150  -2.5505 C.ar           1 RES1               0.0000
     14 C14         16.1874   5.1621  -2.7365 C.ar           1 RES1               0.0000
     15 C15         16.4453   1.6022  -7.7113 C.2            1 RES1               0.0000
     16 C16         16.1800   4.0113  -1.9774 C.ar           1 RES1               0.0000
     17 O17         16.0573   0.6337  -8.3583 O.2            1 RES1               0.0000
     18 H18         17.6703   5.9559  -6.6031 H              1 RES1               0.0000
     19 H19         19.0700   5.1888  -5.8317 H              1 RES1               0.0000
     20 H20         17.2289   1.8184  -4.3150 H              1 RES1               0.0000
     21 H21         16.5677   6.0366  -4.6450 H              1 RES1               0.0000
     22 H22         18.0330   0.6238  -6.8795 H              1 RES1               0.0000
     23 H23         14.9611   2.8702  -8.2994 H              1 RES1               0.0000
     24 H24         19.5416   5.7137  -8.2021 H              1 RES1               0.0000
     25 H25         19.5621   3.9701  -7.9483 H              1 RES1               0.0000
     26 H26         18.1708   4.7326  -8.7152 H              1 RES1               0.0000
     27 H27         16.5502   1.9062  -1.9578 H              1 RES1               0.0000
     28 H28         15.8920   6.1058  -2.2898 H              1 RES1               0.0000
     29 H29         15.8801   4.0468  -0.9353 H              1 RES1               0.0000
@<TRIPOS>BOND
    1    1    2 1     
    2    1    3 1     
    3    1    4 1     
    4    1    5 1     
    5    2    6 ar    
    6    2    7 ar    
    7    3    8 1     
    8    3    9 2     
    9    4   10 1     
   10    4   11 2     
   11    5   12 1     
   12    5   18 1     
   13    5   19 1     
   14    6   13 ar    
   15    6   20 1     
   16    7   14 ar    
   17    7   21 1     
   18    8   15 1     
   19    8   22 1     
   20   10   15 1     
   21   10   23 1     
   22   12   24 1     
   23   12   25 1     
   24   12   26 1     
   25   13   16 ar    
   26   13   27 1     
   27   14   16 ar    
   28   14   28 1     
   29   15   17 2     
   30   16   29 1     
@<TRIPOS>SUBSTRUCTURE
      1 RES1           1
@<TRIPOS>SET
DONOR_HYDROGENS      STATIC     ATOMS    <user>   **** ""
2 22 23
ATOM$RED        STATIC     ATOMS    COLORGROUP SYSTEM
2 22 23
@<TRIPOS>COMMENT
> <Gold.Version>
2022.3.0

> <Gold.Id.Protein>
unknown|4i1b_cavity_clean|pdb

> <Gold.Protein.RotatedTorsions>
[ 1141 1130 1129 1128 ] final    0.92 input   59.98 | X-H torsion
[ 1185 1176 1175 1174 ] final  128.12 input   60.00 | X-H torsion
[ 2005 2000 1999 1996 ] final  -66.58 input   60.00 | X-H torsion
[ 1215 1210 1208 1205 ] final -148.18 input   59.98 | X-H torsion
[ 2175 2168 2166 2163 ] final -147.56 input   59.99 | X-H torsion
[  340  339  338  336 ] final  134.18 input   59.98 | X-H torsion

> <Gold.Protein.ActiveResidues>
 TYR24   GLU25   LEU26   LEU69   LYS74   LYS77   PRO78   THR79   LEU80   GLN81  
 LEU82   TRP120  SER125  MET130  PRO131  VAL132  PHE133  LEU134  GLY136  THR137 
 ASP142 

> <Gold.Protein.RotatedAtoms>
   16.9465   -2.7993    6.5831 H   0  0  0  0  0  0  0  0  0  0  0  0  # atno 340  bound_to 339 
   23.7212   -3.1522   -4.9942 H   0  0  0  0  0  0  0  0  0  0  0  0  # atno 1141 bound_to 1130
   24.4003   -3.3699   -3.4977 H   0  0  0  0  0  0  0  0  0  0  0  0  # atno 1142 bound_to 1130
   22.7518   -3.3299   -3.6621 H   0  0  0  0  0  0  0  0  0  0  0  0  # atno 1143 bound_to 1130
   22.1414    6.9753  -11.6981 H   0  0  0  0  0  0  0  0  0  0  0  0  # atno 1185 bound_to 1176
   22.8832    7.9980  -12.7713 H   0  0  0  0  0  0  0  0  0  0  0  0  # atno 1186 bound_to 1176
   22.4863    6.4572  -13.2349 H   0  0  0  0  0  0  0  0  0  0  0  0  # atno 1187 bound_to 1176
   22.8723    2.9115   -7.4975 H   0  0  0  0  0  0  0  0  0  0  0  0  # atno 1215 bound_to 1210
   12.2551    9.6169  -13.6045 H   0  0  0  0  0  0  0  0  0  0  0  0  # atno 2005 bound_to 2000
   19.9468   14.9936  -16.8944 H   0  0  0  0  0  0  0  0  0  0  0  0  # atno 2175 bound_to 2168
   11.6793    8.2211  -12.9977 LP  0  0  0  0  0  0  0  0  0  0  0  0  # atno 2424 bound_to 2000
   12.3315    9.3398  -12.0028 LP  0  0  0  0  0  0  0  0  0  0  0  0  # atno 2425 bound_to 2000
   24.2753    3.7348   -7.5369 LP  0  0  0  0  0  0  0  0  0  0  0  0  # atno 2432 bound_to 1210
   22.8881    4.4569   -8.0067 LP  0  0  0  0  0  0  0  0  0  0  0  0  # atno 2433 bound_to 1210
   20.2749   16.5804  -17.0473 LP  0  0  0  0  0  0  0  0  0  0  0  0  # atno 2440 bound_to 2168
   19.5118   16.0265  -15.7141 LP  0  0  0  0  0  0  0  0  0  0  0  0  # atno 2441 bound_to 2168
   15.7827   -3.8853    6.2448 LP  0  0  0  0  0  0  0  0  0  0  0  0  # atno 2456 bound_to 339 
   15.4049   -2.4881    7.0010 LP  0  0  0  0  0  0  0  0  0  0  0  0  # atno 2457 bound_to 339 

> <Gold.Score>
     Fitness  S(hb_ext) S(vdw_ext)  S(hb_int)    S(int)      intcor
     30.78       0.00      23.31       0.00      -1.27      -0.76

> <Gold.Goldscore.Fitness>
30.7843

> <Gold.Goldscore.Internal.Vdw>
-1.4565

> <Gold.Goldscore.Internal.Torsion>
-0.5678

> <Gold.Goldscore.External.Vdw>
23.3098

> <Gold.Goldscore.Internal.HBond>
0.0000

> <Gold.Goldscore.External.HBond>
0.0000

> <Gold.Goldscore.Internal.Correction>
-0.7576

> <Gold.Goldscore.Internal.Vdw.Weighted>
-1.4565

> <Gold.Goldscore.Internal.Torsion.Weighted>
-0.5678

> <Gold.Goldscore.External.Vdw.Weighted>
32.0510

> <Gold.Goldscore.Internal.HBond.Weighted>
0.0000

> <Gold.Goldscore.External.HBond.Weighted>
0.0000

> <Gold.Goldscore.Internal.Correction.Weighted>
-0.7576

> <Gold.Rescore>
     Score     S(PLP)   S(hbond)     S(cho)   S(metal)  DE(clash)   DE(tors)     intcor
     22.27     -24.67       0.00       0.00       0.00       1.80       0.30       ----

> <Gold.PLP.Fitness>
22.2683

> <Gold.PLP.PLP>
-24.6735

> <Gold.PLP.part.hbond>
0.0000

> <Gold.PLP.part.metal>
0.0000

> <Gold.PLP.part.buried>
2.2526

> <Gold.PLP.part.nonpolar>
-28.2205

> <Gold.PLP.part.repulsive>
0.9201

> <Gold.PLP.ligand.clash>
1.8039

> <Gold.PLP.ligand.torsion>
0.3006

> <Gold.PLP.Chemscore.Hbond>
0.0000

> <Gold.PLP.Chemscore.CHOScore>
0.0000

> <Gold.PLP.Chemscore.Metal>
0.0000

> <Gold.PLP.Chemscore.Internal.Correction>
   9.000000E+99

