#       Name:                CT1002167954
#       Creating user name   hitesit
#       Creation time:       Sun Apr 16 02:21:19 2023


#       File generated by GOLD software.
#

@<TRIPOS>MOLECULE
CT1002167954|ligand_prepared|mol2|1|dock10
    29    30     1
SMALL
NO_CHARGES


@<TRIPOS>ATOM
      1 C1          19.7856   5.1441  -9.5504 C.3            1 RES1               0.0000
      2 C2          18.4866   4.8638  -8.7676 C.ar           1 RES1               0.0000
      3 C3          19.4595   4.9040 -11.0216 C.2            1 RES1               0.0000
      4 C4          20.1771   6.5816  -9.2266 C.2            1 RES1               0.0000
      5 C5          20.9651   4.2264  -9.1527 C.3            1 RES1               0.0000
      6 C6          18.4867   4.8504  -7.3760 C.ar           1 RES1               0.0000
      7 C7          17.2819   4.6200  -9.4219 C.ar           1 RES1               0.0000
      8 N8          19.3337   5.9970 -11.8274 N.am           1 RES1               0.0000
      9 O9          19.2765   3.7748 -11.4595 O.2            1 RES1               0.0000
     10 N10         20.1476   7.4997 -10.2434 N.am           1 RES1               0.0000
     11 O11         20.4950   6.9309  -8.0964 O.2            1 RES1               0.0000
     12 C12         22.2433   4.4994  -9.9296 C.3            1 RES1               0.0000
     13 C13         17.3242   4.6052  -6.6642 C.ar           1 RES1               0.0000
     14 C14         16.1206   4.3748  -8.7081 C.ar           1 RES1               0.0000
     15 C15         19.7140   7.2792 -11.5223 C.2            1 RES1               0.0000
     16 C16         16.1404   4.3676  -7.3296 C.ar           1 RES1               0.0000
     17 O17         19.6655   8.1692 -12.3665 O.2            1 RES1               0.0000
     18 H18         21.1679   4.3560  -8.0824 H              1 RES1               0.0000
     19 H19         20.6701   3.1822  -9.3140 H              1 RES1               0.0000
     20 H20         19.4093   5.0328  -6.8351 H              1 RES1               0.0000
     21 H21         17.2428   4.6197 -10.5059 H              1 RES1               0.0000
     22 H22         18.9184   5.8472 -12.7414 H              1 RES1               0.0000
     23 H23         20.4796   8.4342 -10.0268 H              1 RES1               0.0000
     24 H24         23.0387   3.8285  -9.6117 H              1 RES1               0.0000
     25 H25         22.0846   4.3553 -10.9963 H              1 RES1               0.0000
     26 H26         22.5795   5.5221  -9.7721 H              1 RES1               0.0000
     27 H27         17.3454   4.5993  -5.5794 H              1 RES1               0.0000
     28 H28         15.1913   4.1877  -9.2359 H              1 RES1               0.0000
     29 H29         15.2298   4.1759  -6.7717 H              1 RES1               0.0000
@<TRIPOS>BOND
    1    1    2 1     
    2    1    3 1     
    3    1    4 1     
    4    1    5 1     
    5    2    6 ar    
    6    2    7 ar    
    7    3    8 1     
    8    3    9 2     
    9    4   10 1     
   10    4   11 2     
   11    5   12 1     
   12    5   18 1     
   13    5   19 1     
   14    6   13 ar    
   15    6   20 1     
   16    7   14 ar    
   17    7   21 1     
   18    8   15 1     
   19    8   22 1     
   20   10   15 1     
   21   10   23 1     
   22   12   24 1     
   23   12   25 1     
   24   12   26 1     
   25   13   16 ar    
   26   13   27 1     
   27   14   16 ar    
   28   14   28 1     
   29   15   17 2     
   30   16   29 1     
@<TRIPOS>SUBSTRUCTURE
      1 RES1           1
@<TRIPOS>SET
DONOR_HYDROGENS      STATIC     ATOMS    <user>   **** ""
2 22 23
ATOM$RED        STATIC     ATOMS    COLORGROUP SYSTEM
2 22 23
@<TRIPOS>COMMENT
> <Gold.Version>
2022.3.0

> <Gold.Id.Protein>
unknown|4i1b_cavity_clean|pdb

> <Gold.Protein.RotatedTorsions>
[ 1141 1130 1129 1128 ] final  -84.21 input   59.98 | X-H torsion
[ 1185 1176 1175 1174 ] final  -96.38 input   60.00 | X-H torsion
[ 2005 2000 1999 1996 ] final   91.78 input   60.00 | X-H torsion
[ 1215 1210 1208 1205 ] final  169.97 input   59.98 | X-H torsion
[ 2175 2168 2166 2163 ] final  139.77 input   59.99 | X-H torsion
[  340  339  338  336 ] final  127.17 input   59.98 | X-H torsion

> <Gold.Protein.ActiveResidues>
 TYR24   GLU25   LEU26   LEU69   LYS74   LYS77   PRO78   THR79   LEU80   GLN81  
 LEU82   TRP120  SER125  MET130  PRO131  VAL132  PHE133  LEU134  GLY136  THR137 
 ASP142 

> <Gold.Protein.RotatedAtoms>
   16.9662   -2.8990    6.5304 H   0  0  0  0  0  0  0  0  0  0  0  0  # atno 340  bound_to 339 
   22.6840   -3.2497   -4.2252 H   0  0  0  0  0  0  0  0  0  0  0  0  # atno 1141 bound_to 1130
   24.2484   -3.1892   -4.7704 H   0  0  0  0  0  0  0  0  0  0  0  0  # atno 1142 bound_to 1130
   23.9406   -3.4132   -3.1575 H   0  0  0  0  0  0  0  0  0  0  0  0  # atno 1143 bound_to 1130
   22.9235    7.8869  -13.0005 H   0  0  0  0  0  0  0  0  0  0  0  0  # atno 1185 bound_to 1176
   22.3719    6.3244  -13.0446 H   0  0  0  0  0  0  0  0  0  0  0  0  # atno 1186 bound_to 1176
   22.2152    7.2190  -11.6584 H   0  0  0  0  0  0  0  0  0  0  0  0  # atno 1187 bound_to 1176
   23.5231    2.8363   -7.3641 H   0  0  0  0  0  0  0  0  0  0  0  0  # atno 1215 bound_to 1210
   12.0698    8.7812  -11.9767 H   0  0  0  0  0  0  0  0  0  0  0  0  # atno 2005 bound_to 2000
   20.3407   15.9085  -17.3839 H   0  0  0  0  0  0  0  0  0  0  0  0  # atno 2175 bound_to 2168
   12.4557    9.8998  -13.0937 LP  0  0  0  0  0  0  0  0  0  0  0  0  # atno 2424 bound_to 2000
   11.7417    8.5026  -13.5461 LP  0  0  0  0  0  0  0  0  0  0  0  0  # atno 2425 bound_to 2000
   24.0451    4.3233   -7.7694 LP  0  0  0  0  0  0  0  0  0  0  0  0  # atno 2432 bound_to 1210
   22.4629    3.9441   -7.9087 LP  0  0  0  0  0  0  0  0  0  0  0  0  # atno 2433 bound_to 1210
   19.7804   16.6504  -16.0479 LP  0  0  0  0  0  0  0  0  0  0  0  0  # atno 2440 bound_to 2168
   19.6098   15.0356  -16.2207 LP  0  0  0  0  0  0  0  0  0  0  0  0  # atno 2441 bound_to 2168
   15.6756   -3.8572    6.2768 LP  0  0  0  0  0  0  0  0  0  0  0  0  # atno 2456 bound_to 339 
   15.4922   -2.4158    7.0220 LP  0  0  0  0  0  0  0  0  0  0  0  0  # atno 2457 bound_to 339 

> <Gold.Score>
     Fitness  S(hb_ext) S(vdw_ext)  S(hb_int)    S(int)      intcor
     33.04       1.50      24.35       0.00      -1.94      -0.76

> <Gold.Goldscore.Fitness>
33.0402

> <Gold.Goldscore.Internal.Vdw>
-2.3308

> <Gold.Goldscore.Internal.Torsion>
-0.3678

> <Gold.Goldscore.External.Vdw>
24.3490

> <Gold.Goldscore.Internal.HBond>
0.0000

> <Gold.Goldscore.External.HBond>
1.5014

> <Gold.Goldscore.Internal.Correction>
-0.7576

> <Gold.Goldscore.Hbonds>
donor molecule, donor type, donor heavy atom, donor atom, acceptor molecule, acceptor atom, score
      P1  H  1218  1226       L1    11  0.13
      P1  H  2129  2137       L1    11  0.05
      L1  H    10    23       P1  2132  0.58

> <Gold.Goldscore.Internal.Vdw.Weighted>
-2.3308

> <Gold.Goldscore.Internal.Torsion.Weighted>
-0.3678

> <Gold.Goldscore.External.Vdw.Weighted>
33.4799

> <Gold.Goldscore.Internal.HBond.Weighted>
0.0000

> <Gold.Goldscore.External.HBond.Weighted>
1.5014

> <Gold.Goldscore.Internal.Correction.Weighted>
-0.7576

> <Gold.Rescore>
     Score     S(PLP)   S(hbond)     S(cho)   S(metal)  DE(clash)   DE(tors)     intcor
     34.16     -32.57       1.00       0.00       0.00       1.34       0.04       ----

> <Gold.PLP.Fitness>
34.1582

> <Gold.PLP.PLP>
-32.5705

> <Gold.PLP.part.hbond>
-1.1263

> <Gold.PLP.part.metal>
0.0000

> <Gold.PLP.part.buried>
-4.5478

> <Gold.PLP.part.nonpolar>
-27.8659

> <Gold.PLP.part.repulsive>
0.8166

> <Gold.PLP.ligand.clash>
1.3380

> <Gold.PLP.ligand.torsion>
0.0371

> <Gold.PLP.Chemscore.Hbond>
1.0000

> <Gold.PLP.Chemscore.CHOScore>
0.0000

> <Gold.PLP.Chemscore.Metal>
0.0000

> <Gold.Chemscore.Hbonds>
donor molecule, donor type, donor heavy atom, donor atom, acceptor molecule, acceptor atom, score
      L1  H    10    23       P1  2132  0.55
      P1  H  2129  2137       L1    11  0.51

> <Gold.PLP.Chemscore.Internal.Correction>
   9.000000E+99

