#       Name:                CT1002167954
#       Creating user name   hitesit
#       Creation time:       Sun Apr 16 02:21:18 2023


#       File generated by GOLD software.
#

@<TRIPOS>MOLECULE
CT1002167954|ligand_prepared|mol2|1|dock9
    29    30     1
SMALL
NO_CHARGES


@<TRIPOS>ATOM
      1 C1          18.8183   5.3397 -10.6420 C.3            1 RES1               0.0000
      2 C2          17.3961   5.8094 -11.0102 C.ar           1 RES1               0.0000
      3 C3          19.6291   6.6029 -10.3674 C.2            1 RES1               0.0000
      4 C4          18.6654   4.4236  -9.4328 C.2            1 RES1               0.0000
      5 C5          19.5214   4.5386 -11.7624 C.3            1 RES1               0.0000
      6 C6          17.1655   6.5154 -12.1871 C.ar           1 RES1               0.0000
      7 C7          16.3063   5.5424 -10.1857 C.ar           1 RES1               0.0000
      8 N8          19.9317   6.8897  -9.0689 N.am           1 RES1               0.0000
      9 O9          19.9638   7.3567 -11.2729 O.2            1 RES1               0.0000
     10 N10         19.2067   4.8349  -8.2431 N.am           1 RES1               0.0000
     11 O11         18.0665   3.3570  -9.4957 O.2            1 RES1               0.0000
     12 C12         20.8785   3.9832 -11.3600 C.3            1 RES1               0.0000
     13 C13         15.8912   6.9367 -12.5290 C.ar           1 RES1               0.0000
     14 C14         15.0328   5.9648 -10.5295 C.ar           1 RES1               0.0000
     15 C15         19.8062   6.0404  -7.9990 C.2            1 RES1               0.0000
     16 C16         14.8240   6.6613 -11.7008 C.ar           1 RES1               0.0000
     17 O17         20.2199   6.3600  -6.8883 O.2            1 RES1               0.0000
     18 H18         18.8732   3.7054 -12.0608 H              1 RES1               0.0000
     19 H19         19.6516   5.1911 -12.6346 H              1 RES1               0.0000
     20 H20         17.9934   6.7435 -12.8501 H              1 RES1               0.0000
     21 H21         16.4471   4.9969  -9.2588 H              1 RES1               0.0000
     22 H22         20.2837   7.8219  -8.8755 H              1 RES1               0.0000
     23 H23         19.1585   4.1818  -7.4675 H              1 RES1               0.0000
     24 H24         21.3281   3.4302 -12.1820 H              1 RES1               0.0000
     25 H25         21.5569   4.7868 -11.0810 H              1 RES1               0.0000
     26 H26         20.7832   3.3099 -10.5106 H              1 RES1               0.0000
     27 H27         15.7324   7.4857 -13.4513 H              1 RES1               0.0000
     28 H28         14.1959   5.7465  -9.8743 H              1 RES1               0.0000
     29 H29         13.8258   6.9911 -11.9691 H              1 RES1               0.0000
@<TRIPOS>BOND
    1    1    2 1     
    2    1    3 1     
    3    1    4 1     
    4    1    5 1     
    5    2    6 ar    
    6    2    7 ar    
    7    3    8 1     
    8    3    9 2     
    9    4   10 1     
   10    4   11 2     
   11    5   12 1     
   12    5   18 1     
   13    5   19 1     
   14    6   13 ar    
   15    6   20 1     
   16    7   14 ar    
   17    7   21 1     
   18    8   15 1     
   19    8   22 1     
   20   10   15 1     
   21   10   23 1     
   22   12   24 1     
   23   12   25 1     
   24   12   26 1     
   25   13   16 ar    
   26   13   27 1     
   27   14   16 ar    
   28   14   28 1     
   29   15   17 2     
   30   16   29 1     
@<TRIPOS>SUBSTRUCTURE
      1 RES1           1
@<TRIPOS>SET
DONOR_HYDROGENS      STATIC     ATOMS    <user>   **** ""
2 22 23
ATOM$RED        STATIC     ATOMS    COLORGROUP SYSTEM
2 22 23
@<TRIPOS>COMMENT
> <Gold.Version>
2022.3.0

> <Gold.Id.Protein>
unknown|4i1b_cavity_clean|pdb

> <Gold.Protein.RotatedTorsions>
[ 1141 1130 1129 1128 ] final  -64.78 input   59.98 | X-H torsion
[ 1185 1176 1175 1174 ] final  -78.48 input   60.00 | X-H torsion
[ 2005 2000 1999 1996 ] final  136.87 input   60.00 | X-H torsion
[ 1215 1210 1208 1205 ] final -174.81 input   59.98 | X-H torsion
[ 2175 2168 2166 2163 ] final   55.64 input   59.99 | X-H torsion
[  340  339  338  336 ] final  -23.72 input   59.98 | X-H torsion

> <Gold.Protein.ActiveResidues>
 TYR24   GLU25   LEU26   LEU69   LYS74   LYS77   PRO78   THR79   LEU80   GLN81  
 LEU82   TRP120  SER125  MET130  PRO131  VAL132  PHE133  LEU134  GLY136  THR137 
 ASP142 

> <Gold.Protein.RotatedAtoms>
   15.2941   -3.5954    6.4678 H   0  0  0  0  0  0  0  0  0  0  0  0  # atno 340  bound_to 339 
   22.7965   -3.2087   -4.5253 H   0  0  0  0  0  0  0  0  0  0  0  0  # atno 1141 bound_to 1130
   24.4542   -3.2260   -4.5242 H   0  0  0  0  0  0  0  0  0  0  0  0  # atno 1142 bound_to 1130
   23.6222   -3.4174   -3.1039 H   0  0  0  0  0  0  0  0  0  0  0  0  # atno 1143 bound_to 1130
   22.9310    7.6921  -13.2256 H   0  0  0  0  0  0  0  0  0  0  0  0  # atno 1185 bound_to 1176
   22.2527    6.2456  -12.7834 H   0  0  0  0  0  0  0  0  0  0  0  0  # atno 1186 bound_to 1176
   22.3268    7.4927  -11.6944 H   0  0  0  0  0  0  0  0  0  0  0  0  # atno 1187 bound_to 1176
   23.2787    2.8096   -7.3961 H   0  0  0  0  0  0  0  0  0  0  0  0  # atno 1215 bound_to 1210
   11.7851    8.2961  -12.4230 H   0  0  0  0  0  0  0  0  0  0  0  0  # atno 2005 bound_to 2000
   20.0539   16.7906  -16.5384 H   0  0  0  0  0  0  0  0  0  0  0  0  # atno 2175 bound_to 2168
   12.4830    9.7657  -12.3838 LP  0  0  0  0  0  0  0  0  0  0  0  0  # atno 2424 bound_to 2000
   12.0010    9.1252  -13.8065 LP  0  0  0  0  0  0  0  0  0  0  0  0  # atno 2425 bound_to 2000
   24.1815    4.1324   -7.6837 LP  0  0  0  0  0  0  0  0  0  0  0  0  # atno 2432 bound_to 1210
   22.5727    4.1619   -7.9621 LP  0  0  0  0  0  0  0  0  0  0  0  0  # atno 2433 bound_to 1210
   19.4771   15.4437  -15.8295 LP  0  0  0  0  0  0  0  0  0  0  0  0  # atno 2440 bound_to 2168
   20.2019   15.3545  -17.2901 LP  0  0  0  0  0  0  0  0  0  0  0  0  # atno 2441 bound_to 2168
   15.9555   -2.2228    7.0394 LP  0  0  0  0  0  0  0  0  0  0  0  0  # atno 2456 bound_to 339 
   16.8960   -3.3489    6.3225 LP  0  0  0  0  0  0  0  0  0  0  0  0  # atno 2457 bound_to 339 

> <Gold.Score>
     Fitness  S(hb_ext) S(vdw_ext)  S(hb_int)    S(int)      intcor
     31.79       3.79      21.96       0.00      -2.20      -0.76

> <Gold.Goldscore.Fitness>
31.7918

> <Gold.Goldscore.Internal.Vdw>
-2.5587

> <Gold.Goldscore.Internal.Torsion>
-0.3978

> <Gold.Goldscore.External.Vdw>
21.9646

> <Gold.Goldscore.Internal.HBond>
0.0000

> <Gold.Goldscore.External.HBond>
3.7894

> <Gold.Goldscore.Internal.Correction>
-0.7576

> <Gold.Goldscore.Hbonds>
donor molecule, donor type, donor heavy atom, donor atom, acceptor molecule, acceptor atom, score
      P1  H  1218  1226       L1    17  0.92
      P1  H  2129  2137       L1    17  0.63
      L1  H     8    22       P1  2132  0.34

> <Gold.Goldscore.Internal.Vdw.Weighted>
-2.5587

> <Gold.Goldscore.Internal.Torsion.Weighted>
-0.3978

> <Gold.Goldscore.External.Vdw.Weighted>
30.2013

> <Gold.Goldscore.Internal.HBond.Weighted>
0.0000

> <Gold.Goldscore.External.HBond.Weighted>
3.7894

> <Gold.Goldscore.Internal.Correction.Weighted>
-0.7576

> <Gold.Rescore>
     Score     S(PLP)   S(hbond)     S(cho)   S(metal)  DE(clash)   DE(tors)     intcor
     41.31     -33.98       2.99       0.00       0.00       1.38       0.13       ----

> <Gold.PLP.Fitness>
41.3101

> <Gold.PLP.PLP>
-33.9791

> <Gold.PLP.part.hbond>
-3.7444

> <Gold.PLP.part.metal>
0.0000

> <Gold.PLP.part.buried>
-3.0156

> <Gold.PLP.part.nonpolar>
-28.6867

> <Gold.PLP.part.repulsive>
0.4011

> <Gold.PLP.ligand.clash>
1.3825

> <Gold.PLP.ligand.torsion>
0.1301

> <Gold.PLP.Chemscore.Hbond>
2.9913

> <Gold.PLP.Chemscore.CHOScore>
0.0000

> <Gold.PLP.Chemscore.Metal>
0.0000

> <Gold.Chemscore.Hbonds>
donor molecule, donor type, donor heavy atom, donor atom, acceptor molecule, acceptor atom, score
      L1  H     8    22       P1  2132  1.00
      P1  H  1176  1187       L1     9  0.12
      P1  H  1218  1226       L1    17  0.89
      P1  H  2129  2137       L1    17  0.68

> <Gold.PLP.Chemscore.Internal.Correction>
   9.000000E+99

