#       Name:                CT1002167954
#       Creating user name   hitesit
#       Creation time:       Sun Apr 16 02:21:15 2023


#       File generated by GOLD software.
#

@<TRIPOS>MOLECULE
CT1002167954|ligand_prepared|mol2|1|dock5
    29    30     1
SMALL
NO_CHARGES


@<TRIPOS>ATOM
      1 C1          17.4951   1.2449  -4.2220 C.3            1 RES1               0.0000
      2 C2          16.7299   2.5166  -3.8024 C.ar           1 RES1               0.0000
      3 C3          18.9654   1.6415  -4.3174 C.2            1 RES1               0.0000
      4 C4          17.2011   0.1980  -3.1533 C.2            1 RES1               0.0000
      5 C5          17.0516   0.6710  -5.5879 C.3            1 RES1               0.0000
      6 C6          16.7089   2.9244  -2.4720 C.ar           1 RES1               0.0000
      7 C7          16.0438   3.2923  -4.7331 C.ar           1 RES1               0.0000
      8 N8          19.8014   1.2102  -3.3299 N.am           1 RES1               0.0000
      9 O9          19.3774   2.3547  -5.2239 O.2            1 RES1               0.0000
     10 N10         18.2416  -0.2317  -2.3720 N.am           1 RES1               0.0000
     11 O11         16.0745  -0.2464  -2.9697 O.2            1 RES1               0.0000
     12 C12         17.5838  -0.7256  -5.8680 C.3            1 RES1               0.0000
     13 C13         16.0292   4.0679  -2.0863 C.ar           1 RES1               0.0000
     14 C14         15.3644   4.4354  -4.3452 C.ar           1 RES1               0.0000
     15 C15         19.5223   0.2495  -2.3914 C.2            1 RES1               0.0000
     16 C16         15.3569   4.8243  -3.0226 C.ar           1 RES1               0.0000
     17 O17         20.3900  -0.1492  -1.6198 O.2            1 RES1               0.0000
     18 H18         15.9554   0.6442  -5.6205 H              1 RES1               0.0000
     19 H19         17.3943   1.3454  -6.3823 H              1 RES1               0.0000
     20 H20         17.2302   2.3405  -1.7208 H              1 RES1               0.0000
     21 H21         16.0351   3.0050  -5.7790 H              1 RES1               0.0000
     22 H22         20.7189   1.6421  -3.2851 H              1 RES1               0.0000
     23 H23         18.0430  -0.9797  -1.7152 H              1 RES1               0.0000
     24 H24         17.2432  -1.0807  -6.8384 H              1 RES1               0.0000
     25 H25         18.6718  -0.7309  -5.8682 H              1 RES1               0.0000
     26 H26         17.2415  -1.4279  -5.1108 H              1 RES1               0.0000
     27 H27         16.0252   4.3690  -1.0440 H              1 RES1               0.0000
     28 H28         14.8362   5.0273  -5.0854 H              1 RES1               0.0000
     29 H29         14.8248   5.7202  -2.7202 H              1 RES1               0.0000
@<TRIPOS>BOND
    1    1    2 1     
    2    1    3 1     
    3    1    4 1     
    4    1    5 1     
    5    2    6 ar    
    6    2    7 ar    
    7    3    8 1     
    8    3    9 2     
    9    4   10 1     
   10    4   11 2     
   11    5   12 1     
   12    5   18 1     
   13    5   19 1     
   14    6   13 ar    
   15    6   20 1     
   16    7   14 ar    
   17    7   21 1     
   18    8   15 1     
   19    8   22 1     
   20   10   15 1     
   21   10   23 1     
   22   12   24 1     
   23   12   25 1     
   24   12   26 1     
   25   13   16 ar    
   26   13   27 1     
   27   14   16 ar    
   28   14   28 1     
   29   15   17 2     
   30   16   29 1     
@<TRIPOS>SUBSTRUCTURE
      1 RES1           1
@<TRIPOS>SET
DONOR_HYDROGENS      STATIC     ATOMS    <user>   **** ""
2 22 23
ATOM$RED        STATIC     ATOMS    COLORGROUP SYSTEM
2 22 23
@<TRIPOS>COMMENT
> <Gold.Version>
2022.3.0

> <Gold.Id.Protein>
unknown|4i1b_cavity_clean|pdb

> <Gold.Protein.RotatedTorsions>
[ 1141 1130 1129 1128 ] final  102.69 input   59.98 | X-H torsion
[ 1185 1176 1175 1174 ] final  167.99 input   60.00 | X-H torsion
[ 2005 2000 1999 1996 ] final -103.06 input   60.00 | X-H torsion
[ 1215 1210 1208 1205 ] final -118.29 input   59.98 | X-H torsion
[ 2175 2168 2166 2163 ] final  118.36 input   59.99 | X-H torsion
[  340  339  338  336 ] final   94.87 input   59.98 | X-H torsion

> <Gold.Protein.ActiveResidues>
 TYR24   GLU25   LEU26   LEU69   LYS74   LYS77   PRO78   THR79   LEU80   GLN81  
 LEU82   TRP120  SER125  MET130  PRO131  VAL132  PHE133  LEU134  GLY136  THR137 
 ASP142 

> <Gold.Protein.RotatedAtoms>
   16.8801   -3.3649    6.3140 H   0  0  0  0  0  0  0  0  0  0  0  0  # atno 340  bound_to 339 
   24.5370   -3.3334   -3.7663 H   0  0  0  0  0  0  0  0  0  0  0  0  # atno 1141 bound_to 1130
   22.9180   -3.3668   -3.4112 H   0  0  0  0  0  0  0  0  0  0  0  0  # atno 1142 bound_to 1130
   23.4193   -3.1519   -4.9761 H   0  0  0  0  0  0  0  0  0  0  0  0  # atno 1143 bound_to 1130
   22.3728    7.5848  -11.7288 H   0  0  0  0  0  0  0  0  0  0  0  0  # atno 1185 bound_to 1176
   22.9226    7.6074  -13.2925 H   0  0  0  0  0  0  0  0  0  0  0  0  # atno 1186 bound_to 1176
   22.2154    6.2380  -12.6829 H   0  0  0  0  0  0  0  0  0  0  0  0  # atno 1187 bound_to 1176
   22.5387    3.2227   -7.6558 H   0  0  0  0  0  0  0  0  0  0  0  0  # atno 1215 bound_to 1210
   12.0000    9.1268  -13.7997 H   0  0  0  0  0  0  0  0  0  0  0  0  # atno 2005 bound_to 2000
   20.3469   16.2436  -17.2903 H   0  0  0  0  0  0  0  0  0  0  0  0  # atno 2175 bound_to 2168
   11.7848    8.2893  -12.4212 LP  0  0  0  0  0  0  0  0  0  0  0  0  # atno 2424 bound_to 2000
   12.4829    9.7651  -12.3828 LP  0  0  0  0  0  0  0  0  0  0  0  0  # atno 2425 bound_to 2000
   24.1461    3.2835   -7.4098 LP  0  0  0  0  0  0  0  0  0  0  0  0  # atno 2432 bound_to 1210
   23.3533    4.5948   -7.9744 LP  0  0  0  0  0  0  0  0  0  0  0  0  # atno 2433 bound_to 1210
   19.6352   16.4121  -15.8362 LP  0  0  0  0  0  0  0  0  0  0  0  0  # atno 2440 bound_to 2168
   19.7488   14.9366  -16.5266 LP  0  0  0  0  0  0  0  0  0  0  0  0  # atno 2441 bound_to 2168
   15.2762   -3.5843    6.4795 LP  0  0  0  0  0  0  0  0  0  0  0  0  # atno 2456 bound_to 339 
   15.9783   -2.2195    7.0371 LP  0  0  0  0  0  0  0  0  0  0  0  0  # atno 2457 bound_to 339 

> <Gold.Score>
     Fitness  S(hb_ext) S(vdw_ext)  S(hb_int)    S(int)      intcor
     30.06       0.00      21.99       0.00      -0.17      -0.76

> <Gold.Goldscore.Fitness>
30.0593

> <Gold.Goldscore.Internal.Vdw>
-0.3331

> <Gold.Goldscore.Internal.Torsion>
-0.5960

> <Gold.Goldscore.External.Vdw>
21.9860

> <Gold.Goldscore.Internal.HBond>
0.0000

> <Gold.Goldscore.External.HBond>
0.0000

> <Gold.Goldscore.Internal.Correction>
-0.7576

> <Gold.Goldscore.Internal.Vdw.Weighted>
-0.3331

> <Gold.Goldscore.Internal.Torsion.Weighted>
-0.5960

> <Gold.Goldscore.External.Vdw.Weighted>
30.2308

> <Gold.Goldscore.Internal.HBond.Weighted>
0.0000

> <Gold.Goldscore.External.HBond.Weighted>
0.0000

> <Gold.Goldscore.Internal.Correction.Weighted>
-0.7576

> <Gold.Rescore>
     Score     S(PLP)   S(hbond)     S(cho)   S(metal)  DE(clash)   DE(tors)     intcor
     21.05     -23.35       0.00       0.00       0.00       0.00       1.15       ----

> <Gold.PLP.Fitness>
21.0483

> <Gold.PLP.PLP>
-23.3452

> <Gold.PLP.part.hbond>
0.0000

> <Gold.PLP.part.metal>
0.0000

> <Gold.PLP.part.buried>
4.9407

> <Gold.PLP.part.nonpolar>
-31.3534

> <Gold.PLP.part.repulsive>
1.5974

> <Gold.PLP.ligand.clash>
0.0000

> <Gold.PLP.ligand.torsion>
1.1484

> <Gold.PLP.Chemscore.Hbond>
0.0000

> <Gold.PLP.Chemscore.CHOScore>
0.0000

> <Gold.PLP.Chemscore.Metal>
0.0000

> <Gold.PLP.Chemscore.Internal.Correction>
   9.000000E+99

