#       Name:                CT1002167954
#       Creating user name   hitesit
#       Creation time:       Sun Apr 16 02:21:13 2023


#       File generated by GOLD software.
#

@<TRIPOS>MOLECULE
CT1002167954|ligand_prepared|mol2|1|dock3
    29    30     1
SMALL
NO_CHARGES


@<TRIPOS>ATOM
      1 C1          17.3944   3.9301  -6.8985 C.3            1 RES1               0.0000
      2 C2          18.5973   4.4728  -7.6969 C.ar           1 RES1               0.0000
      3 C3          16.3031   3.6271  -7.9210 C.2            1 RES1               0.0000
      4 C4          17.8999   2.7040  -6.1462 C.2            1 RES1               0.0000
      5 C5          16.8315   4.9289  -5.8607 C.3            1 RES1               0.0000
      6 C6          19.1103   3.7607  -8.7769 C.ar           1 RES1               0.0000
      7 C7          19.2017   5.6831  -7.3676 C.ar           1 RES1               0.0000
      8 N8          16.0568   2.3179  -8.2130 N.am           1 RES1               0.0000
      9 O9          15.6953   4.5244  -8.4917 O.2            1 RES1               0.0000
     10 N10         17.3810   1.4824  -6.4873 N.am           1 RES1               0.0000
     11 O11         18.7549   2.7827  -5.2728 O.2            1 RES1               0.0000
     12 C12         15.5841   4.4330  -5.1464 C.3            1 RES1               0.0000
     13 C13         20.1867   4.2424  -9.5033 C.ar           1 RES1               0.0000
     14 C14         20.2782   6.1629  -8.0952 C.ar           1 RES1               0.0000
     15 C15         16.5049   1.2301  -7.5075 C.2            1 RES1               0.0000
     16 C16         20.7710   5.4439  -9.1633 C.ar           1 RES1               0.0000
     17 O17         16.1257   0.0967  -7.7881 O.2            1 RES1               0.0000
     18 H18         17.6073   5.1364  -5.1134 H              1 RES1               0.0000
     19 H19         16.5956   5.8716  -6.3697 H              1 RES1               0.0000
     20 H20         18.6651   2.8120  -9.0577 H              1 RES1               0.0000
     21 H21         18.8315   6.2653  -6.5305 H              1 RES1               0.0000
     22 H22         15.4866   2.1303  -9.0315 H              1 RES1               0.0000
     23 H23         17.6751   0.6875  -5.9287 H              1 RES1               0.0000
     24 H24         15.2307   5.1713  -4.4297 H              1 RES1               0.0000
     25 H25         14.7833   4.2405  -5.8573 H              1 RES1               0.0000
     26 H26         15.7891   3.5096  -4.6085 H              1 RES1               0.0000
     27 H27         20.5717   3.6721 -10.3422 H              1 RES1               0.0000
     28 H28         20.7353   7.1087  -7.8237 H              1 RES1               0.0000
     29 H29         21.6140   5.8213  -9.7327 H              1 RES1               0.0000
@<TRIPOS>BOND
    1    1    2 1     
    2    1    3 1     
    3    1    4 1     
    4    1    5 1     
    5    2    6 ar    
    6    2    7 ar    
    7    3    8 1     
    8    3    9 2     
    9    4   10 1     
   10    4   11 2     
   11    5   12 1     
   12    5   18 1     
   13    5   19 1     
   14    6   13 ar    
   15    6   20 1     
   16    7   14 ar    
   17    7   21 1     
   18    8   15 1     
   19    8   22 1     
   20   10   15 1     
   21   10   23 1     
   22   12   24 1     
   23   12   25 1     
   24   12   26 1     
   25   13   16 ar    
   26   13   27 1     
   27   14   16 ar    
   28   14   28 1     
   29   15   17 2     
   30   16   29 1     
@<TRIPOS>SUBSTRUCTURE
      1 RES1           1
@<TRIPOS>SET
DONOR_HYDROGENS      STATIC     ATOMS    <user>   **** ""
2 22 23
ATOM$RED        STATIC     ATOMS    COLORGROUP SYSTEM
2 22 23
@<TRIPOS>COMMENT
> <Gold.Version>
2022.3.0

> <Gold.Id.Protein>
unknown|4i1b_cavity_clean|pdb

> <Gold.Protein.RotatedTorsions>
[ 1141 1130 1129 1128 ] final  155.96 input   59.98 | X-H torsion
[ 1185 1176 1175 1174 ] final  -61.45 input   60.00 | X-H torsion
[ 2005 2000 1999 1996 ] final -140.76 input   60.00 | X-H torsion
[ 1215 1210 1208 1205 ] final -120.22 input   59.98 | X-H torsion
[ 2175 2168 2166 2163 ] final  -18.33 input   59.99 | X-H torsion
[  340  339  338  336 ] final    6.06 input   59.98 | X-H torsion

> <Gold.Protein.ActiveResidues>
 TYR24   GLU25   LEU26   LEU69   LYS74   LYS77   PRO78   THR79   LEU80   GLN81  
 LEU82   TRP120  SER125  MET130  PRO131  VAL132  PHE133  LEU134  GLY136  THR137 
 ASP142 

> <Gold.Protein.RotatedAtoms>
   15.6614   -3.8449    6.2822 H   0  0  0  0  0  0  0  0  0  0  0  0  # atno 340  bound_to 339 
   23.9387   -3.4130   -3.1563 H   0  0  0  0  0  0  0  0  0  0  0  0  # atno 1141 bound_to 1130
   22.6850   -3.2494   -4.2285 H   0  0  0  0  0  0  0  0  0  0  0  0  # atno 1142 bound_to 1130
   24.2506   -3.1897   -4.7683 H   0  0  0  0  0  0  0  0  0  0  0  0  # atno 1143 bound_to 1130
   22.8998    7.4570  -13.3809 H   0  0  0  0  0  0  0  0  0  0  0  0  # atno 1185 bound_to 1176
   22.1617    6.2514  -12.5150 H   0  0  0  0  0  0  0  0  0  0  0  0  # atno 1186 bound_to 1176
   22.4492    7.7222  -11.8074 H   0  0  0  0  0  0  0  0  0  0  0  0  # atno 1187 bound_to 1176
   22.5544    3.1977   -7.6450 H   0  0  0  0  0  0  0  0  0  0  0  0  # atno 1215 bound_to 1210
   11.7735    8.5957  -13.6190 H   0  0  0  0  0  0  0  0  0  0  0  0  # atno 2005 bound_to 2000
   19.5521   16.1695  -15.7430 H   0  0  0  0  0  0  0  0  0  0  0  0  # atno 2175 bound_to 2168
   12.0184    8.6758  -12.0123 LP  0  0  0  0  0  0  0  0  0  0  0  0  # atno 2424 bound_to 2000
   12.4773    9.9134  -12.9737 LP  0  0  0  0  0  0  0  0  0  0  0  0  # atno 2425 bound_to 2000
   24.1615    3.3104   -7.4161 LP  0  0  0  0  0  0  0  0  0  0  0  0  # atno 2432 bound_to 1210
   23.3221    4.5930   -7.9791 LP  0  0  0  0  0  0  0  0  0  0  0  0  # atno 2433 bound_to 1210
   19.8737   14.9483  -16.7698 LP  0  0  0  0  0  0  0  0  0  0  0  0  # atno 2440 bound_to 2168
   20.3103   16.4751  -17.1504 LP  0  0  0  0  0  0  0  0  0  0  0  0  # atno 2441 bound_to 2168
   15.5067   -2.4053    7.0248 LP  0  0  0  0  0  0  0  0  0  0  0  0  # atno 2456 bound_to 339 
   16.9749   -2.9153    6.5240 LP  0  0  0  0  0  0  0  0  0  0  0  0  # atno 2457 bound_to 339 

> <Gold.Score>
     Fitness  S(hb_ext) S(vdw_ext)  S(hb_int)    S(int)      intcor
     29.43       0.00      21.45       0.00      -0.06      -0.76

> <Gold.Goldscore.Fitness>
29.4338

> <Gold.Goldscore.Internal.Vdw>
-0.4229

> <Gold.Goldscore.Internal.Torsion>
-0.3975

> <Gold.Goldscore.External.Vdw>
21.4520

> <Gold.Goldscore.Internal.HBond>
0.0000

> <Gold.Goldscore.External.HBond>
0.0000

> <Gold.Goldscore.Internal.Correction>
-0.7576

> <Gold.Goldscore.Internal.Vdw.Weighted>
-0.4229

> <Gold.Goldscore.Internal.Torsion.Weighted>
-0.3975

> <Gold.Goldscore.External.Vdw.Weighted>
29.4965

> <Gold.Goldscore.Internal.HBond.Weighted>
0.0000

> <Gold.Goldscore.External.HBond.Weighted>
0.0000

> <Gold.Goldscore.Internal.Correction.Weighted>
-0.7576

> <Gold.Rescore>
     Score     S(PLP)   S(hbond)     S(cho)   S(metal)  DE(clash)   DE(tors)     intcor
     28.86     -28.89       0.00       0.00       0.00       0.00       0.02       ----

> <Gold.PLP.Fitness>
28.8628

> <Gold.PLP.PLP>
-28.8932

> <Gold.PLP.part.hbond>
0.0000

> <Gold.PLP.part.metal>
0.0000

> <Gold.PLP.part.buried>
-0.2946

> <Gold.PLP.part.nonpolar>
-29.4746

> <Gold.PLP.part.repulsive>
0.2882

> <Gold.PLP.ligand.clash>
0.0000

> <Gold.PLP.ligand.torsion>
0.0152

> <Gold.PLP.Chemscore.Hbond>
0.0000

> <Gold.PLP.Chemscore.CHOScore>
0.0000

> <Gold.PLP.Chemscore.Metal>
0.0000

> <Gold.PLP.Chemscore.Internal.Correction>
   9.000000E+99

