#       Name:                CT1002167954
#       Creating user name   hitesit
#       Creation time:       Sun Apr 16 02:21:17 2023


#       File generated by GOLD software.
#

@<TRIPOS>MOLECULE
CT1002167954|ligand_prepared|mol2|1|dock8
    29    30     1
SMALL
NO_CHARGES


@<TRIPOS>ATOM
      1 C1          17.4971   3.7785  -5.9028 C.3            1 RES1               0.0000
      2 C2          17.0131   3.7643  -4.4384 C.ar           1 RES1               0.0000
      3 C3          18.6132   2.7423  -5.9952 C.2            1 RES1               0.0000
      4 C4          16.2769   3.4566  -6.7584 C.2            1 RES1               0.0000
      5 C5          18.0561   5.1450  -6.3628 C.3            1 RES1               0.0000
      6 C6          16.2323   4.8029  -3.9400 C.ar           1 RES1               0.0000
      7 C7          17.3366   2.7200  -3.5761 C.ar           1 RES1               0.0000
      8 N8          18.3333   1.5668  -6.6275 N.am           1 RES1               0.0000
      9 O9          19.7102   2.9375  -5.4865 O.2            1 RES1               0.0000
     10 N10         16.2784   2.2809  -7.4624 N.am           1 RES1               0.0000
     11 O11         15.3071   4.2026  -6.8164 O.2            1 RES1               0.0000
     12 C12         18.7563   5.0983  -7.7118 C.3            1 RES1               0.0000
     13 C13         15.7884   4.7964  -2.6280 C.ar           1 RES1               0.0000
     14 C14         16.8919   2.7156  -2.2644 C.ar           1 RES1               0.0000
     15 C15         17.2381   1.3070  -7.4116 C.2            1 RES1               0.0000
     16 C16         16.1174   3.7527  -1.7896 C.ar           1 RES1               0.0000
     17 O17         17.1426   0.2519  -8.0319 O.2            1 RES1               0.0000
     18 H18         17.2295   5.8640  -6.4187 H              1 RES1               0.0000
     19 H19         18.7658   5.5080  -5.6091 H              1 RES1               0.0000
     20 H20         15.9653   5.6339  -4.5843 H              1 RES1               0.0000
     21 H21         17.9456   1.8941  -3.9276 H              1 RES1               0.0000
     22 H22         18.9999   0.8110  -6.5061 H              1 RES1               0.0000
     23 H23         15.4911   2.1166  -8.0817 H              1 RES1               0.0000
     24 H24         19.1294   6.0826  -7.9870 H              1 RES1               0.0000
     25 H25         19.5997   4.4115  -7.6850 H              1 RES1               0.0000
     26 H26         18.0725   4.7653  -8.4899 H              1 RES1               0.0000
     27 H27         15.1803   5.6156  -2.2588 H              1 RES1               0.0000
     28 H28         17.1538   1.8925  -1.6079 H              1 RES1               0.0000
     29 H29         15.7693   3.7476  -0.7620 H              1 RES1               0.0000
@<TRIPOS>BOND
    1    1    2 1     
    2    1    3 1     
    3    1    4 1     
    4    1    5 1     
    5    2    6 ar    
    6    2    7 ar    
    7    3    8 1     
    8    3    9 2     
    9    4   10 1     
   10    4   11 2     
   11    5   12 1     
   12    5   18 1     
   13    5   19 1     
   14    6   13 ar    
   15    6   20 1     
   16    7   14 ar    
   17    7   21 1     
   18    8   15 1     
   19    8   22 1     
   20   10   15 1     
   21   10   23 1     
   22   12   24 1     
   23   12   25 1     
   24   12   26 1     
   25   13   16 ar    
   26   13   27 1     
   27   14   16 ar    
   28   14   28 1     
   29   15   17 2     
   30   16   29 1     
@<TRIPOS>SUBSTRUCTURE
      1 RES1           1
@<TRIPOS>SET
DONOR_HYDROGENS      STATIC     ATOMS    <user>   **** ""
2 22 23
ATOM$RED        STATIC     ATOMS    COLORGROUP SYSTEM
2 22 23
@<TRIPOS>COMMENT
> <Gold.Version>
2022.3.0

> <Gold.Id.Protein>
unknown|4i1b_cavity_clean|pdb

> <Gold.Protein.RotatedTorsions>
[ 1141 1130 1129 1128 ] final -145.23 input   59.98 | X-H torsion
[ 1185 1176 1175 1174 ] final -133.81 input   60.00 | X-H torsion
[ 2005 2000 1999 1996 ] final   10.13 input   60.00 | X-H torsion
[ 1215 1210 1208 1205 ] final -165.25 input   59.98 | X-H torsion
[ 2175 2168 2166 2163 ] final  133.57 input   59.99 | X-H torsion
[  340  339  338  336 ] final   68.50 input   59.98 | X-H torsion

> <Gold.Protein.ActiveResidues>
 TYR24   GLU25   LEU26   LEU69   LYS74   LYS77   PRO78   THR79   LEU80   GLN81  
 LEU82   TRP120  SER125  MET130  PRO131  VAL132  PHE133  LEU134  GLY136  THR137 
 ASP142 

> <Gold.Protein.RotatedAtoms>
   16.6145   -3.6804    6.2026 H   0  0  0  0  0  0  0  0  0  0  0  0  # atno 340  bound_to 339 
   23.0139   -3.3804   -3.3204 H   0  0  0  0  0  0  0  0  0  0  0  0  # atno 1141 bound_to 1130
   23.2922   -3.1556   -4.9391 H   0  0  0  0  0  0  0  0  0  0  0  0  # atno 1142 bound_to 1130
   24.5675   -3.3161   -3.8932 H   0  0  0  0  0  0  0  0  0  0  0  0  # atno 1143 bound_to 1130
   22.7821    8.0480  -12.4249 H   0  0  0  0  0  0  0  0  0  0  0  0  # atno 1185 bound_to 1176
   22.6471    6.7272  -13.4174 H   0  0  0  0  0  0  0  0  0  0  0  0  # atno 1186 bound_to 1176
   22.0813    6.6550  -11.8614 H   0  0  0  0  0  0  0  0  0  0  0  0  # atno 1187 bound_to 1176
   23.1264    2.8247   -7.4265 H   0  0  0  0  0  0  0  0  0  0  0  0  # atno 1215 bound_to 1210
   12.4900    9.8131  -12.4835 H   0  0  0  0  0  0  0  0  0  0  0  0  # atno 2005 bound_to 2000
   20.3488   16.0083  -17.3683 H   0  0  0  0  0  0  0  0  0  0  0  0  # atno 2175 bound_to 2168
   11.9544    9.0248  -13.8025 LP  0  0  0  0  0  0  0  0  0  0  0  0  # atno 2424 bound_to 2000
   11.8199    8.3385  -12.3269 LP  0  0  0  0  0  0  0  0  0  0  0  0  # atno 2425 bound_to 2000
   24.2375    3.9961   -7.6294 LP  0  0  0  0  0  0  0  0  0  0  0  0  # atno 2432 bound_to 1210
   22.6700    4.2830   -7.9858 LP  0  0  0  0  0  0  0  0  0  0  0  0  # atno 2433 bound_to 1210
   19.7356   16.5914  -15.9779 LP  0  0  0  0  0  0  0  0  0  0  0  0  # atno 2440 bound_to 2168
   19.6465   14.9942  -16.3064 LP  0  0  0  0  0  0  0  0  0  0  0  0  # atno 2441 bound_to 2168
   15.1235   -3.2349    6.6785 LP  0  0  0  0  0  0  0  0  0  0  0  0  # atno 2456 bound_to 339 
   16.3984   -2.2513    6.9504 LP  0  0  0  0  0  0  0  0  0  0  0  0  # atno 2457 bound_to 339 

> <Gold.Score>
     Fitness  S(hb_ext) S(vdw_ext)  S(hb_int)    S(int)      intcor
     31.03       0.00      23.49       0.00      -1.26      -0.76

> <Gold.Goldscore.Fitness>
31.0303

> <Gold.Goldscore.Internal.Vdw>
-1.4797

> <Gold.Goldscore.Internal.Torsion>
-0.5397

> <Gold.Goldscore.External.Vdw>
23.4852

> <Gold.Goldscore.Internal.HBond>
0.0000

> <Gold.Goldscore.External.HBond>
0.0000

> <Gold.Goldscore.Internal.Correction>
-0.7576

> <Gold.Goldscore.Internal.Vdw.Weighted>
-1.4797

> <Gold.Goldscore.Internal.Torsion.Weighted>
-0.5397

> <Gold.Goldscore.External.Vdw.Weighted>
32.2921

> <Gold.Goldscore.Internal.HBond.Weighted>
0.0000

> <Gold.Goldscore.External.HBond.Weighted>
0.0000

> <Gold.Goldscore.Internal.Correction.Weighted>
-0.7576

> <Gold.Rescore>
     Score     S(PLP)   S(hbond)     S(cho)   S(metal)  DE(clash)   DE(tors)     intcor
     23.08     -24.74       0.00       0.00       0.00       1.13       0.27       ----

> <Gold.PLP.Fitness>
23.0805

> <Gold.PLP.PLP>
-24.7444

> <Gold.PLP.part.hbond>
0.0000

> <Gold.PLP.part.metal>
0.0000

> <Gold.PLP.part.buried>
-0.2966

> <Gold.PLP.part.nonpolar>
-25.8285

> <Gold.PLP.part.repulsive>
0.1957

> <Gold.PLP.ligand.clash>
1.1252

> <Gold.PLP.ligand.torsion>
0.2694

> <Gold.PLP.Chemscore.Hbond>
0.0000

> <Gold.PLP.Chemscore.CHOScore>
0.0000

> <Gold.PLP.Chemscore.Metal>
0.0000

> <Gold.PLP.Chemscore.Internal.Correction>
   9.000000E+99

