#       Name:                CT1002167954
#       Creating user name   hitesit
#       Creation time:       Sun Apr 16 02:21:11 2023


#       File generated by GOLD software.
#

@<TRIPOS>MOLECULE
CT1002167954|ligand_prepared|mol2|1|dock1
    29    30     1
SMALL
NO_CHARGES


@<TRIPOS>ATOM
      1 C1          18.8300   5.3494 -10.6866 C.3            1 RES1               0.0000
      2 C2          17.4131   5.8101 -11.0852 C.ar           1 RES1               0.0000
      3 C3          19.6430   6.6190 -10.4511 C.2            1 RES1               0.0000
      4 C4          18.6623   4.4790  -9.4460 C.2            1 RES1               0.0000
      5 C5          19.5405   4.5051 -11.7700 C.3            1 RES1               0.0000
      6 C6          17.1886   6.4320 -12.3098 C.ar           1 RES1               0.0000
      7 C7          16.3222   5.6181 -10.2417 C.ar           1 RES1               0.0000
      8 N8          19.9345   6.9525  -9.1612 N.am           1 RES1               0.0000
      9 O9          19.9890   7.3378 -11.3805 O.2            1 RES1               0.0000
     10 N10         19.1941   4.9320  -8.2671 N.am           1 RES1               0.0000
     11 O11         18.0600   3.4129  -9.4752 O.2            1 RES1               0.0000
     12 C12         20.9303   4.0365 -11.3687 C.3            1 RES1               0.0000
     13 C13         15.9190   6.8443 -12.6791 C.ar           1 RES1               0.0000
     14 C14         15.0534   6.0315 -10.6128 C.ar           1 RES1               0.0000
     15 C15         19.7959   6.1436  -8.0620 C.2            1 RES1               0.0000
     16 C16         14.8506   6.6440 -11.8312 C.ar           1 RES1               0.0000
     17 O17         20.2004   6.5026  -6.9599 O.2            1 RES1               0.0000
     18 H18         18.9229   3.6268 -11.9946 H              1 RES1               0.0000
     19 H19         19.6204   5.1022 -12.6869 H              1 RES1               0.0000
     20 H20         18.0176   6.6003 -12.9891 H              1 RES1               0.0000
     21 H21         16.4583   5.1394  -9.2779 H              1 RES1               0.0000
     22 H22         20.2883   7.8899  -8.9989 H              1 RES1               0.0000
     23 H23         19.1361   4.3081  -7.4685 H              1 RES1               0.0000
     24 H24         21.3839   3.4489 -12.1641 H              1 RES1               0.0000
     25 H25         21.5790   4.8853 -11.1623 H              1 RES1               0.0000
     26 H26         20.8856   3.4187 -10.4742 H              1 RES1               0.0000
     27 H27         15.7649   7.3271 -13.6384 H              1 RES1               0.0000
     28 H28         14.2155   5.8723  -9.9421 H              1 RES1               0.0000
     29 H29         13.8560   6.9667 -12.1208 H              1 RES1               0.0000
@<TRIPOS>BOND
    1    1    2 1     
    2    1    3 1     
    3    1    4 1     
    4    1    5 1     
    5    2    6 ar    
    6    2    7 ar    
    7    3    8 1     
    8    3    9 2     
    9    4   10 1     
   10    4   11 2     
   11    5   12 1     
   12    5   18 1     
   13    5   19 1     
   14    6   13 ar    
   15    6   20 1     
   16    7   14 ar    
   17    7   21 1     
   18    8   15 1     
   19    8   22 1     
   20   10   15 1     
   21   10   23 1     
   22   12   24 1     
   23   12   25 1     
   24   12   26 1     
   25   13   16 ar    
   26   13   27 1     
   27   14   16 ar    
   28   14   28 1     
   29   15   17 2     
   30   16   29 1     
@<TRIPOS>SUBSTRUCTURE
      1 RES1           1
@<TRIPOS>SET
DONOR_HYDROGENS      STATIC     ATOMS    <user>   **** ""
2 22 23
ATOM$RED        STATIC     ATOMS    COLORGROUP SYSTEM
2 22 23
@<TRIPOS>COMMENT
> <Gold.Version>
2022.3.0

> <Gold.Id.Protein>
unknown|4i1b_cavity_clean|pdb

> <Gold.Protein.RotatedTorsions>
[ 1141 1130 1129 1128 ] final -151.63 input   59.98 | X-H torsion
[ 1185 1176 1175 1174 ] final   36.75 input   60.00 | X-H torsion
[ 2005 2000 1999 1996 ] final -175.58 input   60.00 | X-H torsion
[ 1215 1210 1208 1205 ] final    6.39 input   59.98 | X-H torsion
[ 2175 2168 2166 2163 ] final  124.69 input   59.99 | X-H torsion
[  340  339  338  336 ] final  -19.31 input   59.98 | X-H torsion

> <Gold.Protein.ActiveResidues>
 TYR24   GLU25   LEU26   LEU69   LYS74   LYS77   PRO78   THR79   LEU80   GLN81  
 LEU82   TRP120  SER125  MET130  PRO131  VAL132  PHE133  LEU134  GLY136  THR137 
 ASP142 

> <Gold.Protein.RotatedAtoms>
   15.3378   -3.6435    6.4366 H   0  0  0  0  0  0  0  0  0  0  0  0  # atno 340  bound_to 339 
   23.0998   -3.3901   -3.2577 H   0  0  0  0  0  0  0  0  0  0  0  0  # atno 1141 bound_to 1130
   23.1944   -3.1606   -4.8968 H   0  0  0  0  0  0  0  0  0  0  0  0  # atno 1142 bound_to 1130
   24.5795   -3.3015   -3.9982 H   0  0  0  0  0  0  0  0  0  0  0  0  # atno 1143 bound_to 1130
   22.2834    6.2578  -12.8562 H   0  0  0  0  0  0  0  0  0  0  0  0  # atno 1185 bound_to 1176
   22.2950    7.4226  -11.6768 H   0  0  0  0  0  0  0  0  0  0  0  0  # atno 1186 bound_to 1176
   22.9326    7.7507  -13.1709 H   0  0  0  0  0  0  0  0  0  0  0  0  # atno 1187 bound_to 1176
   23.4283    4.5892   -7.9577 H   0  0  0  0  0  0  0  0  0  0  0  0  # atno 1215 bound_to 1210
   11.6795    8.2738  -13.1701 H   0  0  0  0  0  0  0  0  0  0  0  0  # atno 2005 bound_to 2000
   20.3514   16.1480  -17.3294 H   0  0  0  0  0  0  0  0  0  0  0  0  # atno 2175 bound_to 2168
   12.2633    9.1805  -11.9513 LP  0  0  0  0  0  0  0  0  0  0  0  0  # atno 2424 bound_to 2000
   12.3271    9.7328  -13.4868 LP  0  0  0  0  0  0  0  0  0  0  0  0  # atno 2425 bound_to 2000
   22.4987    3.2819   -7.6844 LP  0  0  0  0  0  0  0  0  0  0  0  0  # atno 2432 bound_to 1210
   24.1047    3.2200   -7.3958 LP  0  0  0  0  0  0  0  0  0  0  0  0  # atno 2433 bound_to 1210
   19.6750   16.4921  -15.8896 LP  0  0  0  0  0  0  0  0  0  0  0  0  # atno 2440 bound_to 2168
   19.7044   14.9528  -16.4339 LP  0  0  0  0  0  0  0  0  0  0  0  0  # atno 2441 bound_to 2168
   15.8843   -2.2365    7.0446 LP  0  0  0  0  0  0  0  0  0  0  0  0  # atno 2456 bound_to 339 
   16.9231   -3.2868    6.3487 LP  0  0  0  0  0  0  0  0  0  0  0  0  # atno 2457 bound_to 339 

> <Gold.Score>
     Fitness  S(hb_ext) S(vdw_ext)  S(hb_int)    S(int)      intcor
     32.29       4.13      21.92       0.00      -1.98      -0.78

> <Gold.Goldscore.Fitness>
32.2917

> <Gold.Goldscore.Internal.Vdw>
-2.3928

> <Gold.Goldscore.Internal.Torsion>
-0.3671

> <Gold.Goldscore.External.Vdw>
21.9174

> <Gold.Goldscore.Internal.HBond>
0.0000

> <Gold.Goldscore.External.HBond>
4.1314

> <Gold.Goldscore.Internal.Correction>
-0.7838

> <Gold.Goldscore.Hbonds>
donor molecule, donor type, donor heavy atom, donor atom, acceptor molecule, acceptor atom, score
      P1  H  1218  1226       L1    17  0.96
      P1  H  2129  2137       L1    17  0.62
      L1  H     8    22       P1  2132  0.48

> <Gold.Goldscore.Internal.Vdw.Weighted>
-2.3928

> <Gold.Goldscore.Internal.Torsion.Weighted>
-0.3671

> <Gold.Goldscore.External.Vdw.Weighted>
30.1364

> <Gold.Goldscore.Internal.HBond.Weighted>
0.0000

> <Gold.Goldscore.External.HBond.Weighted>
4.1314

> <Gold.Goldscore.Internal.Correction.Weighted>
-0.7838

> <Gold.Rescore>
     Score     S(PLP)   S(hbond)     S(cho)   S(metal)  DE(clash)   DE(tors)     intcor
     42.60     -32.63       3.85       0.00       0.00       1.41       0.08       ----

> <Gold.PLP.Fitness>
42.5983

> <Gold.PLP.PLP>
-32.6262

> <Gold.PLP.part.hbond>
-4.0000

> <Gold.PLP.part.metal>
0.0000

> <Gold.PLP.part.buried>
-2.5000

> <Gold.PLP.part.nonpolar>
-27.6061

> <Gold.PLP.part.repulsive>
0.4772

> <Gold.PLP.ligand.clash>
1.4150

> <Gold.PLP.ligand.torsion>
0.0785

> <Gold.PLP.Chemscore.Hbond>
3.8480

> <Gold.PLP.Chemscore.CHOScore>
0.0000

> <Gold.PLP.Chemscore.Metal>
0.0000

> <Gold.Chemscore.Hbonds>
donor molecule, donor type, donor heavy atom, donor atom, acceptor molecule, acceptor atom, score
      L1  H     8    22       P1  2132  1.00
      P1  H  1176  1186       L1     9  0.22
      P1  H  1218  1226       L1    17  1.00
      P1  H  2129  2137       L1    17  1.00

> <Gold.PLP.Chemscore.Internal.Correction>
   9.000000E+99

