#       Name:                CT1002167954
#       Creating user name   hitesit
#       Creation time:       Sun Apr 16 02:21:16 2023


#       File generated by GOLD software.
#

@<TRIPOS>MOLECULE
CT1002167954|ligand_prepared|mol2|1|dock7
    29    30     1
SMALL
NO_CHARGES


@<TRIPOS>ATOM
      1 C1          17.0594   1.3895  -3.6098 C.3            1 RES1               0.0000
      2 C2          16.2866   2.7163  -3.4651 C.ar           1 RES1               0.0000
      3 C3          16.1783   0.3104  -2.9874 C.2            1 RES1               0.0000
      4 C4          17.3112   1.2030  -5.1020 C.2            1 RES1               0.0000
      5 C5          18.4280   1.3818  -2.8898 C.3            1 RES1               0.0000
      6 C6          16.2730   3.3999  -2.2529 C.ar           1 RES1               0.0000
      7 C7          15.5860   3.2696  -4.5335 C.ar           1 RES1               0.0000
      8 N8          15.5424  -0.5510  -3.8322 N.am           1 RES1               0.0000
      9 O9          16.0126   0.2409  -1.7758 O.2            1 RES1               0.0000
     10 N10         16.6989   0.1501  -5.7298 N.am           1 RES1               0.0000
     11 O11         18.0209   1.9682  -5.7432 O.2            1 RES1               0.0000
     12 C12         19.2906   0.1753  -3.2252 C.3            1 RES1               0.0000
     13 C13         15.5864   4.5948  -2.1146 C.ar           1 RES1               0.0000
     14 C14         14.8998   4.4646  -4.3930 C.ar           1 RES1               0.0000
     15 C15         15.8015  -0.7174  -5.1689 C.2            1 RES1               0.0000
     16 C16         14.8998   5.1281  -3.1845 C.ar           1 RES1               0.0000
     17 O17         15.2510  -1.6064  -5.8121 O.2            1 RES1               0.0000
     18 H18         18.9749   2.2933  -3.1612 H              1 RES1               0.0000
     19 H19         18.2572   1.4034  -1.8064 H              1 RES1               0.0000
     20 H20         16.8056   2.9943  -1.3992 H              1 RES1               0.0000
     21 H21         15.5712   2.7645  -5.4933 H              1 RES1               0.0000
     22 H22         14.8061  -1.1245  -3.4331 H              1 RES1               0.0000
     23 H23         16.9339  -0.0012  -6.7056 H              1 RES1               0.0000
     24 H24         20.2389   0.2194  -2.6938 H              1 RES1               0.0000
     25 H25         18.7878  -0.7481  -2.9452 H              1 RES1               0.0000
     26 H26         19.5013   0.1365  -4.2920 H              1 RES1               0.0000
     27 H27         15.5884   5.1124  -1.1610 H              1 RES1               0.0000
     28 H28         14.3602   4.8804  -5.2376 H              1 RES1               0.0000
     29 H29         14.3623   6.0644  -3.0760 H              1 RES1               0.0000
@<TRIPOS>BOND
    1    1    2 1     
    2    1    3 1     
    3    1    4 1     
    4    1    5 1     
    5    2    6 ar    
    6    2    7 ar    
    7    3    8 1     
    8    3    9 2     
    9    4   10 1     
   10    4   11 2     
   11    5   12 1     
   12    5   18 1     
   13    5   19 1     
   14    6   13 ar    
   15    6   20 1     
   16    7   14 ar    
   17    7   21 1     
   18    8   15 1     
   19    8   22 1     
   20   10   15 1     
   21   10   23 1     
   22   12   24 1     
   23   12   25 1     
   24   12   26 1     
   25   13   16 ar    
   26   13   27 1     
   27   14   16 ar    
   28   14   28 1     
   29   15   17 2     
   30   16   29 1     
@<TRIPOS>SUBSTRUCTURE
      1 RES1           1
@<TRIPOS>SET
DONOR_HYDROGENS      STATIC     ATOMS    <user>   **** ""
2 22 23
ATOM$RED        STATIC     ATOMS    COLORGROUP SYSTEM
2 22 23
@<TRIPOS>COMMENT
> <Gold.Version>
2022.3.0

> <Gold.Id.Protein>
unknown|4i1b_cavity_clean|pdb

> <Gold.Protein.RotatedTorsions>
[ 1141 1130 1129 1128 ] final  -67.70 input   59.98 | X-H torsion
[ 1185 1176 1175 1174 ] final   52.23 input   60.00 | X-H torsion
[ 2005 2000 1999 1996 ] final  -97.41 input   60.00 | X-H torsion
[ 1215 1210 1208 1205 ] final -134.34 input   59.98 | X-H torsion
[ 2175 2168 2166 2163 ] final -170.28 input   59.99 | X-H torsion
[  340  339  338  336 ] final -113.14 input   59.98 | X-H torsion

> <Gold.Protein.ActiveResidues>
 TYR24   GLU25   LEU26   LEU69   LYS74   LYS77   PRO78   THR79   LEU80   GLN81  
 LEU82   TRP120  SER125  MET130  PRO131  VAL132  PHE133  LEU134  GLY136  THR137 
 ASP142 

> <Gold.Protein.RotatedAtoms>
   15.4997   -2.4160    7.0175 H   0  0  0  0  0  0  0  0  0  0  0  0  # atno 340  bound_to 339 
   22.7731   -3.2144   -4.4828 H   0  0  0  0  0  0  0  0  0  0  0  0  # atno 1141 bound_to 1130
   24.4288   -3.2199   -4.5655 H   0  0  0  0  0  0  0  0  0  0  0  0  # atno 1142 bound_to 1130
   23.6711   -3.4178   -3.1051 H   0  0  0  0  0  0  0  0  0  0  0  0  # atno 1143 bound_to 1130
   22.1932    6.2394  -12.6154 H   0  0  0  0  0  0  0  0  0  0  0  0  # atno 1185 bound_to 1176
   22.4027    7.6424  -11.7576 H   0  0  0  0  0  0  0  0  0  0  0  0  # atno 1186 bound_to 1176
   22.9152    7.5493  -13.3309 H   0  0  0  0  0  0  0  0  0  0  0  0  # atno 1187 bound_to 1176
   22.6957    3.0334   -7.5672 H   0  0  0  0  0  0  0  0  0  0  0  0  # atno 1215 bound_to 1210
   12.0398    9.2097  -13.7931 H   0  0  0  0  0  0  0  0  0  0  0  0  # atno 2005 bound_to 2000
   20.1132   15.1839  -17.1631 H   0  0  0  0  0  0  0  0  0  0  0  0  # atno 2175 bound_to 2168
   11.7589    8.2568  -12.5042 LP  0  0  0  0  0  0  0  0  0  0  0  0  # atno 2424 bound_to 2000
   12.4687    9.7141  -12.3065 LP  0  0  0  0  0  0  0  0  0  0  0  0  # atno 2425 bound_to 2000
   24.2457    3.5194   -7.4709 LP  0  0  0  0  0  0  0  0  0  0  0  0  # atno 2432 bound_to 1210
   23.0955    4.5495   -8.0026 LP  0  0  0  0  0  0  0  0  0  0  0  0  # atno 2433 bound_to 1210
   20.1501   16.7564  -16.7450 LP  0  0  0  0  0  0  0  0  0  0  0  0  # atno 2440 bound_to 2168
   19.4691   15.6590  -15.7458 LP  0  0  0  0  0  0  0  0  0  0  0  0  # atno 2441 bound_to 2168
   16.9736   -2.9037    6.5300 LP  0  0  0  0  0  0  0  0  0  0  0  0  # atno 2456 bound_to 339 
   15.6708   -3.8556    6.2784 LP  0  0  0  0  0  0  0  0  0  0  0  0  # atno 2457 bound_to 339 

> <Gold.Score>
     Fitness  S(hb_ext) S(vdw_ext)  S(hb_int)    S(int)      intcor
     32.16       0.00      24.12       0.00      -1.00      -0.76

> <Gold.Goldscore.Fitness>
32.1597

> <Gold.Goldscore.Internal.Vdw>
-1.2440

> <Gold.Goldscore.Internal.Torsion>
-0.5167

> <Gold.Goldscore.External.Vdw>
24.1184

> <Gold.Goldscore.Internal.HBond>
0.0000

> <Gold.Goldscore.External.HBond>
0.0000

> <Gold.Goldscore.Internal.Correction>
-0.7576

> <Gold.Goldscore.Internal.Vdw.Weighted>
-1.2440

> <Gold.Goldscore.Internal.Torsion.Weighted>
-0.5167

> <Gold.Goldscore.External.Vdw.Weighted>
33.1628

> <Gold.Goldscore.Internal.HBond.Weighted>
0.0000

> <Gold.Goldscore.External.HBond.Weighted>
0.0000

> <Gold.Goldscore.Internal.Correction.Weighted>
-0.7576

> <Gold.Rescore>
     Score     S(PLP)   S(hbond)     S(cho)   S(metal)  DE(clash)   DE(tors)     intcor
     23.54     -25.40       0.00       0.00       0.00       0.30       0.78       ----

> <Gold.PLP.Fitness>
23.5382

> <Gold.PLP.PLP>
-25.4048

> <Gold.PLP.part.hbond>
-0.2271

> <Gold.PLP.part.metal>
0.0000

> <Gold.PLP.part.buried>
6.1720

> <Gold.PLP.part.nonpolar>
-33.2723

> <Gold.PLP.part.repulsive>
1.7257

> <Gold.PLP.ligand.clash>
0.3024

> <Gold.PLP.ligand.torsion>
0.7821

> <Gold.PLP.Chemscore.Hbond>
0.0000

> <Gold.PLP.Chemscore.CHOScore>
0.0000

> <Gold.PLP.Chemscore.Metal>
0.0000

> <Gold.PLP.Chemscore.Internal.Correction>
   9.000000E+99

