#       Name:                CT1002167954
#       Creating user name   hitesit
#       Creation time:       Sun Apr 16 02:21:14 2023


#       File generated by GOLD software.
#

@<TRIPOS>MOLECULE
CT1002167954|ligand_prepared|mol2|1|dock4
    29    30     1
SMALL
NO_CHARGES


@<TRIPOS>ATOM
      1 C1          17.4580   1.0145  -3.7394 C.3            1 RES1               0.0000
      2 C2          16.8558   2.4096  -3.4753 C.ar           1 RES1               0.0000
      3 C3          18.9375   1.2363  -4.0394 C.2            1 RES1               0.0000
      4 C4          17.1944   0.1913  -2.4834 C.2            1 RES1               0.0000
      5 C5          16.8192   0.2750  -4.9381 C.3            1 RES1               0.0000
      6 C6          16.5155   3.2465  -4.5338 C.ar           1 RES1               0.0000
      7 C7          16.6326   2.8717  -2.1809 C.ar           1 RES1               0.0000
      8 N8          19.8369   0.8874  -3.0754 N.am           1 RES1               0.0000
      9 O9          19.3071   1.7462  -5.0900 O.2            1 RES1               0.0000
     10 N10         18.2738  -0.2108  -1.7410 N.am           1 RES1               0.0000
     11 O11         16.0610  -0.0986  -2.1209 O.2            1 RES1               0.0000
     12 C12         17.2287  -1.1854  -5.0463 C.3            1 RES1               0.0000
     13 C13         15.9691   4.4988  -4.3068 C.ar           1 RES1               0.0000
     14 C14         16.0863   4.1245  -1.9561 C.ar           1 RES1               0.0000
     15 C15         19.5812   0.1260  -1.9634 C.2            1 RES1               0.0000
     16 C16         15.7538   4.9385  -3.0180 C.ar           1 RES1               0.0000
     17 O17         20.4910  -0.2294  -1.2196 O.2            1 RES1               0.0000
     18 H18         15.7275   0.3298  -4.8456 H              1 RES1               0.0000
     19 H19         17.1037   0.7909  -5.8635 H              1 RES1               0.0000
     20 H20         16.6799   2.9187  -5.5548 H              1 RES1               0.0000
     21 H21         16.8876   2.2489  -1.3302 H              1 RES1               0.0000
     22 H22         20.7875   1.2237  -3.1921 H              1 RES1               0.0000
     23 H23         18.0851  -0.8174  -0.9494 H              1 RES1               0.0000
     24 H24         16.7527  -1.6569  -5.9035 H              1 RES1               0.0000
     25 H25         18.3064  -1.2761  -5.1647 H              1 RES1               0.0000
     26 H26         16.9384  -1.7345  -4.1529 H              1 RES1               0.0000
     27 H27         15.7104   5.1362  -5.1459 H              1 RES1               0.0000
     28 H28         15.9192   4.4667  -0.9401 H              1 RES1               0.0000
     29 H29         15.3254   5.9194  -2.8404 H              1 RES1               0.0000
@<TRIPOS>BOND
    1    1    2 1     
    2    1    3 1     
    3    1    4 1     
    4    1    5 1     
    5    2    6 ar    
    6    2    7 ar    
    7    3    8 1     
    8    3    9 2     
    9    4   10 1     
   10    4   11 2     
   11    5   12 1     
   12    5   18 1     
   13    5   19 1     
   14    6   13 ar    
   15    6   20 1     
   16    7   14 ar    
   17    7   21 1     
   18    8   15 1     
   19    8   22 1     
   20   10   15 1     
   21   10   23 1     
   22   12   24 1     
   23   12   25 1     
   24   12   26 1     
   25   13   16 ar    
   26   13   27 1     
   27   14   16 ar    
   28   14   28 1     
   29   15   17 2     
   30   16   29 1     
@<TRIPOS>SUBSTRUCTURE
      1 RES1           1
@<TRIPOS>SET
DONOR_HYDROGENS      STATIC     ATOMS    <user>   **** ""
2 22 23
ATOM$RED        STATIC     ATOMS    COLORGROUP SYSTEM
2 22 23
@<TRIPOS>COMMENT
> <Gold.Version>
2022.3.0

> <Gold.Id.Protein>
unknown|4i1b_cavity_clean|pdb

> <Gold.Protein.RotatedTorsions>
[ 1141 1130 1129 1128 ] final   99.52 input   59.98 | X-H torsion
[ 1185 1176 1175 1174 ] final  -70.74 input   60.00 | X-H torsion
[ 2005 2000 1999 1996 ] final -179.43 input   60.00 | X-H torsion
[ 1215 1210 1208 1205 ] final -123.35 input   59.98 | X-H torsion
[ 2175 2168 2166 2163 ] final   58.49 input   59.99 | X-H torsion
[  340  339  338  336 ] final -163.45 input   59.98 | X-H torsion

> <Gold.Protein.ActiveResidues>
 TYR24   GLU25   LEU26   LEU69   LYS74   LYS77   PRO78   THR79   LEU80   GLN81  
 LEU82   TRP120  SER125  MET130  PRO131  VAL132  PHE133  LEU134  GLY136  THR137 
 ASP142 

> <Gold.Protein.RotatedAtoms>
   16.2721   -2.2274    6.9805 H   0  0  0  0  0  0  0  0  0  0  0  0  # atno 340  bound_to 339 
   24.5516   -3.3264   -3.8167 H   0  0  0  0  0  0  0  0  0  0  0  0  # atno 1141 bound_to 1130
   22.9548   -3.3724   -3.3736 H   0  0  0  0  0  0  0  0  0  0  0  0  # atno 1142 bound_to 1130
   23.3679   -3.1532   -4.9634 H   0  0  0  0  0  0  0  0  0  0  0  0  # atno 1143 bound_to 1130
   22.9214    7.5900  -13.3043 H   0  0  0  0  0  0  0  0  0  0  0  0  # atno 1185 bound_to 1176
   22.2081    6.2384  -12.6623 H   0  0  0  0  0  0  0  0  0  0  0  0  # atno 1186 bound_to 1176
   22.3811    7.6021  -11.7367 H   0  0  0  0  0  0  0  0  0  0  0  0  # atno 1187 bound_to 1176
   22.5819    3.1583   -7.6274 H   0  0  0  0  0  0  0  0  0  0  0  0  # atno 1215 bound_to 1210
   11.6780    8.2544  -13.1103 H   0  0  0  0  0  0  0  0  0  0  0  0  # atno 2005 bound_to 2000
   20.0744   16.7869  -16.5801 H   0  0  0  0  0  0  0  0  0  0  0  0  # atno 2175 bound_to 2168
   12.2880    9.2370  -11.9656 LP  0  0  0  0  0  0  0  0  0  0  0  0  # atno 2424 bound_to 2000
   12.3040    9.6959  -13.5326 LP  0  0  0  0  0  0  0  0  0  0  0  0  # atno 2425 bound_to 2000
   24.1847    3.3551   -7.4269 LP  0  0  0  0  0  0  0  0  0  0  0  0  # atno 2432 bound_to 1210
   23.2713    4.5880   -7.9859 LP  0  0  0  0  0  0  0  0  0  0  0  0  # atno 2433 bound_to 1210
   19.4733   15.4857  -15.8089 LP  0  0  0  0  0  0  0  0  0  0  0  0  # atno 2440 bound_to 2168
   20.1850   15.3163  -17.2688 LP  0  0  0  0  0  0  0  0  0  0  0  0  # atno 2441 bound_to 2168
   16.7163   -3.6002    6.2283 LP  0  0  0  0  0  0  0  0  0  0  0  0  # atno 2456 bound_to 339 
   15.1504   -3.3490    6.6174 LP  0  0  0  0  0  0  0  0  0  0  0  0  # atno 2457 bound_to 339 

> <Gold.Score>
     Fitness  S(hb_ext) S(vdw_ext)  S(hb_int)    S(int)      intcor
     29.46       0.00      22.12       0.00      -0.95      -0.76

> <Gold.Goldscore.Fitness>
29.4586

> <Gold.Goldscore.Internal.Vdw>
-1.1741

> <Gold.Goldscore.Internal.Torsion>
-0.5342

> <Gold.Goldscore.External.Vdw>
22.1159

> <Gold.Goldscore.Internal.HBond>
0.0000

> <Gold.Goldscore.External.HBond>
0.0000

> <Gold.Goldscore.Internal.Correction>
-0.7576

> <Gold.Goldscore.Internal.Vdw.Weighted>
-1.1741

> <Gold.Goldscore.Internal.Torsion.Weighted>
-0.5342

> <Gold.Goldscore.External.Vdw.Weighted>
30.4093

> <Gold.Goldscore.Internal.HBond.Weighted>
0.0000

> <Gold.Goldscore.External.HBond.Weighted>
0.0000

> <Gold.Goldscore.Internal.Correction.Weighted>
-0.7576

> <Gold.Rescore>
     Score     S(PLP)   S(hbond)     S(cho)   S(metal)  DE(clash)   DE(tors)     intcor
     20.35     -22.09       0.00       0.00       0.00       0.00       0.87       ----

> <Gold.PLP.Fitness>
20.3500

> <Gold.PLP.PLP>
-22.0906

> <Gold.PLP.part.hbond>
0.0000

> <Gold.PLP.part.metal>
0.0000

> <Gold.PLP.part.buried>
6.6985

> <Gold.PLP.part.nonpolar>
-31.4071

> <Gold.PLP.part.repulsive>
1.7854

> <Gold.PLP.ligand.clash>
0.0000

> <Gold.PLP.ligand.torsion>
0.8703

> <Gold.PLP.Chemscore.Hbond>
0.0000

> <Gold.PLP.Chemscore.CHOScore>
0.0000

> <Gold.PLP.Chemscore.Metal>
0.0000

> <Gold.PLP.Chemscore.Internal.Correction>
   9.000000E+99

