#       Name:                CT1002167954
#       Creating user name   hitesit
#       Creation time:       Sun Apr 16 02:22:23 2023


#       File generated by GOLD software.
#

@<TRIPOS>MOLECULE
CT1002167954|ligand_prepared|mol2|1|dock9
    29    30     1
SMALL
NO_CHARGES


@<TRIPOS>ATOM
      1 C1          40.9032  18.6362  20.0933 C.3            1 RES1               0.0000
      2 C2          40.2268  18.6372  18.7072 C.ar           1 RES1               0.0000
      3 C3          42.0199  17.5986  20.0244 C.2            1 RES1               0.0000
      4 C4          41.3915  20.0609  20.3307 C.2            1 RES1               0.0000
      5 C5          39.9520  18.2578  21.2524 C.3            1 RES1               0.0000
      6 C6          40.9764  18.4318  17.5528 C.ar           1 RES1               0.0000
      7 C7          38.8563  18.8391  18.5674 C.ar           1 RES1               0.0000
      8 N8          43.3032  18.0552  19.9567 N.am           1 RES1               0.0000
      9 O9          41.7761  16.3988  19.9900 O.2            1 RES1               0.0000
     10 N10         42.7434  20.2726  20.4033 N.am           1 RES1               0.0000
     11 O11         40.6183  21.0047  20.4390 O.2            1 RES1               0.0000
     12 C12         40.6647  17.9960  22.5698 C.3            1 RES1               0.0000
     13 C13         40.3773  18.4255  16.3041 C.ar           1 RES1               0.0000
     14 C14         38.2592  18.8326  17.3176 C.ar           1 RES1               0.0000
     15 C15         43.7222  19.3392  20.1964 C.2            1 RES1               0.0000
     16 C16         39.0184  18.6255  16.1856 C.ar           1 RES1               0.0000
     17 O17         44.9176  19.6175  20.2246 O.2            1 RES1               0.0000
     18 H18         39.2303  19.0712  21.3969 H              1 RES1               0.0000
     19 H19         39.3911  17.3583  20.9696 H              1 RES1               0.0000
     20 H20         42.0475  18.2752  17.6261 H              1 RES1               0.0000
     21 H21         38.2394  19.0051  19.4440 H              1 RES1               0.0000
     22 H22         44.0174  17.3794  19.7044 H              1 RES1               0.0000
     23 H23         43.0483  21.2131  20.6330 H              1 RES1               0.0000
     24 H24         39.9516  17.7347  23.3489 H              1 RES1               0.0000
     25 H25         41.3723  17.1757  22.4692 H              1 RES1               0.0000
     26 H26         41.2125  18.8784  22.8940 H              1 RES1               0.0000
     27 H27         40.9795  18.2634  15.4162 H              1 RES1               0.0000
     28 H28         37.1895  18.9910  17.2291 H              1 RES1               0.0000
     29 H29         38.5493  18.6201  15.2073 H              1 RES1               0.0000
@<TRIPOS>BOND
    1    1    2 1     
    2    1    3 1     
    3    1    4 1     
    4    1    5 1     
    5    2    6 ar    
    6    2    7 ar    
    7    3    8 1     
    8    3    9 2     
    9    4   10 1     
   10    4   11 2     
   11    5   12 1     
   12    5   18 1     
   13    5   19 1     
   14    6   13 ar    
   15    6   20 1     
   16    7   14 ar    
   17    7   21 1     
   18    8   15 1     
   19    8   22 1     
   20   10   15 1     
   21   10   23 1     
   22   12   24 1     
   23   12   25 1     
   24   12   26 1     
   25   13   16 ar    
   26   13   27 1     
   27   14   16 ar    
   28   14   28 1     
   29   15   17 2     
   30   16   29 1     
@<TRIPOS>SUBSTRUCTURE
      1 RES1           1
@<TRIPOS>SET
DONOR_HYDROGENS      STATIC     ATOMS    <user>   **** ""
2 22 23
ATOM$RED        STATIC     ATOMS    COLORGROUP SYSTEM
2 22 23
@<TRIPOS>COMMENT
> <Gold.Version>
2022.3.0

> <Gold.Id.Protein>
unknown|7chy_cavity_clean|pdb

> <Gold.Protein.RotatedTorsions>
[ 6606 6597 6596 6594 ] final -171.60 input   60.03 | X-H torsion
[ 6631 6624 6622 6619 ] final -100.15 input   60.01 | X-H torsion
[ 5778 5771 5769 5766 ] final   38.71 input   60.02 | X-H torsion
[ 5700 5689 5688 5687 ] final   61.47 input   59.97 | X-H torsion
[ 5253 5242 5241 5240 ] final  -43.86 input   60.02 | X-H torsion

> <Gold.Protein.ActiveResidues>
 GLU141  LEU142  LYS225  GLN242  LYS254  GLY256  GLN257  ASP258  ILE259  THR260 
 ASP261  TYR49   THR51   ALA52  

> <Gold.Protein.RotatedAtoms>
   47.4087   14.0155   28.3780 H   0  0  0  0  0  0  0  0  0  0  0  0  # atno 5253 bound_to 5242
   48.6945   15.0471   28.5522 H   0  0  0  0  0  0  0  0  0  0  0  0  # atno 5254 bound_to 5242
   48.1575   14.1663   29.8497 H   0  0  0  0  0  0  0  0  0  0  0  0  # atno 5255 bound_to 5242
   38.5039   22.4060   23.7989 H   0  0  0  0  0  0  0  0  0  0  0  0  # atno 5700 bound_to 5689
   37.2195   22.3878   22.7506 H   0  0  0  0  0  0  0  0  0  0  0  0  # atno 5701 bound_to 5689
   38.7556   22.1262   22.1856 H   0  0  0  0  0  0  0  0  0  0  0  0  # atno 5702 bound_to 5689
   44.8374   21.7369   22.2485 H   0  0  0  0  0  0  0  0  0  0  0  0  # atno 5778 bound_to 5771
   49.8538   17.0506    2.2634 H   0  0  0  0  0  0  0  0  0  0  0  0  # atno 6606 bound_to 6597
   43.8486   10.1554   10.9606 H   0  0  0  0  0  0  0  0  0  0  0  0  # atno 6631 bound_to 6624
   48.8661   16.2169    1.2748 LP  0  0  0  0  0  0  0  0  0  0  0  0  # atno 8772 bound_to 6597
   50.4699   16.2745    0.9725 LP  0  0  0  0  0  0  0  0  0  0  0  0  # atno 8773 bound_to 6597
   44.2946   11.7078   11.1602 LP  0  0  0  0  0  0  0  0  0  0  0  0  # atno 8778 bound_to 6624
   45.2696   10.6720   10.3584 LP  0  0  0  0  0  0  0  0  0  0  0  0  # atno 8779 bound_to 6624
   44.4288   21.4932   20.6921 LP  0  0  0  0  0  0  0  0  0  0  0  0  # atno 8782 bound_to 5771
   43.7027   22.6746   21.5543 LP  0  0  0  0  0  0  0  0  0  0  0  0  # atno 8783 bound_to 5771

> <Gold.Score>
     Fitness  S(hb_ext) S(vdw_ext)  S(hb_int)    S(int)      intcor
     24.01       2.42      15.97       0.00      -0.36      -0.76

> <Gold.Goldscore.Fitness>
24.0054

> <Gold.Goldscore.Internal.Vdw>
-0.5587

> <Gold.Goldscore.Internal.Torsion>
-0.5644

> <Gold.Goldscore.External.Vdw>
15.9659

> <Gold.Goldscore.Internal.HBond>
0.0000

> <Gold.Goldscore.External.HBond>
2.4169

> <Gold.Goldscore.Internal.Correction>
-0.7585

> <Gold.Goldscore.Hbonds>
donor molecule, donor type, donor heavy atom, donor atom, acceptor molecule, acceptor atom, score
      P1  H  5765  5772       L1    17  1.00
      L1  H    10    23       P1  5771  0.21

> <Gold.Goldscore.Internal.Vdw.Weighted>
-0.5587

> <Gold.Goldscore.Internal.Torsion.Weighted>
-0.5644

> <Gold.Goldscore.External.Vdw.Weighted>
21.9531

> <Gold.Goldscore.Internal.HBond.Weighted>
0.0000

> <Gold.Goldscore.External.HBond.Weighted>
2.4169

> <Gold.Goldscore.Internal.Correction.Weighted>
-0.7585

> <Gold.Rescore>
     Score     S(PLP)   S(hbond)     S(cho)   S(metal)  DE(clash)   DE(tors)     intcor
     20.06     -14.24       2.72       0.00       0.00       0.00       1.16       ----

> <Gold.PLP.Fitness>
20.0559

> <Gold.PLP.PLP>
-14.2379

> <Gold.PLP.part.hbond>
-5.9500

> <Gold.PLP.part.metal>
0.0000

> <Gold.PLP.part.buried>
-0.7834

> <Gold.PLP.part.nonpolar>
-10.5895

> <Gold.PLP.part.repulsive>
1.6111

> <Gold.PLP.ligand.clash>
0.0000

> <Gold.PLP.ligand.torsion>
1.1636

> <Gold.PLP.Chemscore.Hbond>
2.7151

> <Gold.PLP.Chemscore.CHOScore>
0.0000

> <Gold.PLP.Chemscore.Metal>
0.0000

> <Gold.Chemscore.Hbonds>
donor molecule, donor type, donor heavy atom, donor atom, acceptor molecule, acceptor atom, score
      L1  H    10    23       P1  5771  0.83
      P1  H  5765  5772       L1    17  1.00

> <Gold.PLP.Chemscore.Internal.Correction>
   9.000000E+99

