#       Name:                CT1002167954
#       Creating user name   hitesit
#       Creation time:       Sun Apr 16 02:22:18 2023


#       File generated by GOLD software.
#

@<TRIPOS>MOLECULE
CT1002167954|ligand_prepared|mol2|1|dock1
    29    30     1
SMALL
NO_CHARGES


@<TRIPOS>ATOM
      1 C1          50.5552  18.4027   9.7317 C.3            1 RES1               0.0000
      2 C2          50.9088  19.8934   9.9098 C.ar           1 RES1               0.0000
      3 C3          49.7505  18.0030  10.9650 C.2            1 RES1               0.0000
      4 C4          49.7794  18.3017   8.4231 C.2            1 RES1               0.0000
      5 C5          51.7889  17.4759   9.6286 C.3            1 RES1               0.0000
      6 C6          51.7157  20.5459   8.9826 C.ar           1 RES1               0.0000
      7 C7          50.4343  20.6285  10.9929 C.ar           1 RES1               0.0000
      8 N8          48.4077  17.8208  10.8115 N.am           1 RES1               0.0000
      9 O9          50.2797  17.8880  12.0636 O.2            1 RES1               0.0000
     10 N10         48.4631  17.9259   8.4843 N.am           1 RES1               0.0000
     11 O11         50.2916  18.5603   7.3409 O.2            1 RES1               0.0000
     12 C12         51.4408  16.0181   9.3722 C.3            1 RES1               0.0000
     13 C13         52.0343  21.8856   9.1309 C.ar           1 RES1               0.0000
     14 C14         50.7543  21.9682  11.1395 C.ar           1 RES1               0.0000
     15 C15         47.7337  17.7106   9.6218 C.2            1 RES1               0.0000
     16 C16         51.5536  22.5977  10.2091 C.ar           1 RES1               0.0000
     17 O17         46.5392  17.4286   9.5976 O.2            1 RES1               0.0000
     18 H18         52.4322  17.8337   8.8152 H              1 RES1               0.0000
     19 H19         52.3604  17.5435  10.5625 H              1 RES1               0.0000
     20 H20         52.1053  20.0013   8.1290 H              1 RES1               0.0000
     21 H21         49.8048  20.1537  11.7378 H              1 RES1               0.0000
     22 H22         47.8534  17.7610  11.6597 H              1 RES1               0.0000
     23 H23         47.9824  17.7943   7.6000 H              1 RES1               0.0000
     24 H24         52.3420  15.4118   9.3086 H              1 RES1               0.0000
     25 H25         50.8221  15.6223  10.1749 H              1 RES1               0.0000
     26 H26         50.8935  15.9108   8.4380 H              1 RES1               0.0000
     27 H27         52.6648  22.3761   8.3967 H              1 RES1               0.0000
     28 H28         50.3743  22.5245  11.9899 H              1 RES1               0.0000
     29 H29         51.8030  23.6473  10.3249 H              1 RES1               0.0000
@<TRIPOS>BOND
    1    1    2 1     
    2    1    3 1     
    3    1    4 1     
    4    1    5 1     
    5    2    6 ar    
    6    2    7 ar    
    7    3    8 1     
    8    3    9 2     
    9    4   10 1     
   10    4   11 2     
   11    5   12 1     
   12    5   18 1     
   13    5   19 1     
   14    6   13 ar    
   15    6   20 1     
   16    7   14 ar    
   17    7   21 1     
   18    8   15 1     
   19    8   22 1     
   20   10   15 1     
   21   10   23 1     
   22   12   24 1     
   23   12   25 1     
   24   12   26 1     
   25   13   16 ar    
   26   13   27 1     
   27   14   16 ar    
   28   14   28 1     
   29   15   17 2     
   30   16   29 1     
@<TRIPOS>SUBSTRUCTURE
      1 RES1           1
@<TRIPOS>SET
DONOR_HYDROGENS      STATIC     ATOMS    <user>   **** ""
2 22 23
ATOM$RED        STATIC     ATOMS    COLORGROUP SYSTEM
2 22 23
@<TRIPOS>COMMENT
> <Gold.Version>
2022.3.0

> <Gold.Id.Protein>
unknown|7chy_cavity_clean|pdb

> <Gold.Protein.RotatedTorsions>
[ 6606 6597 6596 6594 ] final  129.62 input   60.03 | X-H torsion
[ 6631 6624 6622 6619 ] final  -63.29 input   60.01 | X-H torsion
[ 5778 5771 5769 5766 ] final  -61.64 input   60.02 | X-H torsion
[ 5700 5689 5688 5687 ] final  -55.42 input   59.97 | X-H torsion
[ 5253 5242 5241 5240 ] final -164.79 input   60.02 | X-H torsion

> <Gold.Protein.ActiveResidues>
 GLU141  LEU142  LYS225  GLN242  LYS254  GLY256  GLN257  ASP258  ILE259  THR260 
 ASP261  TYR49   THR51   ALA52  

> <Gold.Protein.RotatedAtoms>
   48.1697   14.1754   29.8512 H   0  0  0  0  0  0  0  0  0  0  0  0  # atno 5253 bound_to 5242
   47.4038   14.0074   28.3907 H   0  0  0  0  0  0  0  0  0  0  0  0  # atno 5254 bound_to 5242
   48.6874   15.0459   28.5383 H   0  0  0  0  0  0  0  0  0  0  0  0  # atno 5255 bound_to 5242
   38.7943   22.1269   22.2189 H   0  0  0  0  0  0  0  0  0  0  0  0  # atno 5700 bound_to 5689
   38.4546   22.4148   23.8160 H   0  0  0  0  0  0  0  0  0  0  0  0  # atno 5701 bound_to 5689
   37.2293   22.3784   22.7004 H   0  0  0  0  0  0  0  0  0  0  0  0  # atno 5702 bound_to 5689
   44.6431   21.3439   20.8785 H   0  0  0  0  0  0  0  0  0  0  0  0  # atno 5778 bound_to 5771
   49.0081   16.7639    2.0469 H   0  0  0  0  0  0  0  0  0  0  0  0  # atno 6606 bound_to 6597
   44.3081    9.9367   10.6577 H   0  0  0  0  0  0  0  0  0  0  0  0  # atno 6631 bound_to 6624
   49.5862   15.9749    0.7463 LP  0  0  0  0  0  0  0  0  0  0  0  0  # atno 8772 bound_to 6597
   50.6015   16.8052    1.7191 LP  0  0  0  0  0  0  0  0  0  0  0  0  # atno 8773 bound_to 6597
   43.8364   11.3542   11.3033 LP  0  0  0  0  0  0  0  0  0  0  0  0  # atno 8778 bound_to 6624
   45.2653   11.2458   10.5202 LP  0  0  0  0  0  0  0  0  0  0  0  0  # atno 8779 bound_to 6624
   43.6592   22.5867   21.2477 LP  0  0  0  0  0  0  0  0  0  0  0  0  # atno 8782 bound_to 5771
   44.6679   21.9767   22.3777 LP  0  0  0  0  0  0  0  0  0  0  0  0  # atno 8783 bound_to 5771

> <Gold.Score>
     Fitness  S(hb_ext) S(vdw_ext)  S(hb_int)    S(int)      intcor
     32.74       4.52      22.33       0.00      -2.49      -0.78

> <Gold.Goldscore.Fitness>
32.7353

> <Gold.Goldscore.Internal.Vdw>
-2.8898

> <Gold.Goldscore.Internal.Torsion>
-0.3841

> <Gold.Goldscore.External.Vdw>
22.3342

> <Gold.Goldscore.Internal.HBond>
0.0000

> <Gold.Goldscore.External.HBond>
4.5159

> <Gold.Goldscore.Internal.Correction>
-0.7838

> <Gold.Goldscore.Hbonds>
donor molecule, donor type, donor heavy atom, donor atom, acceptor molecule, acceptor atom, score
      P1  H  5724  5733       L1    17  1.00
      P1  H  5511  5520       L1     9  1.00
      L1  H     8    22       P1  5720  0.26

> <Gold.Goldscore.Internal.Vdw.Weighted>
-2.8898

> <Gold.Goldscore.Internal.Torsion.Weighted>
-0.3841

> <Gold.Goldscore.External.Vdw.Weighted>
30.7096

> <Gold.Goldscore.Internal.HBond.Weighted>
0.0000

> <Gold.Goldscore.External.HBond.Weighted>
4.5159

> <Gold.Goldscore.Internal.Correction.Weighted>
-0.7838

> <Gold.Rescore>
     Score     S(PLP)   S(hbond)     S(cho)   S(metal)  DE(clash)   DE(tors)     intcor
     35.27     -28.02       3.00       0.00       0.00       1.20       0.28       ----

> <Gold.PLP.Fitness>
35.2734

> <Gold.PLP.PLP>
-28.0244

> <Gold.PLP.part.hbond>
-5.0000

> <Gold.PLP.part.metal>
0.0000

> <Gold.PLP.part.buried>
-0.3157

> <Gold.PLP.part.nonpolar>
-23.8593

> <Gold.PLP.part.repulsive>
0.4364

> <Gold.PLP.ligand.clash>
1.1963

> <Gold.PLP.ligand.torsion>
0.2773

> <Gold.PLP.Chemscore.Hbond>
3.0000

> <Gold.PLP.Chemscore.CHOScore>
0.0000

> <Gold.PLP.Chemscore.Metal>
0.0000

> <Gold.Chemscore.Hbonds>
donor molecule, donor type, donor heavy atom, donor atom, acceptor molecule, acceptor atom, score
      L1  H     8    22       P1  5720  1.00
      P1  H  5724  5733       L1    17  1.00
      P1  H  5511  5520       L1     9  0.68

> <Gold.PLP.Chemscore.Internal.Correction>
   9.000000E+99

