#       Name:                CT1002167954
#       Creating user name   hitesit
#       Creation time:       Sun Apr 16 02:22:19 2023


#       File generated by GOLD software.
#

@<TRIPOS>MOLECULE
CT1002167954|ligand_prepared|mol2|1|dock2
    29    30     1
SMALL
NO_CHARGES


@<TRIPOS>ATOM
      1 C1          50.5466  18.4264   9.7149 C.3            1 RES1               0.0000
      2 C2          50.8646  19.9224   9.9141 C.ar           1 RES1               0.0000
      3 C3          49.8088  17.9742  10.9716 C.2            1 RES1               0.0000
      4 C4          49.7172  18.3328   8.4389 C.2            1 RES1               0.0000
      5 C5          51.8007  17.5395   9.5356 C.3            1 RES1               0.0000
      6 C6          51.6839  20.5985   9.0150 C.ar           1 RES1               0.0000
      7 C7          50.3448  20.6391  10.9887 C.ar           1 RES1               0.0000
      8 N8          48.4663  17.7556  10.8720 N.am           1 RES1               0.0000
      9 O9          50.3889  17.8495  12.0431 O.2            1 RES1               0.0000
     10 N10         48.4162  17.9165   8.5479 N.am           1 RES1               0.0000
     11 O11         50.1736  18.6317   7.3423 O.2            1 RES1               0.0000
     12 C12         51.4863  16.0636   9.3484 C.3            1 RES1               0.0000
     13 C13         51.9708  21.9431   9.1824 C.ar           1 RES1               0.0000
     14 C14         50.6331  21.9837  11.1543 C.ar           1 RES1               0.0000
     15 C15         47.7441  17.6531   9.7102 C.2            1 RES1               0.0000
     16 C16         51.4454  22.6367  10.2517 C.ar           1 RES1               0.0000
     17 O17         46.5583  17.3361   9.7308 O.2            1 RES1               0.0000
     18 H18         52.3623  17.8944   8.6626 H              1 RES1               0.0000
     19 H19         52.4435  17.6545  10.4171 H              1 RES1               0.0000
     20 H20         52.1084  20.0687   8.1688 H              1 RES1               0.0000
     21 H21         49.7043  20.1457  11.7118 H              1 RES1               0.0000
     22 H22         47.9518  17.6595  11.7416 H              1 RES1               0.0000
     23 H23         47.9011  17.7912   7.6822 H              1 RES1               0.0000
     24 H24         52.4008  15.4868   9.2273 H              1 RES1               0.0000
     25 H25         50.9498  15.6713  10.2098 H              1 RES1               0.0000
     26 H26         50.8691  15.9097   8.4657 H              1 RES1               0.0000
     27 H27         52.6116  22.4521   8.4700 H              1 RES1               0.0000
     28 H28         50.2179  22.5254  11.9978 H              1 RES1               0.0000
     29 H29         51.6699  23.6901  10.3824 H              1 RES1               0.0000
@<TRIPOS>BOND
    1    1    2 1     
    2    1    3 1     
    3    1    4 1     
    4    1    5 1     
    5    2    6 ar    
    6    2    7 ar    
    7    3    8 1     
    8    3    9 2     
    9    4   10 1     
   10    4   11 2     
   11    5   12 1     
   12    5   18 1     
   13    5   19 1     
   14    6   13 ar    
   15    6   20 1     
   16    7   14 ar    
   17    7   21 1     
   18    8   15 1     
   19    8   22 1     
   20   10   15 1     
   21   10   23 1     
   22   12   24 1     
   23   12   25 1     
   24   12   26 1     
   25   13   16 ar    
   26   13   27 1     
   27   14   16 ar    
   28   14   28 1     
   29   15   17 2     
   30   16   29 1     
@<TRIPOS>SUBSTRUCTURE
      1 RES1           1
@<TRIPOS>SET
DONOR_HYDROGENS      STATIC     ATOMS    <user>   **** ""
2 22 23
ATOM$RED        STATIC     ATOMS    COLORGROUP SYSTEM
2 22 23
@<TRIPOS>COMMENT
> <Gold.Version>
2022.3.0

> <Gold.Id.Protein>
unknown|7chy_cavity_clean|pdb

> <Gold.Protein.RotatedTorsions>
[ 6606 6597 6596 6594 ] final  -96.51 input   60.03 | X-H torsion
[ 6631 6624 6622 6619 ] final  177.87 input   60.01 | X-H torsion
[ 5778 5771 5769 5766 ] final -105.83 input   60.02 | X-H torsion
[ 5700 5689 5688 5687 ] final -103.42 input   59.97 | X-H torsion
[ 5253 5242 5241 5240 ] final  127.28 input   60.02 | X-H torsion

> <Gold.Protein.ActiveResidues>
 GLU141  LEU142  LYS225  GLN242  LYS254  GLY256  GLN257  ASP258  ILE259  THR260 
 ASP261  TYR49   THR51   ALA52  

> <Gold.Protein.RotatedAtoms>
   48.8052   14.8771   29.3533 H   0  0  0  0  0  0  0  0  0  0  0  0  # atno 5253 bound_to 5242
   47.5532   13.7931   29.4275 H   0  0  0  0  0  0  0  0  0  0  0  0  # atno 5254 bound_to 5242
   47.9026   14.5587   27.9994 H   0  0  0  0  0  0  0  0  0  0  0  0  # atno 5255 bound_to 5242
   38.0582   22.1711   21.9702 H   0  0  0  0  0  0  0  0  0  0  0  0  # atno 5700 bound_to 5689
   39.0291   22.2713   23.3105 H   0  0  0  0  0  0  0  0  0  0  0  0  # atno 5701 bound_to 5689
   37.3910   22.4779   23.4551 H   0  0  0  0  0  0  0  0  0  0  0  0  # atno 5702 bound_to 5689
   44.1498   21.7646   20.6024 H   0  0  0  0  0  0  0  0  0  0  0  0  # atno 5778 bound_to 5771
   50.6507   16.6841    1.5337 H   0  0  0  0  0  0  0  0  0  0  0  0  # atno 6606 bound_to 6597
   43.8286   11.3361   11.2996 H   0  0  0  0  0  0  0  0  0  0  0  0  # atno 6631 bound_to 6624
   49.1644   16.8751    2.1681 LP  0  0  0  0  0  0  0  0  0  0  0  0  # atno 8772 bound_to 6597
   49.3692   15.9855    0.8141 LP  0  0  0  0  0  0  0  0  0  0  0  0  # atno 8773 bound_to 6597
   45.2596   11.2623   10.5278 LP  0  0  0  0  0  0  0  0  0  0  0  0  # atno 8778 bound_to 6624
   44.3247    9.9289   10.6495 LP  0  0  0  0  0  0  0  0  0  0  0  0  # atno 8779 bound_to 6624
   43.8570   22.6684   21.9239 LP  0  0  0  0  0  0  0  0  0  0  0  0  # atno 8782 bound_to 5771
   44.9665   21.4715   21.9794 LP  0  0  0  0  0  0  0  0  0  0  0  0  # atno 8783 bound_to 5771

> <Gold.Score>
     Fitness  S(hb_ext) S(vdw_ext)  S(hb_int)    S(int)      intcor
     32.70       4.21      22.05       0.00      -1.83      -0.78

> <Gold.Goldscore.Fitness>
32.7027

> <Gold.Goldscore.Internal.Vdw>
-2.2441

> <Gold.Goldscore.Internal.Torsion>
-0.3680

> <Gold.Goldscore.External.Vdw>
22.0496

> <Gold.Goldscore.Internal.HBond>
0.0000

> <Gold.Goldscore.External.HBond>
4.2127

> <Gold.Goldscore.Internal.Correction>
-0.7838

> <Gold.Goldscore.Hbonds>
donor molecule, donor type, donor heavy atom, donor atom, acceptor molecule, acceptor atom, score
      P1  H  5724  5733       L1    17  1.00
      P1  H  5511  5520       L1     9  0.95
      L1  H     8    22       P1  5720  0.15

> <Gold.Goldscore.Internal.Vdw.Weighted>
-2.2441

> <Gold.Goldscore.Internal.Torsion.Weighted>
-0.3680

> <Gold.Goldscore.External.Vdw.Weighted>
30.3183

> <Gold.Goldscore.Internal.HBond.Weighted>
0.0000

> <Gold.Goldscore.External.HBond.Weighted>
4.2127

> <Gold.Goldscore.Internal.Correction.Weighted>
-0.7838

> <Gold.Rescore>
     Score     S(PLP)   S(hbond)     S(cho)   S(metal)  DE(clash)   DE(tors)     intcor
     35.10     -28.27       3.00       0.00       0.00       1.26       0.46       ----

> <Gold.PLP.Fitness>
35.1014

> <Gold.PLP.PLP>
-28.2742

> <Gold.PLP.part.hbond>
-4.8027

> <Gold.PLP.part.metal>
0.0000

> <Gold.PLP.part.buried>
-0.2181

> <Gold.PLP.part.nonpolar>
-24.2072

> <Gold.PLP.part.repulsive>
0.4443

> <Gold.PLP.ligand.clash>
1.2565

> <Gold.PLP.ligand.torsion>
0.4582

> <Gold.PLP.Chemscore.Hbond>
3.0000

> <Gold.PLP.Chemscore.CHOScore>
0.0000

> <Gold.PLP.Chemscore.Metal>
0.0000

> <Gold.Chemscore.Hbonds>
donor molecule, donor type, donor heavy atom, donor atom, acceptor molecule, acceptor atom, score
      L1  H     8    22       P1  5720  0.96
      P1  H  5724  5733       L1    17  1.00
      P1  H  5511  5520       L1     9  0.57

> <Gold.PLP.Chemscore.Internal.Correction>
   9.000000E+99

