#       Name:                CT1002167954
#       Creating user name   hitesit
#       Creation time:       Sun Apr 16 02:22:20 2023


#       File generated by GOLD software.
#

@<TRIPOS>MOLECULE
CT1002167954|ligand_prepared|mol2|1|dock5
    29    30     1
SMALL
NO_CHARGES


@<TRIPOS>ATOM
      1 C1          42.5425  18.1617  18.8078 C.3            1 RES1               0.0000
      2 C2          41.5327  17.0367  19.1131 C.ar           1 RES1               0.0000
      3 C3          42.7598  18.9100  20.1198 C.2            1 RES1               0.0000
      4 C4          43.7932  17.4773  18.2675 C.2            1 RES1               0.0000
      5 C5          42.0516  19.1699  17.7428 C.3            1 RES1               0.0000
      6 C6          41.9712  15.7903  19.5503 C.ar           1 RES1               0.0000
      7 C7          40.1619  17.2306  18.9651 C.ar           1 RES1               0.0000
      8 N8          43.9419  18.7135  20.7709 N.am           1 RES1               0.0000
      9 O9          41.8914  19.6308  20.5957 O.2            1 RES1               0.0000
     10 N10         44.9398  17.5528  19.0140 N.am           1 RES1               0.0000
     11 O11         43.7918  16.8593  17.2100 O.2            1 RES1               0.0000
     12 C12         43.1730  19.9459  17.0702 C.3            1 RES1               0.0000
     13 C13         41.0717  14.7755  19.8322 C.ar           1 RES1               0.0000
     14 C14         39.2641  16.2142  19.2473 C.ar           1 RES1               0.0000
     15 C15         45.0629  18.1137  20.2560 C.2            1 RES1               0.0000
     16 C16         39.7178  14.9868  19.6814 C.ar           1 RES1               0.0000
     17 O17         46.1148  18.0942  20.8887 O.2            1 RES1               0.0000
     18 H18         41.4885  18.6258  16.9746 H              1 RES1               0.0000
     19 H19         41.3665  19.8817  18.2197 H              1 RES1               0.0000
     20 H20         43.0331  15.6047  19.6726 H              1 RES1               0.0000
     21 H21         39.7823  18.1877  18.6239 H              1 RES1               0.0000
     22 H22         43.9974  19.0428  21.7295 H              1 RES1               0.0000
     23 H23         45.7794  17.1540  18.6061 H              1 RES1               0.0000
     24 H24         42.7740  20.6387  16.3323 H              1 RES1               0.0000
     25 H25         43.7386  20.5189  17.8020 H              1 RES1               0.0000
     26 H26         43.8599  19.2705  16.5643 H              1 RES1               0.0000
     27 H27         41.4339  13.8109  20.1722 H              1 RES1               0.0000
     28 H28         38.1995  16.3848  19.1266 H              1 RES1               0.0000
     29 H29         39.0134  14.1918  19.9027 H              1 RES1               0.0000
@<TRIPOS>BOND
    1    1    2 1     
    2    1    3 1     
    3    1    4 1     
    4    1    5 1     
    5    2    6 ar    
    6    2    7 ar    
    7    3    8 1     
    8    3    9 2     
    9    4   10 1     
   10    4   11 2     
   11    5   12 1     
   12    5   18 1     
   13    5   19 1     
   14    6   13 ar    
   15    6   20 1     
   16    7   14 ar    
   17    7   21 1     
   18    8   15 1     
   19    8   22 1     
   20   10   15 1     
   21   10   23 1     
   22   12   24 1     
   23   12   25 1     
   24   12   26 1     
   25   13   16 ar    
   26   13   27 1     
   27   14   16 ar    
   28   14   28 1     
   29   15   17 2     
   30   16   29 1     
@<TRIPOS>SUBSTRUCTURE
      1 RES1           1
@<TRIPOS>SET
DONOR_HYDROGENS      STATIC     ATOMS    <user>   **** ""
2 22 23
ATOM$RED        STATIC     ATOMS    COLORGROUP SYSTEM
2 22 23
@<TRIPOS>COMMENT
> <Gold.Version>
2022.3.0

> <Gold.Id.Protein>
unknown|7chy_cavity_clean|pdb

> <Gold.Protein.RotatedTorsions>
[ 6606 6597 6596 6594 ] final  -12.42 input   60.03 | X-H torsion
[ 6631 6624 6622 6619 ] final  -93.23 input   60.01 | X-H torsion
[ 5778 5771 5769 5766 ] final   15.24 input   60.02 | X-H torsion
[ 5700 5689 5688 5687 ] final  -42.53 input   59.97 | X-H torsion
[ 5253 5242 5241 5240 ] final  158.80 input   60.02 | X-H torsion

> <Gold.Protein.ActiveResidues>
 GLU141  LEU142  LYS225  GLN242  LYS254  GLY256  GLN257  ASP258  ILE259  THR260 
 ASP261  TYR49   THR51   ALA52  

> <Gold.Protein.RotatedAtoms>
   48.5937   14.5770   29.7214 H   0  0  0  0  0  0  0  0  0  0  0  0  # atno 5253 bound_to 5242
   47.3597   13.7879   28.9452 H   0  0  0  0  0  0  0  0  0  0  0  0  # atno 5254 bound_to 5242
   48.3075   14.8640   28.1136 H   0  0  0  0  0  0  0  0  0  0  0  0  # atno 5255 bound_to 5242
   38.9363   22.1361   22.3799 H   0  0  0  0  0  0  0  0  0  0  0  0  # atno 5700 bound_to 5689
   38.2453   22.4445   23.8552 H   0  0  0  0  0  0  0  0  0  0  0  0  # atno 5701 bound_to 5689
   37.2966   22.3396   22.5001 H   0  0  0  0  0  0  0  0  0  0  0  0  # atno 5702 bound_to 5689
   44.9609   21.4862   21.9896 H   0  0  0  0  0  0  0  0  0  0  0  0  # atno 5778 bound_to 5771
   49.9420   16.0242    0.7369 H   0  0  0  0  0  0  0  0  0  0  0  0  # atno 6606 bound_to 6597
   43.9205   10.0888   10.9042 H   0  0  0  0  0  0  0  0  0  0  0  0  # atno 6631 bound_to 6624
   50.4113   16.9558    1.9858 LP  0  0  0  0  0  0  0  0  0  0  0  0  # atno 8772 bound_to 6597
   48.8359   16.5692    1.7988 LP  0  0  0  0  0  0  0  0  0  0  0  0  # atno 8773 bound_to 6597
   44.1967   11.6652   11.1999 LP  0  0  0  0  0  0  0  0  0  0  0  0  # atno 8778 bound_to 6624
   45.2950   10.7816   10.3755 LP  0  0  0  0  0  0  0  0  0  0  0  0  # atno 8779 bound_to 6624
   44.1589   21.7487   20.5979 LP  0  0  0  0  0  0  0  0  0  0  0  0  # atno 8782 bound_to 5771
   43.8483   22.6714   21.9090 LP  0  0  0  0  0  0  0  0  0  0  0  0  # atno 8783 bound_to 5771

> <Gold.Score>
     Fitness  S(hb_ext) S(vdw_ext)  S(hb_int)    S(int)      intcor
     19.38       3.68      12.44       0.00      -1.40      -0.76

> <Gold.Goldscore.Fitness>
19.3826

> <Gold.Goldscore.Internal.Vdw>
-1.1381

> <Gold.Goldscore.Internal.Torsion>
-1.0225

> <Gold.Goldscore.External.Vdw>
12.4386

> <Gold.Goldscore.Internal.HBond>
0.0000

> <Gold.Goldscore.External.HBond>
3.6816

> <Gold.Goldscore.Internal.Correction>
-0.7585

> <Gold.Goldscore.Hbonds>
donor molecule, donor type, donor heavy atom, donor atom, acceptor molecule, acceptor atom, score
      P1  H  5779  5787       L1    17  0.22
      L1  H     8    22       P1  5786  0.54

> <Gold.Goldscore.Internal.Vdw.Weighted>
-1.1381

> <Gold.Goldscore.Internal.Torsion.Weighted>
-1.0225

> <Gold.Goldscore.External.Vdw.Weighted>
17.1031

> <Gold.Goldscore.Internal.HBond.Weighted>
0.0000

> <Gold.Goldscore.External.HBond.Weighted>
3.6816

> <Gold.Goldscore.Internal.Correction.Weighted>
-0.7585

> <Gold.Rescore>
     Score     S(PLP)   S(hbond)     S(cho)   S(metal)  DE(clash)   DE(tors)     intcor
     14.79     -14.10       0.85       0.00       0.00       0.00       0.93       ----

> <Gold.PLP.Fitness>
14.7929

> <Gold.PLP.PLP>
-14.0990

> <Gold.PLP.part.hbond>
-5.3826

> <Gold.PLP.part.metal>
0.0000

> <Gold.PLP.part.buried>
3.7465

> <Gold.PLP.part.nonpolar>
-13.5889

> <Gold.PLP.part.repulsive>
0.9403

> <Gold.PLP.ligand.clash>
0.0000

> <Gold.PLP.ligand.torsion>
0.9251

> <Gold.PLP.Chemscore.Hbond>
0.8480

> <Gold.PLP.Chemscore.CHOScore>
0.0000

> <Gold.PLP.Chemscore.Metal>
0.0000

> <Gold.Chemscore.Hbonds>
donor molecule, donor type, donor heavy atom, donor atom, acceptor molecule, acceptor atom, score
      L1  H     8    22       P1  5786  0.76

> <Gold.PLP.Chemscore.Internal.Correction>
   9.000000E+99

