#       Name:                CT1002167954
#       Creating user name   hitesit
#       Creation time:       Sun Apr 16 02:22:24 2023


#       File generated by GOLD software.
#

@<TRIPOS>MOLECULE
CT1002167954|ligand_prepared|mol2|1|dock10
    29    30     1
SMALL
NO_CHARGES


@<TRIPOS>ATOM
      1 C1          42.1196  17.7985  18.2158 C.3            1 RES1               0.0000
      2 C2          40.8185  17.2219  17.6213 C.ar           1 RES1               0.0000
      3 C3          43.1934  17.6246  17.1458 C.2            1 RES1               0.0000
      4 C4          41.8208  19.2518  18.5670 C.2            1 RES1               0.0000
      5 C5          42.5890  17.0825  19.5037 C.3            1 RES1               0.0000
      6 C6          39.9704  18.0228  16.8622 C.ar           1 RES1               0.0000
      7 C7          40.4548  15.8928  17.8207 C.ar           1 RES1               0.0000
      8 N8          43.6016  18.7387  16.4734 N.am           1 RES1               0.0000
      9 O9          43.6466  16.5210  16.8687 O.2            1 RES1               0.0000
     10 N10         42.4845  20.2295  17.8732 N.am           1 RES1               0.0000
     11 O11         41.0044  19.5592  19.4267 O.2            1 RES1               0.0000
     12 C12         43.7525  17.7718  20.1990 C.3            1 RES1               0.0000
     13 C13         38.8026  17.5128  16.3196 C.ar           1 RES1               0.0000
     14 C14         39.2864  15.3848  17.2773 C.ar           1 RES1               0.0000
     15 C15         43.3386  20.0393  16.8213 C.2            1 RES1               0.0000
     16 C16         38.4600  16.1935  16.5264 C.ar           1 RES1               0.0000
     17 O17         43.8549  20.9718  16.2121 O.2            1 RES1               0.0000
     18 H18         41.7452  17.0231  20.2022 H              1 RES1               0.0000
     19 H19         42.8866  16.0577  19.2495 H              1 RES1               0.0000
     20 H20         40.2223  19.0641  16.6909 H              1 RES1               0.0000
     21 H21         41.0891  15.2384  18.4089 H              1 RES1               0.0000
     22 H22         44.1534  18.5912  15.6343 H              1 RES1               0.0000
     23 H23         42.3274  21.1879  18.1684 H              1 RES1               0.0000
     24 H24         44.0421  17.2287  21.0962 H              1 RES1               0.0000
     25 H25         44.6176  17.8257  19.5414 H              1 RES1               0.0000
     26 H26         43.4830  18.7854  20.4885 H              1 RES1               0.0000
     27 H27         38.1550  18.1537  15.7306 H              1 RES1               0.0000
     28 H28         39.0204  14.3461  17.4431 H              1 RES1               0.0000
     29 H29         37.5453  15.7941  16.1009 H              1 RES1               0.0000
@<TRIPOS>BOND
    1    1    2 1     
    2    1    3 1     
    3    1    4 1     
    4    1    5 1     
    5    2    6 ar    
    6    2    7 ar    
    7    3    8 1     
    8    3    9 2     
    9    4   10 1     
   10    4   11 2     
   11    5   12 1     
   12    5   18 1     
   13    5   19 1     
   14    6   13 ar    
   15    6   20 1     
   16    7   14 ar    
   17    7   21 1     
   18    8   15 1     
   19    8   22 1     
   20   10   15 1     
   21   10   23 1     
   22   12   24 1     
   23   12   25 1     
   24   12   26 1     
   25   13   16 ar    
   26   13   27 1     
   27   14   16 ar    
   28   14   28 1     
   29   15   17 2     
   30   16   29 1     
@<TRIPOS>SUBSTRUCTURE
      1 RES1           1
@<TRIPOS>SET
DONOR_HYDROGENS      STATIC     ATOMS    <user>   **** ""
2 22 23
ATOM$RED        STATIC     ATOMS    COLORGROUP SYSTEM
2 22 23
@<TRIPOS>COMMENT
> <Gold.Version>
2022.3.0

> <Gold.Id.Protein>
unknown|7chy_cavity_clean|pdb

> <Gold.Protein.RotatedTorsions>
[ 6606 6597 6596 6594 ] final   76.75 input   60.03 | X-H torsion
[ 6631 6624 6622 6619 ] final  163.32 input   60.01 | X-H torsion
[ 5778 5771 5769 5766 ] final  -80.27 input   60.02 | X-H torsion
[ 5700 5689 5688 5687 ] final   55.88 input   59.97 | X-H torsion
[ 5253 5242 5241 5240 ] final   92.81 input   60.02 | X-H torsion

> <Gold.Protein.ActiveResidues>
 GLU141  LEU142  LYS225  GLN242  LYS254  GLY256  GLN257  ASP258  ILE259  THR260 
 ASP261  TYR49   THR51   ALA52  

> <Gold.Protein.RotatedAtoms>
   48.7935   15.0452   28.8117 H   0  0  0  0  0  0  0  0  0  0  0  0  # atno 5253 bound_to 5242
   47.9417   14.0055   29.7819 H   0  0  0  0  0  0  0  0  0  0  0  0  # atno 5254 bound_to 5242
   47.5258   14.1783   28.1866 H   0  0  0  0  0  0  0  0  0  0  0  0  # atno 5255 bound_to 5242
   38.5885   22.3908   23.7628 H   0  0  0  0  0  0  0  0  0  0  0  0  # atno 5700 bound_to 5689
   37.2098   22.4032   22.8420 H   0  0  0  0  0  0  0  0  0  0  0  0  # atno 5701 bound_to 5689
   38.6807   22.1260   22.1301 H   0  0  0  0  0  0  0  0  0  0  0  0  # atno 5702 bound_to 5689
   44.4416   21.4884   20.7040 H   0  0  0  0  0  0  0  0  0  0  0  0  # atno 5778 bound_to 5771
   48.8303   16.2853    1.3879 H   0  0  0  0  0  0  0  0  0  0  0  0  # atno 6606 bound_to 6597
   43.9837   11.5124   11.2668 H   0  0  0  0  0  0  0  0  0  0  0  0  # atno 6631 bound_to 6624
   50.3792   16.2067    0.8950 LP  0  0  0  0  0  0  0  0  0  0  0  0  # atno 8772 bound_to 6597
   49.9875   17.0554    2.2340 LP  0  0  0  0  0  0  0  0  0  0  0  0  # atno 8773 bound_to 6597
   45.3067   11.0444   10.4424 LP  0  0  0  0  0  0  0  0  0  0  0  0  # atno 8778 bound_to 6624
   44.1214    9.9693   10.7679 LP  0  0  0  0  0  0  0  0  0  0  0  0  # atno 8779 bound_to 6624
   43.6985   22.6720   21.5380 LP  0  0  0  0  0  0  0  0  0  0  0  0  # atno 8782 bound_to 5771
   44.8314   21.7459   22.2630 LP  0  0  0  0  0  0  0  0  0  0  0  0  # atno 8783 bound_to 5771

> <Gold.Score>
     Fitness  S(hb_ext) S(vdw_ext)  S(hb_int)    S(int)      intcor
     25.38       1.91      17.41       0.00      -0.46      -0.76

> <Gold.Goldscore.Fitness>
25.3847

> <Gold.Goldscore.Internal.Vdw>
-0.7462

> <Gold.Goldscore.Internal.Torsion>
-0.4750

> <Gold.Goldscore.External.Vdw>
17.4085

> <Gold.Goldscore.Internal.HBond>
0.0000

> <Gold.Goldscore.External.HBond>
1.9106

> <Gold.Goldscore.Internal.Correction>
-0.7585

> <Gold.Goldscore.Hbonds>
donor molecule, donor type, donor heavy atom, donor atom, acceptor molecule, acceptor atom, score
      P1  H  5734  5742       L1    17  0.34
      L1  H     8    22       P1  5720  0.03
      L1  H    10    23       P1  5684  0.59

> <Gold.Goldscore.Internal.Vdw.Weighted>
-0.7462

> <Gold.Goldscore.Internal.Torsion.Weighted>
-0.4750

> <Gold.Goldscore.External.Vdw.Weighted>
23.9367

> <Gold.Goldscore.Internal.HBond.Weighted>
0.0000

> <Gold.Goldscore.External.HBond.Weighted>
1.9106

> <Gold.Goldscore.Internal.Correction.Weighted>
-0.7585

> <Gold.Rescore>
     Score     S(PLP)   S(hbond)     S(cho)   S(metal)  DE(clash)   DE(tors)     intcor
     15.96     -13.76       1.43       0.00       0.00       0.00       1.04       ----

> <Gold.PLP.Fitness>
15.9637

> <Gold.PLP.PLP>
-13.7601

> <Gold.PLP.part.hbond>
-4.7814

> <Gold.PLP.part.metal>
0.0000

> <Gold.PLP.part.buried>
-2.2884

> <Gold.PLP.part.nonpolar>
-14.1630

> <Gold.PLP.part.repulsive>
6.6199

> <Gold.PLP.ligand.clash>
0.0000

> <Gold.PLP.ligand.torsion>
1.0440

> <Gold.PLP.Chemscore.Hbond>
1.4306

> <Gold.PLP.Chemscore.CHOScore>
0.0000

> <Gold.PLP.Chemscore.Metal>
0.0000

> <Gold.Chemscore.Hbonds>
donor molecule, donor type, donor heavy atom, donor atom, acceptor molecule, acceptor atom, score
      L1  H    10    23       P1  5684  0.10
      P1  H  5734  5742       L1    17  0.93

> <Gold.PLP.Chemscore.Internal.Correction>
   9.000000E+99

