#       Name:                CT1002167954
#       Creating user name   hitesit
#       Creation time:       Sun Apr 16 02:22:22 2023


#       File generated by GOLD software.
#

@<TRIPOS>MOLECULE
CT1002167954|ligand_prepared|mol2|1|dock8
    29    30     1
SMALL
NO_CHARGES


@<TRIPOS>ATOM
      1 C1          43.8517  16.6814  20.3751 C.3            1 RES1               0.0000
      2 C2          42.8442  15.8852  19.5209 C.ar           1 RES1               0.0000
      3 C3          44.6700  17.5224  19.3996 C.2            1 RES1               0.0000
      4 C4          43.0234  17.5001  21.3592 C.2            1 RES1               0.0000
      5 C5          44.8202  15.7925  21.1895 C.3            1 RES1               0.0000
      6 C6          42.9206  14.4977  19.4447 C.ar           1 RES1               0.0000
      7 C7          41.8331  16.5227  18.8069 C.ar           1 RES1               0.0000
      8 N8          44.4177  18.8618  19.3544 N.am           1 RES1               0.0000
      9 O9          45.4963  17.0120  18.6533 O.2            1 RES1               0.0000
     10 N10         43.0513  18.8651  21.2420 N.am           1 RES1               0.0000
     11 O11         42.3338  16.9748  22.2245 O.2            1 RES1               0.0000
     12 C12         45.7842  16.5779  22.0647 C.3            1 RES1               0.0000
     13 C13         42.0171  13.7735  18.6847 C.ar           1 RES1               0.0000
     14 C14         40.9307  15.7966  18.0473 C.ar           1 RES1               0.0000
     15 C15         43.6866  19.5819  20.2648 C.2            1 RES1               0.0000
     16 C16         41.0214  14.4223  17.9859 C.ar           1 RES1               0.0000
     17 O17         43.6204  20.8057  20.1940 O.2            1 RES1               0.0000
     18 H18         44.2317  15.1210  21.8269 H              1 RES1               0.0000
     19 H19         45.3997  15.1725  20.4943 H              1 RES1               0.0000
     20 H20         43.6989  13.9700  19.9858 H              1 RES1               0.0000
     21 H21         41.7432  17.6032  18.8396 H              1 RES1               0.0000
     22 H22         44.8087  19.3757  18.5712 H              1 RES1               0.0000
     23 H23         42.5523  19.3960  21.9486 H              1 RES1               0.0000
     24 H24         46.4408  15.9066  22.6142 H              1 RES1               0.0000
     25 H25         46.4032  17.2381  21.4607 H              1 RES1               0.0000
     26 H26         45.2422  17.1868  22.7853 H              1 RES1               0.0000
     27 H27         42.0937  12.6922  18.6386 H              1 RES1               0.0000
     28 H28         40.1491  16.3114  17.4985 H              1 RES1               0.0000
     29 H29         40.3136  13.8547  17.3909 H              1 RES1               0.0000
@<TRIPOS>BOND
    1    1    2 1     
    2    1    3 1     
    3    1    4 1     
    4    1    5 1     
    5    2    6 ar    
    6    2    7 ar    
    7    3    8 1     
    8    3    9 2     
    9    4   10 1     
   10    4   11 2     
   11    5   12 1     
   12    5   18 1     
   13    5   19 1     
   14    6   13 ar    
   15    6   20 1     
   16    7   14 ar    
   17    7   21 1     
   18    8   15 1     
   19    8   22 1     
   20   10   15 1     
   21   10   23 1     
   22   12   24 1     
   23   12   25 1     
   24   12   26 1     
   25   13   16 ar    
   26   13   27 1     
   27   14   16 ar    
   28   14   28 1     
   29   15   17 2     
   30   16   29 1     
@<TRIPOS>SUBSTRUCTURE
      1 RES1           1
@<TRIPOS>SET
DONOR_HYDROGENS      STATIC     ATOMS    <user>   **** ""
2 22 23
ATOM$RED        STATIC     ATOMS    COLORGROUP SYSTEM
2 22 23
@<TRIPOS>COMMENT
> <Gold.Version>
2022.3.0

> <Gold.Id.Protein>
unknown|7chy_cavity_clean|pdb

> <Gold.Protein.RotatedTorsions>
[ 6606 6597 6596 6594 ] final   88.00 input   60.03 | X-H torsion
[ 6631 6624 6622 6619 ] final  177.56 input   60.01 | X-H torsion
[ 5778 5771 5769 5766 ] final  178.08 input   60.02 | X-H torsion
[ 5700 5689 5688 5687 ] final  -38.96 input   59.97 | X-H torsion
[ 5253 5242 5241 5240 ] final -109.11 input   60.02 | X-H torsion

> <Gold.Protein.ActiveResidues>
 GLU141  LEU142  LYS225  GLN242  LYS254  GLY256  GLN257  ASP258  ILE259  THR260 
 ASP261  TYR49   THR51   ALA52  

> <Gold.Protein.RotatedAtoms>
   47.5214   13.7824   29.3773 H   0  0  0  0  0  0  0  0  0  0  0  0  # atno 5253 bound_to 5242
   47.9486   14.5976   27.9986 H   0  0  0  0  0  0  0  0  0  0  0  0  # atno 5254 bound_to 5242
   48.7907   14.8488   29.4042 H   0  0  0  0  0  0  0  0  0  0  0  0  # atno 5255 bound_to 5242
   38.9689   22.1401   22.4295 H   0  0  0  0  0  0  0  0  0  0  0  0  # atno 5700 bound_to 5689
   38.1862   22.4515   23.8577 H   0  0  0  0  0  0  0  0  0  0  0  0  # atno 5701 bound_to 5689
   37.3231   22.3285   22.4480 H   0  0  0  0  0  0  0  0  0  0  0  0  # atno 5702 bound_to 5689
   43.6655   22.5861   21.2529 H   0  0  0  0  0  0  0  0  0  0  0  0  # atno 5778 bound_to 5771
   48.8038   16.3846    1.5399 H   0  0  0  0  0  0  0  0  0  0  0  0  # atno 6606 bound_to 6597
   43.8314   11.3402   11.2992 H   0  0  0  0  0  0  0  0  0  0  0  0  # atno 6631 bound_to 6624
   50.2356   16.1260    0.8111 LP  0  0  0  0  0  0  0  0  0  0  0  0  # atno 8772 bound_to 6597
   50.1578   17.0361    2.1647 LP  0  0  0  0  0  0  0  0  0  0  0  0  # atno 8773 bound_to 6597
   45.2611   11.2579   10.5258 LP  0  0  0  0  0  0  0  0  0  0  0  0  # atno 8778 bound_to 6624
   44.3203    9.9292   10.6519 LP  0  0  0  0  0  0  0  0  0  0  0  0  # atno 8779 bound_to 6624
   44.6707   21.9732   22.3767 LP  0  0  0  0  0  0  0  0  0  0  0  0  # atno 8782 bound_to 5771
   44.6404   21.3398   20.8718 LP  0  0  0  0  0  0  0  0  0  0  0  0  # atno 8783 bound_to 5771

> <Gold.Score>
     Fitness  S(hb_ext) S(vdw_ext)  S(hb_int)    S(int)      intcor
     29.08       2.00      20.28       0.00      -0.80      -0.76

> <Gold.Goldscore.Fitness>
29.0779

> <Gold.Goldscore.Internal.Vdw>
-1.1888

> <Gold.Goldscore.Internal.Torsion>
-0.3714

> <Gold.Goldscore.External.Vdw>
20.2761

> <Gold.Goldscore.Internal.HBond>
0.0000

> <Gold.Goldscore.External.HBond>
2.0000

> <Gold.Goldscore.Internal.Correction>
-0.7585

> <Gold.Goldscore.Hbonds>
donor molecule, donor type, donor heavy atom, donor atom, acceptor molecule, acceptor atom, score
      L1  H     8    22       P1  5737  1.00

> <Gold.Goldscore.Internal.Vdw.Weighted>
-1.1888

> <Gold.Goldscore.Internal.Torsion.Weighted>
-0.3714

> <Gold.Goldscore.External.Vdw.Weighted>
27.8796

> <Gold.Goldscore.Internal.HBond.Weighted>
0.0000

> <Gold.Goldscore.External.HBond.Weighted>
2.0000

> <Gold.Goldscore.Internal.Correction.Weighted>
-0.7585

> <Gold.Rescore>
     Score     S(PLP)   S(hbond)     S(cho)   S(metal)  DE(clash)   DE(tors)     intcor
     28.19     -25.41       1.00       0.00       0.00       0.00       0.11       ----

> <Gold.PLP.Fitness>
28.1905

> <Gold.PLP.PLP>
-25.4085

> <Gold.PLP.part.hbond>
-2.5991

> <Gold.PLP.part.metal>
0.0000

> <Gold.PLP.part.buried>
-4.2864

> <Gold.PLP.part.nonpolar>
-22.4042

> <Gold.PLP.part.repulsive>
3.5807

> <Gold.PLP.ligand.clash>
0.0000

> <Gold.PLP.ligand.torsion>
0.1090

> <Gold.PLP.Chemscore.Hbond>
1.0000

> <Gold.PLP.Chemscore.CHOScore>
0.0000

> <Gold.PLP.Chemscore.Metal>
0.0000

> <Gold.Chemscore.Hbonds>
donor molecule, donor type, donor heavy atom, donor atom, acceptor molecule, acceptor atom, score
      L1  H     8    22       P1  5737  1.00

> <Gold.PLP.Chemscore.Internal.Correction>
   9.000000E+99

