#       Name:                CT1002167954
#       Creating user name   hitesit
#       Creation time:       Sun Apr 16 02:22:21 2023


#       File generated by GOLD software.
#

@<TRIPOS>MOLECULE
CT1002167954|ligand_prepared|mol2|1|dock6
    29    30     1
SMALL
NO_CHARGES


@<TRIPOS>ATOM
      1 C1          43.3012  17.8486  19.8829 C.3            1 RES1               0.0000
      2 C2          43.9980  16.8634  20.8435 C.ar           1 RES1               0.0000
      3 C3          41.8469  17.3968  19.7865 C.2            1 RES1               0.0000
      4 C4          43.4829  19.2358  20.4890 C.2            1 RES1               0.0000
      5 C5          43.9054  17.8663  18.4595 C.3            1 RES1               0.0000
      6 C6          45.2236  16.2951  20.5094 C.ar           1 RES1               0.0000
      7 C7          43.4298  16.5158  22.0661 C.ar           1 RES1               0.0000
      8 N8          40.9082  18.1470  20.4314 N.am           1 RES1               0.0000
      9 O9          41.5334  16.3759  19.1869 O.2            1 RES1               0.0000
     10 N10         42.3646  19.8983  20.9231 N.am           1 RES1               0.0000
     11 O11         44.5860  19.7542  20.6097 O.2            1 RES1               0.0000
     12 C12         43.1340  18.7328  17.4766 C.3            1 RES1               0.0000
     13 C13         45.8597  15.4136  21.3677 C.ar           1 RES1               0.0000
     14 C14         44.0674  15.6339  22.9229 C.ar           1 RES1               0.0000
     15 C15         41.0890  19.4041  20.9499 C.2            1 RES1               0.0000
     16 C16         45.2823  15.0828  22.5751 C.ar           1 RES1               0.0000
     17 O17         40.1432  20.0400  21.4063 O.2            1 RES1               0.0000
     18 H18         44.9377  18.2327  18.5186 H              1 RES1               0.0000
     19 H19         43.9358  16.8389  18.0760 H              1 RES1               0.0000
     20 H20         45.6921  16.5417  19.5624 H              1 RES1               0.0000
     21 H21         42.4741  16.9362  22.3602 H              1 RES1               0.0000
     22 H22         39.9866  17.7353  20.5381 H              1 RES1               0.0000
     23 H23         42.4953  20.8478  21.2572 H              1 RES1               0.0000
     24 H24         43.6000  18.7099  16.4938 H              1 RES1               0.0000
     25 H25         42.1094  18.3813  17.3741 H              1 RES1               0.0000
     26 H26         43.1053  19.7668  17.8141 H              1 RES1               0.0000
     27 H27         46.8150  14.9816  21.0886 H              1 RES1               0.0000
     28 H28         43.6091  15.3758  23.8719 H              1 RES1               0.0000
     29 H29         45.7810  14.3925  23.2475 H              1 RES1               0.0000
@<TRIPOS>BOND
    1    1    2 1     
    2    1    3 1     
    3    1    4 1     
    4    1    5 1     
    5    2    6 ar    
    6    2    7 ar    
    7    3    8 1     
    8    3    9 2     
    9    4   10 1     
   10    4   11 2     
   11    5   12 1     
   12    5   18 1     
   13    5   19 1     
   14    6   13 ar    
   15    6   20 1     
   16    7   14 ar    
   17    7   21 1     
   18    8   15 1     
   19    8   22 1     
   20   10   15 1     
   21   10   23 1     
   22   12   24 1     
   23   12   25 1     
   24   12   26 1     
   25   13   16 ar    
   26   13   27 1     
   27   14   16 ar    
   28   14   28 1     
   29   15   17 2     
   30   16   29 1     
@<TRIPOS>SUBSTRUCTURE
      1 RES1           1
@<TRIPOS>SET
DONOR_HYDROGENS      STATIC     ATOMS    <user>   **** ""
2 22 23
ATOM$RED        STATIC     ATOMS    COLORGROUP SYSTEM
2 22 23
@<TRIPOS>COMMENT
> <Gold.Version>
2022.3.0

> <Gold.Id.Protein>
unknown|7chy_cavity_clean|pdb

> <Gold.Protein.RotatedTorsions>
[ 6606 6597 6596 6594 ] final -114.49 input   60.03 | X-H torsion
[ 6631 6624 6622 6619 ] final -178.61 input   60.01 | X-H torsion
[ 5778 5771 5769 5766 ] final -172.04 input   60.02 | X-H torsion
[ 5700 5689 5688 5687 ] final -145.45 input   59.97 | X-H torsion
[ 5253 5242 5241 5240 ] final  101.25 input   60.02 | X-H torsion

> <Gold.Protein.ActiveResidues>
 GLU141  LEU142  LYS225  GLN242  LYS254  GLY256  GLN257  ASP258  ILE259  THR260 
 ASP261  TYR49   THR51   ALA52  

> <Gold.Protein.RotatedAtoms>
   48.8210   15.0237   28.9480 H   0  0  0  0  0  0  0  0  0  0  0  0  # atno 5253 bound_to 5242
   47.8360   13.9364   29.7197 H   0  0  0  0  0  0  0  0  0  0  0  0  # atno 5254 bound_to 5242
   47.6040   14.2688   28.1124 H   0  0  0  0  0  0  0  0  0  0  0  0  # atno 5255 bound_to 5242
   37.4512   22.2860   22.2690 H   0  0  0  0  0  0  0  0  0  0  0  0  # atno 5700 bound_to 5689
   39.0639   22.1618   22.6335 H   0  0  0  0  0  0  0  0  0  0  0  0  # atno 5701 bound_to 5689
   37.9635   22.4723   23.8334 H   0  0  0  0  0  0  0  0  0  0  0  0  # atno 5702 bound_to 5689
   43.6723   22.5146   21.1085 H   0  0  0  0  0  0  0  0  0  0  0  0  # atno 5778 bound_to 5771
   50.5695   16.8331    1.7719 H   0  0  0  0  0  0  0  0  0  0  0  0  # atno 6606 bound_to 6597
   43.7968   11.2882   11.3030 H   0  0  0  0  0  0  0  0  0  0  0  0  # atno 6631 bound_to 6624
   48.9626   16.7325    2.0077 LP  0  0  0  0  0  0  0  0  0  0  0  0  # atno 8772 bound_to 6597
   49.6527   15.9779    0.7346 LP  0  0  0  0  0  0  0  0  0  0  0  0  # atno 8773 bound_to 6597
   45.2404   11.3115   10.5516 LP  0  0  0  0  0  0  0  0  0  0  0  0  # atno 8778 bound_to 6624
   44.3759    9.9279   10.6223 LP  0  0  0  0  0  0  0  0  0  0  0  0  # atno 8779 bound_to 6624
   44.5683   22.0968   22.4013 LP  0  0  0  0  0  0  0  0  0  0  0  0  # atno 8782 bound_to 5771
   44.7359   21.2882   20.9925 LP  0  0  0  0  0  0  0  0  0  0  0  0  # atno 8783 bound_to 5771

> <Gold.Score>
     Fitness  S(hb_ext) S(vdw_ext)  S(hb_int)    S(int)      intcor
     27.02       2.00      18.77       0.00      -0.79      -0.76

> <Gold.Goldscore.Fitness>
27.0164

> <Gold.Goldscore.Internal.Vdw>
-1.1293

> <Gold.Goldscore.Internal.Torsion>
-0.4233

> <Gold.Goldscore.External.Vdw>
18.7712

> <Gold.Goldscore.Internal.HBond>
0.0000

> <Gold.Goldscore.External.HBond>
2.0000

> <Gold.Goldscore.Internal.Correction>
-0.7585

> <Gold.Goldscore.Hbonds>
donor molecule, donor type, donor heavy atom, donor atom, acceptor molecule, acceptor atom, score
      P1  H  5765  5772       L1    11  1.00

> <Gold.Goldscore.Internal.Vdw.Weighted>
-1.1293

> <Gold.Goldscore.Internal.Torsion.Weighted>
-0.4233

> <Gold.Goldscore.External.Vdw.Weighted>
25.8105

> <Gold.Goldscore.Internal.HBond.Weighted>
0.0000

> <Gold.Goldscore.External.HBond.Weighted>
2.0000

> <Gold.Goldscore.Internal.Correction.Weighted>
-0.7585

> <Gold.Rescore>
     Score     S(PLP)   S(hbond)     S(cho)   S(metal)  DE(clash)   DE(tors)     intcor
     24.21     -21.32       1.72       0.00       0.00       0.00       1.14       ----

> <Gold.PLP.Fitness>
24.2081

> <Gold.PLP.PLP>
-21.3161

> <Gold.PLP.part.hbond>
-5.7791

> <Gold.PLP.part.metal>
0.0000

> <Gold.PLP.part.buried>
-2.3487

> <Gold.PLP.part.nonpolar>
-16.1150

> <Gold.PLP.part.repulsive>
1.5548

> <Gold.PLP.ligand.clash>
0.0000

> <Gold.PLP.ligand.torsion>
1.1377

> <Gold.PLP.Chemscore.Hbond>
1.7225

> <Gold.PLP.Chemscore.CHOScore>
0.0000

> <Gold.PLP.Chemscore.Metal>
0.0000

> <Gold.Chemscore.Hbonds>
donor molecule, donor type, donor heavy atom, donor atom, acceptor molecule, acceptor atom, score
      P1  H  5765  5772       L1    11  1.00

> <Gold.PLP.Chemscore.Internal.Correction>
   9.000000E+99

