#       Name:                CT1002167954
#       Creating user name   hitesit
#       Creation time:       Sun Apr 16 02:21:40 2023


#       File generated by GOLD software.
#

@<TRIPOS>MOLECULE
CT1002167954|ligand_prepared|mol2|1|dock5
    29    30     1
SMALL
NO_CHARGES


@<TRIPOS>ATOM
      1 C1          64.0885  -6.5989  12.1304 C.3            1 RES1               0.0000
      2 C2          63.2776  -6.3297  10.8464 C.ar           1 RES1               0.0000
      3 C3          63.6450  -5.5493  13.1452 C.2            1 RES1               0.0000
      4 C4          63.7739  -8.0332  12.5408 C.2            1 RES1               0.0000
      5 C5          65.6186  -6.4815  11.9391 C.3            1 RES1               0.0000
      6 C6          63.8212  -5.5770   9.8097 C.ar           1 RES1               0.0000
      7 C7          61.9881  -6.8288  10.6832 C.ar           1 RES1               0.0000
      8 N8          62.8424  -5.9595  14.1687 N.am           1 RES1               0.0000
      9 O9          63.9621  -4.3721  13.0271 O.2            1 RES1               0.0000
     10 N10         63.0982  -8.2310  13.7165 N.am           1 RES1               0.0000
     11 O11         64.0903  -8.9928  11.8486 O.2            1 RES1               0.0000
     12 C12         66.4261  -7.0264  13.1067 C.3            1 RES1               0.0000
     13 C13         63.1029  -5.3345   8.6506 C.ar           1 RES1               0.0000
     14 C14         61.2713  -6.5848   9.5233 C.ar           1 RES1               0.0000
     15 C15         62.5912  -7.2577  14.5337 C.2            1 RES1               0.0000
     16 C16         61.8278  -5.8385   8.5064 C.ar           1 RES1               0.0000
     17 O17         61.9469  -7.5146  15.5466 O.2            1 RES1               0.0000
     18 H18         65.9034  -7.0239  11.0292 H              1 RES1               0.0000
     19 H19         65.8763  -5.4250  11.7942 H              1 RES1               0.0000
     20 H20         64.8223  -5.1701   9.9062 H              1 RES1               0.0000
     21 H21         61.5297  -7.4176  11.4704 H              1 RES1               0.0000
     22 H22         62.3868  -5.2339  14.7129 H              1 RES1               0.0000
     23 H23         62.9605  -9.1930  14.0096 H              1 RES1               0.0000
     24 H24         67.4928  -6.9195  12.9212 H              1 RES1               0.0000
     25 H25         66.1865  -6.4925  14.0240 H              1 RES1               0.0000
     26 H26         66.2134  -8.0819  13.2635 H              1 RES1               0.0000
     27 H27         63.5448  -4.7454   7.8538 H              1 RES1               0.0000
     28 H28         60.2679  -6.9830   9.4144 H              1 RES1               0.0000
     29 H29         61.2654  -5.6487   7.5981 H              1 RES1               0.0000
@<TRIPOS>BOND
    1    1    2 1     
    2    1    3 1     
    3    1    4 1     
    4    1    5 1     
    5    2    6 ar    
    6    2    7 ar    
    7    3    8 1     
    8    3    9 2     
    9    4   10 1     
   10    4   11 2     
   11    5   12 1     
   12    5   18 1     
   13    5   19 1     
   14    6   13 ar    
   15    6   20 1     
   16    7   14 ar    
   17    7   21 1     
   18    8   15 1     
   19    8   22 1     
   20   10   15 1     
   21   10   23 1     
   22   12   24 1     
   23   12   25 1     
   24   12   26 1     
   25   13   16 ar    
   26   13   27 1     
   27   14   16 ar    
   28   14   28 1     
   29   15   17 2     
   30   16   29 1     
@<TRIPOS>SUBSTRUCTURE
      1 RES1           1
@<TRIPOS>SET
DONOR_HYDROGENS      STATIC     ATOMS    <user>   **** ""
2 22 23
ATOM$RED        STATIC     ATOMS    COLORGROUP SYSTEM
2 22 23
@<TRIPOS>COMMENT
> <Gold.Version>
2022.3.0

> <Gold.Id.Protein>
unknown|4g3y_cavity_clean|pdb

> <Gold.Protein.RotatedTorsions>
[ 8140 8133 8131 8128 ] final  166.54 input   60.03 | X-H torsion
[ 8349 8342 8340 8337 ] final -162.10 input   60.00 | X-H torsion
[ 8379 8374 8373 8370 ] final -134.09 input   60.00 | X-H torsion
[ 5333 5330 5329 5326 ] final  103.56 input   60.01 | X-H torsion
[ 8399 8388 8387 8386 ] final -106.53 input   60.01 | X-H torsion
[ 5404 5399 5398 5395 ] final   -1.62 input   59.99 | X-H torsion
[ 5434 5429 5428 5425 ] final -170.28 input   59.99 | X-H torsion
[ 7810 7801 7800 7798 ] final   -1.81 input   60.01 | X-H torsion

> <Gold.Protein.ActiveResidues>
 LEU148  LYS150  PHE173  PRO174  ALA175  VAL176  GLN178  SER179  SER184  LEU185 
 SER186  TYR140  ARG142  VAL163  THR164  GLU165  GLN166  ASP167  LEU179  THR180 
 LEU181  SER182  LYS183 

> <Gold.Protein.RotatedAtoms>
   63.6902  -10.1184    8.4490 H   0  0  0  0  0  0  0  0  0  0  0  0  # atno 5333 bound_to 5330
   58.3723  -10.7833   19.5195 H   0  0  0  0  0  0  0  0  0  0  0  0  # atno 5404 bound_to 5399
   58.7583   -6.0213   24.1392 H   0  0  0  0  0  0  0  0  0  0  0  0  # atno 5434 bound_to 5429
   45.1766   14.1734   21.0011 H   0  0  0  0  0  0  0  0  0  0  0  0  # atno 7810 bound_to 7801
   49.0287    2.6952   24.4783 H   0  0  0  0  0  0  0  0  0  0  0  0  # atno 8140 bound_to 8133
   64.2236   -8.6173   17.2183 H   0  0  0  0  0  0  0  0  0  0  0  0  # atno 8349 bound_to 8342
   74.7830  -10.6713   14.5231 H   0  0  0  0  0  0  0  0  0  0  0  0  # atno 8379 bound_to 8374
   74.9599  -17.4458   24.7137 H   0  0  0  0  0  0  0  0  0  0  0  0  # atno 8399 bound_to 8388
   74.8733  -18.0659   23.1790 H   0  0  0  0  0  0  0  0  0  0  0  0  # atno 8400 bound_to 8388
   76.3425  -17.9253   23.9353 H   0  0  0  0  0  0  0  0  0  0  0  0  # atno 8401 bound_to 8388
   48.7312    3.3033   22.9985 LP  0  0  0  0  0  0  0  0  0  0  0  0  # atno 8830 bound_to 8133
   50.2501    2.8750   23.4182 LP  0  0  0  0  0  0  0  0  0  0  0  0  # atno 8831 bound_to 8133
   64.2791   -7.0167   17.5074 LP  0  0  0  0  0  0  0  0  0  0  0  0  # atno 8862 bound_to 8342
   65.1067   -8.0509   18.4625 LP  0  0  0  0  0  0  0  0  0  0  0  0  # atno 8863 bound_to 8342
   75.3672  -11.6208   15.7089 LP  0  0  0  0  0  0  0  0  0  0  0  0  # atno 8874 bound_to 8374
   74.4602  -10.3140   16.0778 LP  0  0  0  0  0  0  0  0  0  0  0  0  # atno 8875 bound_to 8374
   62.5717   -9.5982    9.5108 LP  0  0  0  0  0  0  0  0  0  0  0  0  # atno 8878 bound_to 5330
   63.4486   -8.5216    8.6514 LP  0  0  0  0  0  0  0  0  0  0  0  0  # atno 8879 bound_to 5330
   59.2330   -9.4247   19.2731 LP  0  0  0  0  0  0  0  0  0  0  0  0  # atno 8884 bound_to 5399
   59.6912  -10.8244   18.5676 LP  0  0  0  0  0  0  0  0  0  0  0  0  # atno 8885 bound_to 5399
   57.9870   -6.6466   22.8501 LP  0  0  0  0  0  0  0  0  0  0  0  0  # atno 8890 bound_to 5429
   58.2184   -7.5556   24.1868 LP  0  0  0  0  0  0  0  0  0  0  0  0  # atno 8891 bound_to 5429
   46.0832   15.5175   20.8648 LP  0  0  0  0  0  0  0  0  0  0  0  0  # atno 8894 bound_to 7801
   44.8515   15.4649   21.9358 LP  0  0  0  0  0  0  0  0  0  0  0  0  # atno 8895 bound_to 7801

> <Gold.Score>
     Fitness  S(hb_ext) S(vdw_ext)  S(hb_int)    S(int)      intcor
     29.28       0.00      21.69       0.00      -0.54      -0.76

> <Gold.Goldscore.Fitness>
29.2844

> <Gold.Goldscore.Internal.Vdw>
-0.7026

> <Gold.Goldscore.Internal.Torsion>
-0.5947

> <Gold.Goldscore.External.Vdw>
21.6915

> <Gold.Goldscore.Internal.HBond>
0.0000

> <Gold.Goldscore.External.HBond>
0.0000

> <Gold.Goldscore.Internal.Correction>
-0.7558

> <Gold.Goldscore.Internal.Vdw.Weighted>
-0.7026

> <Gold.Goldscore.Internal.Torsion.Weighted>
-0.5947

> <Gold.Goldscore.External.Vdw.Weighted>
29.8258

> <Gold.Goldscore.Internal.HBond.Weighted>
0.0000

> <Gold.Goldscore.External.HBond.Weighted>
0.0000

> <Gold.Goldscore.Internal.Correction.Weighted>
-0.7558

> <Gold.Rescore>
     Score     S(PLP)   S(hbond)     S(cho)   S(metal)  DE(clash)   DE(tors)     intcor
     25.63     -23.27       0.99       0.00       0.00       0.00       0.31       ----

> <Gold.PLP.Fitness>
25.6340

> <Gold.PLP.PLP>
-23.2743

> <Gold.PLP.part.hbond>
-2.9169

> <Gold.PLP.part.metal>
0.0000

> <Gold.PLP.part.buried>
-6.3016

> <Gold.PLP.part.nonpolar>
-15.0231

> <Gold.PLP.part.repulsive>
0.6513

> <Gold.PLP.ligand.clash>
0.0000

> <Gold.PLP.ligand.torsion>
0.3070

> <Gold.PLP.Chemscore.Hbond>
0.9913

> <Gold.PLP.Chemscore.CHOScore>
0.0000

> <Gold.PLP.Chemscore.Metal>
0.0000

> <Gold.PLP.Chemscore.Internal.Correction>
   9.000000E+99

