#       Name:                CT1002167954
#       Creating user name   hitesit
#       Creation time:       Sun Apr 16 02:21:41 2023


#       File generated by GOLD software.
#

@<TRIPOS>MOLECULE
CT1002167954|ligand_prepared|mol2|1|dock6
    29    30     1
SMALL
NO_CHARGES


@<TRIPOS>ATOM
      1 C1          63.8210  -7.4071  12.5610 C.3            1 RES1               0.0000
      2 C2          63.4783  -7.0430  11.1019 C.ar           1 RES1               0.0000
      3 C3          64.6704  -8.6732  12.4985 C.2            1 RES1               0.0000
      4 C4          64.5468  -6.1991  13.1429 C.2            1 RES1               0.0000
      5 C5          62.5818  -7.6899  13.4419 C.3            1 RES1               0.0000
      6 C6          62.1950  -6.6294  10.7575 C.ar           1 RES1               0.0000
      7 C7          64.4339  -7.1132  10.0917 C.ar           1 RES1               0.0000
      8 N8          66.0060  -8.5508  12.7456 N.am           1 RES1               0.0000
      9 O9          64.1825  -9.7557  12.1981 O.2            1 RES1               0.0000
     10 N10         65.8635  -6.3480  13.4920 N.am           1 RES1               0.0000
     11 O11         63.9950  -5.1151  13.2867 O.2            1 RES1               0.0000
     12 C12         62.9132  -8.3421  14.7750 C.3            1 RES1               0.0000
     13 C13         61.8790  -6.2951   9.4511 C.ar           1 RES1               0.0000
     14 C14         64.1158  -6.7787   8.7858 C.ar           1 RES1               0.0000
     15 C15         66.6345  -7.4604  13.2912 C.2            1 RES1               0.0000
     16 C16         62.8392  -6.3691   8.4645 C.ar           1 RES1               0.0000
     17 O17         67.8265  -7.4997  13.5821 O.2            1 RES1               0.0000
     18 H18         62.0601  -6.7438  13.6317 H              1 RES1               0.0000
     19 H19         61.8975  -8.3451  12.8888 H              1 RES1               0.0000
     20 H20         61.4256  -6.5674  11.5199 H              1 RES1               0.0000
     21 H21         65.4444  -7.4338  10.3211 H              1 RES1               0.0000
     22 H22         66.5916  -9.3433  12.5022 H              1 RES1               0.0000
     23 H23         66.3102  -5.5562  13.9436 H              1 RES1               0.0000
     24 H24         62.0087  -8.5186  15.3534 H              1 RES1               0.0000
     25 H25         63.4106  -9.2978  14.6238 H              1 RES1               0.0000
     26 H26         63.5723  -7.7060  15.3622 H              1 RES1               0.0000
     27 H27         60.8725  -5.9747   9.2031 H              1 RES1               0.0000
     28 H28         64.8745  -6.8390   8.0125 H              1 RES1               0.0000
     29 H29         62.5915  -6.1069   7.4412 H              1 RES1               0.0000
@<TRIPOS>BOND
    1    1    2 1     
    2    1    3 1     
    3    1    4 1     
    4    1    5 1     
    5    2    6 ar    
    6    2    7 ar    
    7    3    8 1     
    8    3    9 2     
    9    4   10 1     
   10    4   11 2     
   11    5   12 1     
   12    5   18 1     
   13    5   19 1     
   14    6   13 ar    
   15    6   20 1     
   16    7   14 ar    
   17    7   21 1     
   18    8   15 1     
   19    8   22 1     
   20   10   15 1     
   21   10   23 1     
   22   12   24 1     
   23   12   25 1     
   24   12   26 1     
   25   13   16 ar    
   26   13   27 1     
   27   14   16 ar    
   28   14   28 1     
   29   15   17 2     
   30   16   29 1     
@<TRIPOS>SUBSTRUCTURE
      1 RES1           1
@<TRIPOS>SET
DONOR_HYDROGENS      STATIC     ATOMS    <user>   **** ""
2 22 23
ATOM$RED        STATIC     ATOMS    COLORGROUP SYSTEM
2 22 23
@<TRIPOS>COMMENT
> <Gold.Version>
2022.3.0

> <Gold.Id.Protein>
unknown|4g3y_cavity_clean|pdb

> <Gold.Protein.RotatedTorsions>
[ 8140 8133 8131 8128 ] final  160.21 input   60.03 | X-H torsion
[ 8349 8342 8340 8337 ] final  -85.56 input   60.00 | X-H torsion
[ 8379 8374 8373 8370 ] final   80.40 input   60.00 | X-H torsion
[ 5333 5330 5329 5326 ] final   48.47 input   60.01 | X-H torsion
[ 8399 8388 8387 8386 ] final  140.95 input   60.01 | X-H torsion
[ 5404 5399 5398 5395 ] final  176.55 input   59.99 | X-H torsion
[ 5434 5429 5428 5425 ] final   41.38 input   59.99 | X-H torsion
[ 7810 7801 7800 7798 ] final  -57.01 input   60.01 | X-H torsion

> <Gold.Protein.ActiveResidues>
 LEU148  LYS150  PHE173  PRO174  ALA175  VAL176  GLN178  SER179  SER184  LEU185 
 SER186  TYR140  ARG142  VAL163  THR164  GLU165  GLN166  ASP167  LEU179  THR180 
 LEU181  SER182  LYS183 

> <Gold.Protein.RotatedAtoms>
   63.0840  -10.3236    9.0326 H   0  0  0  0  0  0  0  0  0  0  0  0  # atno 5333 bound_to 5330
   59.8277   -9.9321   18.7069 H   0  0  0  0  0  0  0  0  0  0  0  0  # atno 5404 bound_to 5399
   57.8797   -7.0764   22.9737 H   0  0  0  0  0  0  0  0  0  0  0  0  # atno 5434 bound_to 5429
   45.8398   14.5741   20.6117 H   0  0  0  0  0  0  0  0  0  0  0  0  # atno 7810 bound_to 7801
   48.9344    2.7239   24.4465 H   0  0  0  0  0  0  0  0  0  0  0  0  # atno 8140 bound_to 8133
   64.9255   -8.6411   18.1415 H   0  0  0  0  0  0  0  0  0  0  0  0  # atno 8349 bound_to 8342
   75.2344  -11.4562   16.0659 H   0  0  0  0  0  0  0  0  0  0  0  0  # atno 8379 bound_to 8374
   76.3404  -17.8776   24.0504 H   0  0  0  0  0  0  0  0  0  0  0  0  # atno 8399 bound_to 8388
   74.8532  -17.4599   24.6512 H   0  0  0  0  0  0  0  0  0  0  0  0  # atno 8400 bound_to 8388
   74.9823  -18.0994   23.1265 H   0  0  0  0  0  0  0  0  0  0  0  0  # atno 8401 bound_to 8388
   48.8129    3.3126   22.9344 LP  0  0  0  0  0  0  0  0  0  0  0  0  # atno 8830 bound_to 8133
   50.2634    2.8368   23.5143 LP  0  0  0  0  0  0  0  0  0  0  0  0  # atno 8831 bound_to 8133
   63.9776   -8.0126   16.9773 LP  0  0  0  0  0  0  0  0  0  0  0  0  # atno 8862 bound_to 8342
   64.7015   -7.0310   18.0631 LP  0  0  0  0  0  0  0  0  0  0  0  0  # atno 8863 bound_to 8342
   74.3551  -10.1313   15.7187 LP  0  0  0  0  0  0  0  0  0  0  0  0  # atno 8874 bound_to 8374
   75.0178  -11.0133   14.5147 LP  0  0  0  0  0  0  0  0  0  0  0  0  # atno 8875 bound_to 8374
   62.7404   -8.7613    9.3332 LP  0  0  0  0  0  0  0  0  0  0  0  0  # atno 8878 bound_to 5330
   63.8902   -9.1518    8.2414 LP  0  0  0  0  0  0  0  0  0  0  0  0  # atno 8879 bound_to 5330
   58.9379  -11.2649   18.9882 LP  0  0  0  0  0  0  0  0  0  0  0  0  # atno 8884 bound_to 5399
   58.5203   -9.8416   19.6710 LP  0  0  0  0  0  0  0  0  0  0  0  0  # atno 8885 bound_to 5399
   58.4437   -7.2850   24.4857 LP  0  0  0  0  0  0  0  0  0  0  0  0  # atno 8890 bound_to 5429
   58.6469   -5.8541   23.7255 LP  0  0  0  0  0  0  0  0  0  0  0  0  # atno 8891 bound_to 5429
   45.6241   15.9317   21.4820 LP  0  0  0  0  0  0  0  0  0  0  0  0  # atno 8894 bound_to 7801
   44.6425   14.6470   21.7109 LP  0  0  0  0  0  0  0  0  0  0  0  0  # atno 8895 bound_to 7801

> <Gold.Score>
     Fitness  S(hb_ext) S(vdw_ext)  S(hb_int)    S(int)      intcor
     26.43       0.00      19.77       0.00      -0.76      -0.76

> <Gold.Goldscore.Fitness>
26.4275

> <Gold.Goldscore.Internal.Vdw>
-0.8848

> <Gold.Goldscore.Internal.Torsion>
-0.6308

> <Gold.Goldscore.External.Vdw>
19.7725

> <Gold.Goldscore.Internal.HBond>
0.0000

> <Gold.Goldscore.External.HBond>
0.0000

> <Gold.Goldscore.Internal.Correction>
-0.7558

> <Gold.Goldscore.Internal.Vdw.Weighted>
-0.8848

> <Gold.Goldscore.Internal.Torsion.Weighted>
-0.6308

> <Gold.Goldscore.External.Vdw.Weighted>
27.1872

> <Gold.Goldscore.Internal.HBond.Weighted>
0.0000

> <Gold.Goldscore.External.HBond.Weighted>
0.0000

> <Gold.Goldscore.Internal.Correction.Weighted>
-0.7558

> <Gold.Rescore>
     Score     S(PLP)   S(hbond)     S(cho)   S(metal)  DE(clash)   DE(tors)     intcor
     23.34     -21.40       0.68       0.00       0.00       0.00       0.06       ----

> <Gold.PLP.Fitness>
23.3354

> <Gold.PLP.PLP>
-21.4012

> <Gold.PLP.part.hbond>
-1.8157

> <Gold.PLP.part.metal>
0.0000

> <Gold.PLP.part.buried>
-5.8169

> <Gold.PLP.part.nonpolar>
-16.0802

> <Gold.PLP.part.repulsive>
0.2957

> <Gold.PLP.ligand.clash>
0.0000

> <Gold.PLP.ligand.torsion>
0.0566

> <Gold.PLP.Chemscore.Hbond>
0.6825

> <Gold.PLP.Chemscore.CHOScore>
0.0000

> <Gold.PLP.Chemscore.Metal>
0.0000

> <Gold.PLP.Chemscore.Internal.Correction>
   9.000000E+99

