#       Name:                CT1002167954
#       Creating user name   hitesit
#       Creation time:       Sun Apr 16 02:21:37 2023


#       File generated by GOLD software.
#

@<TRIPOS>MOLECULE
CT1002167954|ligand_prepared|mol2|1|dock3
    29    30     1
SMALL
NO_CHARGES


@<TRIPOS>ATOM
      1 C1          63.7545  -7.1651  11.9494 C.3            1 RES1               0.0000
      2 C2          64.4204  -8.5530  12.0460 C.ar           1 RES1               0.0000
      3 C3          62.4856  -7.2391  12.7936 C.2            1 RES1               0.0000
      4 C4          64.7833  -6.1619  12.4591 C.2            1 RES1               0.0000
      5 C5          63.3635  -6.7586  10.5095 C.3            1 RES1               0.0000
      6 C6          63.8374  -9.6623  11.4409 C.ar           1 RES1               0.0000
      7 C7          65.6170  -8.7387  12.7332 C.ar           1 RES1               0.0000
      8 N8          62.4886  -6.5964  13.9964 N.am           1 RES1               0.0000
      9 O9          61.5111  -7.8844  12.4273 O.2            1 RES1               0.0000
     10 N10         64.5014  -5.4853  13.6169 N.am           1 RES1               0.0000
     11 O11         65.8428  -5.9634  11.8775 O.2            1 RES1               0.0000
     12 C12         62.8522  -5.3313  10.3927 C.3            1 RES1               0.0000
     13 C13         64.4305 -10.9116  11.5175 C.ar           1 RES1               0.0000
     14 C14         66.2084  -9.9889  12.8088 C.ar           1 RES1               0.0000
     15 C15         63.4145  -5.6795  14.4251 C.2            1 RES1               0.0000
     16 C16         65.6165 -11.0756  12.2010 C.ar           1 RES1               0.0000
     17 O17         63.2578  -5.0708  15.4797 O.2            1 RES1               0.0000
     18 H18         64.2398  -6.8741   9.8597 H              1 RES1               0.0000
     19 H19         62.5858  -7.4428  10.1482 H              1 RES1               0.0000
     20 H20         62.9028  -9.5530  10.9008 H              1 RES1               0.0000
     21 H21         66.1000  -7.8982  13.2200 H              1 RES1               0.0000
     22 H22         61.7326  -6.8180  14.6364 H              1 RES1               0.0000
     23 H23         65.1631  -4.7706  13.9028 H              1 RES1               0.0000
     24 H24         62.5922  -5.0978   9.3624 H              1 RES1               0.0000
     25 H25         61.9657  -5.1877  11.0069 H              1 RES1               0.0000
     26 H26         63.6099  -4.6223  10.7201 H              1 RES1               0.0000
     27 H27         63.9600 -11.7639  11.0387 H              1 RES1               0.0000
     28 H28         67.1415 -10.1135  13.3483 H              1 RES1               0.0000
     29 H29         66.0812 -12.0543  12.2606 H              1 RES1               0.0000
@<TRIPOS>BOND
    1    1    2 1     
    2    1    3 1     
    3    1    4 1     
    4    1    5 1     
    5    2    6 ar    
    6    2    7 ar    
    7    3    8 1     
    8    3    9 2     
    9    4   10 1     
   10    4   11 2     
   11    5   12 1     
   12    5   18 1     
   13    5   19 1     
   14    6   13 ar    
   15    6   20 1     
   16    7   14 ar    
   17    7   21 1     
   18    8   15 1     
   19    8   22 1     
   20   10   15 1     
   21   10   23 1     
   22   12   24 1     
   23   12   25 1     
   24   12   26 1     
   25   13   16 ar    
   26   13   27 1     
   27   14   16 ar    
   28   14   28 1     
   29   15   17 2     
   30   16   29 1     
@<TRIPOS>SUBSTRUCTURE
      1 RES1           1
@<TRIPOS>SET
DONOR_HYDROGENS      STATIC     ATOMS    <user>   **** ""
2 22 23
ATOM$RED        STATIC     ATOMS    COLORGROUP SYSTEM
2 22 23
@<TRIPOS>COMMENT
> <Gold.Version>
2022.3.0

> <Gold.Id.Protein>
unknown|4g3y_cavity_clean|pdb

> <Gold.Protein.RotatedTorsions>
[ 8140 8133 8131 8128 ] final  -61.19 input   60.03 | X-H torsion
[ 8349 8342 8340 8337 ] final  148.96 input   60.00 | X-H torsion
[ 8379 8374 8373 8370 ] final   61.43 input   60.00 | X-H torsion
[ 5333 5330 5329 5326 ] final  157.15 input   60.01 | X-H torsion
[ 8399 8388 8387 8386 ] final -144.61 input   60.01 | X-H torsion
[ 5404 5399 5398 5395 ] final -132.01 input   59.99 | X-H torsion
[ 5434 5429 5428 5425 ] final  -22.03 input   59.99 | X-H torsion
[ 7810 7801 7800 7798 ] final  115.85 input   60.01 | X-H torsion

> <Gold.Protein.ActiveResidues>
 LEU148  LYS150  PHE173  PRO174  ALA175  VAL176  GLN178  SER179  SER184  LEU185 
 SER186  TYR140  ARG142  VAL163  THR164  GLU165  GLN166  ASP167  LEU179  THR180 
 LEU181  SER182  LYS183 

> <Gold.Protein.RotatedAtoms>
   63.9107   -9.3354    8.2228 H   0  0  0  0  0  0  0  0  0  0  0  0  # atno 5333 bound_to 5330
   59.3649   -9.4497   19.1684 H   0  0  0  0  0  0  0  0  0  0  0  0  # atno 5404 bound_to 5399
   58.0196   -7.6234   23.7794 H   0  0  0  0  0  0  0  0  0  0  0  0  # atno 5434 bound_to 5429
   44.8362   15.4290   21.9354 H   0  0  0  0  0  0  0  0  0  0  0  0  # atno 7810 bound_to 7801
   50.1866    2.9489   23.2425 H   0  0  0  0  0  0  0  0  0  0  0  0  # atno 8140 bound_to 8133
   63.9732   -7.9228   16.9800 H   0  0  0  0  0  0  0  0  0  0  0  0  # atno 8349 bound_to 8342
   75.0910  -11.2599   16.2560 H   0  0  0  0  0  0  0  0  0  0  0  0  # atno 8379 bound_to 8374
   75.5745  -17.4738   24.8188 H   0  0  0  0  0  0  0  0  0  0  0  0  # atno 8399 bound_to 8388
   74.4914  -17.8412   23.6191 H   0  0  0  0  0  0  0  0  0  0  0  0  # atno 8400 bound_to 8388
   76.1098  -18.1219   23.3902 H   0  0  0  0  0  0  0  0  0  0  0  0  # atno 8401 bound_to 8388
   49.2204    2.6493   24.5172 LP  0  0  0  0  0  0  0  0  0  0  0  0  # atno 8830 bound_to 8133
   48.5951    3.2735   23.1438 LP  0  0  0  0  0  0  0  0  0  0  0  0  # atno 8831 bound_to 8133
   64.7530   -7.0698   18.1260 LP  0  0  0  0  0  0  0  0  0  0  0  0  # atno 8862 bound_to 8342
   64.8848   -8.6970   18.0838 LP  0  0  0  0  0  0  0  0  0  0  0  0  # atno 8863 bound_to 8342
   74.3417  -10.0877   15.4114 LP  0  0  0  0  0  0  0  0  0  0  0  0  # atno 8874 bound_to 8374
   75.1756  -11.2546   14.6306 LP  0  0  0  0  0  0  0  0  0  0  0  0  # atno 8875 bound_to 8374
   62.9568  -10.2676    9.1556 LP  0  0  0  0  0  0  0  0  0  0  0  0  # atno 8878 bound_to 5330
   62.8414   -8.6406    9.2342 LP  0  0  0  0  0  0  0  0  0  0  0  0  # atno 8879 bound_to 5330
   59.5915  -10.9583   18.6029 LP  0  0  0  0  0  0  0  0  0  0  0  0  # atno 8884 bound_to 5399
   58.3329  -10.6341   19.5915 LP  0  0  0  0  0  0  0  0  0  0  0  0  # atno 8885 bound_to 5399
   58.7739   -6.3510   24.4573 LP  0  0  0  0  0  0  0  0  0  0  0  0  # atno 8890 bound_to 5429
   58.1759   -6.2370   22.9421 LP  0  0  0  0  0  0  0  0  0  0  0  0  # atno 8891 bound_to 5429
   45.2025   14.1700   20.9722 LP  0  0  0  0  0  0  0  0  0  0  0  0  # atno 8894 bound_to 7801
   46.0750   15.5477   20.8873 LP  0  0  0  0  0  0  0  0  0  0  0  0  # atno 8895 bound_to 7801

> <Gold.Score>
     Fitness  S(hb_ext) S(vdw_ext)  S(hb_int)    S(int)      intcor
     26.43       0.07      20.50       0.00      -1.83      -0.76

> <Gold.Goldscore.Fitness>
26.4311

> <Gold.Goldscore.Internal.Vdw>
-2.1504

> <Gold.Goldscore.Internal.Torsion>
-0.4318

> <Gold.Goldscore.External.Vdw>
20.4973

> <Gold.Goldscore.Internal.HBond>
0.0000

> <Gold.Goldscore.External.HBond>
0.0737

> <Gold.Goldscore.Internal.Correction>
-0.7558

> <Gold.Goldscore.Hbonds>
donor molecule, donor type, donor heavy atom, donor atom, acceptor molecule, acceptor atom, score
      P1  H  5325  5334       L1     9  0.04

> <Gold.Goldscore.Internal.Vdw.Weighted>
-2.1504

> <Gold.Goldscore.Internal.Torsion.Weighted>
-0.4318

> <Gold.Goldscore.External.Vdw.Weighted>
28.1838

> <Gold.Goldscore.Internal.HBond.Weighted>
0.0000

> <Gold.Goldscore.External.HBond.Weighted>
0.0737

> <Gold.Goldscore.Internal.Correction.Weighted>
-0.7558

> <Gold.Rescore>
     Score     S(PLP)   S(hbond)     S(cho)   S(metal)  DE(clash)   DE(tors)     intcor
     24.00     -22.57       1.00       0.00       0.00       1.38       0.09       ----

> <Gold.PLP.Fitness>
24.0022

> <Gold.PLP.PLP>
-22.5697

> <Gold.PLP.part.hbond>
-3.0000

> <Gold.PLP.part.metal>
0.0000

> <Gold.PLP.part.buried>
-5.4377

> <Gold.PLP.part.nonpolar>
-14.8202

> <Gold.PLP.part.repulsive>
0.6352

> <Gold.PLP.ligand.clash>
1.3825

> <Gold.PLP.ligand.torsion>
0.0925

> <Gold.PLP.Chemscore.Hbond>
1.0000

> <Gold.PLP.Chemscore.CHOScore>
0.0000

> <Gold.PLP.Chemscore.Metal>
0.0000

> <Gold.PLP.Chemscore.Internal.Correction>
   9.000000E+99

