#       Name:                GA Fitting Points
#       Creating user name   hitesit
#       Creation time:       Sun Apr 16 02:21:50 2023


#       Fitting Points Used by GA Software.
#

@<TRIPOS>MOLECULE
GA Fitting Points
   559    0    0
SMALL
NO_CHARGES


@<TRIPOS>ATOM
      1 ****        18.0000  17.2500  35.0000 Du        
      2 ****        18.0000  17.2500  35.2500 Du        
      3 ****        18.0000  17.2500  35.5000 Du        
      4 ****        18.0000  17.2500  35.7500 Du        
      5 ****        18.0000  17.2500  36.0000 Du        
      6 ****        18.0000  17.5000  35.0000 Du        
      7 ****        18.0000  17.5000  35.2500 Du        
      8 ****        18.0000  17.5000  35.5000 Du        
      9 ****        18.0000  17.5000  35.7500 Du        
     10 ****        18.0000  17.5000  36.0000 Du        
     11 ****        18.0000  17.5000  36.2500 Du        
     12 ****        18.0000  17.7500  34.5000 Du        
     13 ****        18.0000  17.7500  34.7500 Du        
     14 ****        18.0000  17.7500  35.0000 Du        
     15 ****        18.0000  17.7500  35.2500 Du        
     16 ****        18.0000  17.7500  35.5000 Du        
     17 ****        18.0000  17.7500  35.7500 Du        
     18 ****        18.0000  17.7500  36.0000 Du        
     19 ****        18.0000  17.7500  36.2500 Du        
     20 ****        18.0000  18.0000  34.5000 Du        
     21 ****        18.0000  18.0000  34.7500 Du        
     22 ****        18.0000  18.0000  35.0000 Du        
     23 ****        18.0000  18.0000  35.2500 Du        
     24 ****        18.0000  18.0000  35.5000 Du        
     25 ****        18.0000  18.0000  35.7500 Du        
     26 ****        18.0000  18.0000  36.0000 Du        
     27 ****        18.0000  18.0000  36.2500 Du        
     28 ****        18.0000  18.2500  34.5000 Du        
     29 ****        18.0000  18.2500  34.7500 Du        
     30 ****        18.0000  18.2500  35.0000 Du        
     31 ****        18.0000  18.2500  35.2500 Du        
     32 ****        18.0000  18.2500  35.5000 Du        
     33 ****        18.0000  18.2500  35.7500 Du        
     34 ****        18.0000  18.5000  34.5000 Du        
     35 ****        18.0000  18.5000  34.7500 Du        
     36 ****        18.0000  18.5000  35.0000 Du        
     37 ****        18.0000  18.5000  35.2500 Du        
     38 ****        18.0000  18.7500  34.0000 Du        
     39 ****        18.0000  18.7500  34.2500 Du        
     40 ****        18.0000  18.7500  34.5000 Du        
     41 ****        18.0000  18.7500  34.7500 Du        
     42 ****        18.0000  19.0000  34.0000 Du        
     43 ****        18.0000  19.0000  34.2500 Du        
     44 ****        18.0000  19.2500  34.0000 Du        
     45 ****        18.2500  17.2500  35.5000 Du        
     46 ****        18.2500  17.2500  35.7500 Du        
     47 ****        18.2500  17.2500  36.0000 Du        
     48 ****        18.2500  17.5000  34.5000 Du        
     49 ****        18.2500  17.5000  34.7500 Du        
     50 ****        18.2500  17.5000  35.0000 Du        
     51 ****        18.2500  17.5000  35.2500 Du        
     52 ****        18.2500  17.5000  35.5000 Du        
     53 ****        18.2500  17.5000  35.7500 Du        
     54 ****        18.2500  17.5000  36.0000 Du        
     55 ****        18.2500  17.5000  36.2500 Du        
     56 ****        18.2500  17.7500  34.2500 Du        
     57 ****        18.2500  17.7500  34.5000 Du        
     58 ****        18.2500  17.7500  34.7500 Du        
     59 ****        18.2500  17.7500  35.0000 Du        
     60 ****        18.2500  17.7500  35.2500 Du        
     61 ****        18.2500  17.7500  35.5000 Du        
     62 ****        18.2500  17.7500  35.7500 Du        
     63 ****        18.2500  17.7500  36.0000 Du        
     64 ****        18.2500  17.7500  36.2500 Du        
     65 ****        18.2500  18.0000  34.0000 Du        
     66 ****        18.2500  18.0000  34.2500 Du        
     67 ****        18.2500  18.0000  34.5000 Du        
     68 ****        18.2500  18.0000  34.7500 Du        
     69 ****        18.2500  18.0000  35.0000 Du        
     70 ****        18.2500  18.0000  35.2500 Du        
     71 ****        18.2500  18.0000  35.5000 Du        
     72 ****        18.2500  18.0000  35.7500 Du        
     73 ****        18.2500  18.0000  36.0000 Du        
     74 ****        18.2500  18.0000  36.2500 Du        
     75 ****        18.2500  18.2500  34.0000 Du        
     76 ****        18.2500  18.2500  34.2500 Du        
     77 ****        18.2500  18.2500  34.5000 Du        
     78 ****        18.2500  18.2500  34.7500 Du        
     79 ****        18.2500  18.2500  35.0000 Du        
     80 ****        18.2500  18.2500  35.2500 Du        
     81 ****        18.2500  18.2500  35.5000 Du        
     82 ****        18.2500  18.2500  35.7500 Du        
     83 ****        18.2500  18.2500  36.0000 Du        
     84 ****        18.2500  18.2500  36.2500 Du        
     85 ****        18.2500  18.5000  34.0000 Du        
     86 ****        18.2500  18.5000  34.2500 Du        
     87 ****        18.2500  18.5000  34.5000 Du        
     88 ****        18.2500  18.5000  34.7500 Du        
     89 ****        18.2500  18.5000  35.0000 Du        
     90 ****        18.2500  18.7500  33.5000 Du        
     91 ****        18.2500  18.7500  33.7500 Du        
     92 ****        18.2500  18.7500  34.0000 Du        
     93 ****        18.2500  18.7500  34.2500 Du        
     94 ****        18.2500  18.7500  34.5000 Du        
     95 ****        18.2500  19.0000  33.5000 Du        
     96 ****        18.2500  19.0000  33.7500 Du        
     97 ****        18.2500  19.0000  34.0000 Du        
     98 ****        18.2500  19.2500  33.5000 Du        
     99 ****        18.2500  19.2500  33.7500 Du        
    100 ****        18.5000  17.5000  34.7500 Du        
    101 ****        18.5000  17.5000  35.0000 Du        
    102 ****        18.5000  17.5000  35.2500 Du        
    103 ****        18.5000  17.5000  35.5000 Du        
    104 ****        18.5000  17.5000  35.7500 Du        
    105 ****        18.5000  17.5000  36.0000 Du        
    106 ****        18.5000  17.5000  36.2500 Du        
    107 ****        18.5000  17.7500  34.2500 Du        
    108 ****        18.5000  17.7500  34.5000 Du        
    109 ****        18.5000  17.7500  34.7500 Du        
    110 ****        18.5000  17.7500  35.0000 Du        
    111 ****        18.5000  17.7500  35.2500 Du        
    112 ****        18.5000  17.7500  35.5000 Du        
    113 ****        18.5000  17.7500  35.7500 Du        
    114 ****        18.5000  17.7500  36.0000 Du        
    115 ****        18.5000  17.7500  36.2500 Du        
    116 ****        18.5000  17.7500  36.5000 Du        
    117 ****        18.5000  17.7500  36.7500 Du        
    118 ****        18.5000  17.7500  37.0000 Du        
    119 ****        18.5000  18.0000  34.0000 Du        
    120 ****        18.5000  18.0000  34.2500 Du        
    121 ****        18.5000  18.0000  34.5000 Du        
    122 ****        18.5000  18.0000  34.7500 Du        
    123 ****        18.5000  18.0000  35.0000 Du        
    124 ****        18.5000  18.0000  35.2500 Du        
    125 ****        18.5000  18.0000  35.5000 Du        
    126 ****        18.5000  18.0000  35.7500 Du        
    127 ****        18.5000  18.0000  36.0000 Du        
    128 ****        18.5000  18.0000  36.2500 Du        
    129 ****        18.5000  18.0000  36.5000 Du        
    130 ****        18.5000  18.0000  36.7500 Du        
    131 ****        18.5000  18.0000  37.0000 Du        
    132 ****        18.5000  18.2500  34.0000 Du        
    133 ****        18.5000  18.2500  34.2500 Du        
    134 ****        18.5000  18.2500  34.5000 Du        
    135 ****        18.5000  18.2500  34.7500 Du        
    136 ****        18.5000  18.2500  35.0000 Du        
    137 ****        18.5000  18.2500  35.2500 Du        
    138 ****        18.5000  18.2500  35.5000 Du        
    139 ****        18.5000  18.2500  35.7500 Du        
    140 ****        18.5000  18.2500  36.0000 Du        
    141 ****        18.5000  18.2500  36.2500 Du        
    142 ****        18.5000  18.2500  36.7500 Du        
    143 ****        18.5000  18.2500  37.0000 Du        
    144 ****        18.5000  18.5000  34.0000 Du        
    145 ****        18.5000  18.5000  34.2500 Du        
    146 ****        18.5000  18.5000  34.5000 Du        
    147 ****        18.5000  18.5000  34.7500 Du        
    148 ****        18.5000  18.5000  35.0000 Du        
    149 ****        18.5000  18.5000  35.2500 Du        
    150 ****        18.5000  18.7500  33.5000 Du        
    151 ****        18.5000  18.7500  33.7500 Du        
    152 ****        18.5000  18.7500  34.0000 Du        
    153 ****        18.5000  18.7500  34.2500 Du        
    154 ****        18.5000  19.0000  33.5000 Du        
    155 ****        18.5000  19.0000  33.7500 Du        
    156 ****        18.7500  17.7500  34.7500 Du        
    157 ****        18.7500  17.7500  35.0000 Du        
    158 ****        18.7500  17.7500  35.2500 Du        
    159 ****        18.7500  17.7500  35.5000 Du        
    160 ****        18.7500  17.7500  35.7500 Du        
    161 ****        18.7500  17.7500  36.0000 Du        
    162 ****        18.7500  17.7500  36.2500 Du        
    163 ****        18.7500  18.0000  34.2500 Du        
    164 ****        18.7500  18.0000  34.5000 Du        
    165 ****        18.7500  18.0000  34.7500 Du        
    166 ****        18.7500  18.0000  35.0000 Du        
    167 ****        18.7500  18.0000  35.2500 Du        
    168 ****        18.7500  18.0000  35.5000 Du        
    169 ****        18.7500  18.0000  35.7500 Du        
    170 ****        18.7500  18.0000  36.0000 Du        
    171 ****        18.7500  18.0000  36.2500 Du        
    172 ****        18.7500  18.0000  36.7500 Du        
    173 ****        18.7500  18.0000  37.0000 Du        
    174 ****        18.7500  18.2500  34.0000 Du        
    175 ****        18.7500  18.2500  34.2500 Du        
    176 ****        18.7500  18.2500  34.5000 Du        
    177 ****        18.7500  18.2500  34.7500 Du        
    178 ****        18.7500  18.2500  35.0000 Du        
    179 ****        18.7500  18.2500  35.2500 Du        
    180 ****        18.7500  18.2500  35.5000 Du        
    181 ****        18.7500  18.5000  33.7500 Du        
    182 ****        18.7500  18.5000  34.0000 Du        
    183 ****        18.7500  18.5000  34.2500 Du        
    184 ****        18.7500  18.5000  34.5000 Du        
    185 ****        19.5000  25.2500  36.2500 Du        
    186 ****        19.7500  25.2500  36.2500 Du        
    187 ****        19.7500  25.5000  36.2500 Du        
    188 ****        19.7500  25.5000  36.5000 Du        
    189 ****        19.7500  25.5000  36.7500 Du        
    190 ****        19.7500  25.7500  36.2500 Du        
    191 ****        19.7500  25.7500  36.5000 Du        
    192 ****        19.7500  25.7500  36.7500 Du        
    193 ****        19.7500  26.0000  36.5000 Du        
    194 ****        19.7500  26.0000  36.7500 Du        
    195 ****        20.0000  25.2500  36.0000 Du        
    196 ****        20.0000  25.2500  36.2500 Du        
    197 ****        20.0000  25.2500  36.5000 Du        
    198 ****        20.0000  25.2500  36.7500 Du        
    199 ****        20.0000  25.5000  36.2500 Du        
    200 ****        20.0000  25.5000  36.5000 Du        
    201 ****        20.0000  25.5000  36.7500 Du        
    202 ****        20.0000  25.5000  37.0000 Du        
    203 ****        20.0000  25.7500  36.2500 Du        
    204 ****        20.0000  25.7500  36.5000 Du        
    205 ****        20.0000  25.7500  36.7500 Du        
    206 ****        20.0000  25.7500  37.0000 Du        
    207 ****        20.0000  26.0000  36.2500 Du        
    208 ****        20.0000  26.0000  36.5000 Du        
    209 ****        20.0000  26.0000  36.7500 Du        
    210 ****        20.0000  26.0000  37.0000 Du        
    211 ****        20.0000  26.2500  36.7500 Du        
    212 ****        20.2500  25.2500  36.0000 Du        
    213 ****        20.2500  25.2500  36.2500 Du        
    214 ****        20.2500  25.2500  36.5000 Du        
    215 ****        20.2500  25.2500  36.7500 Du        
    216 ****        20.2500  25.2500  37.0000 Du        
    217 ****        20.2500  25.5000  36.0000 Du        
    218 ****        20.2500  25.5000  36.2500 Du        
    219 ****        20.2500  25.5000  36.5000 Du        
    220 ****        20.2500  25.5000  36.7500 Du        
    221 ****        20.2500  25.5000  37.0000 Du        
    222 ****        20.2500  25.5000  37.2500 Du        
    223 ****        20.2500  25.7500  36.2500 Du        
    224 ****        20.2500  25.7500  36.5000 Du        
    225 ****        20.2500  25.7500  36.7500 Du        
    226 ****        20.2500  25.7500  37.0000 Du        
    227 ****        20.2500  26.0000  36.2500 Du        
    228 ****        20.2500  26.0000  36.5000 Du        
    229 ****        20.2500  26.0000  36.7500 Du        
    230 ****        20.2500  26.0000  37.0000 Du        
    231 ****        20.2500  26.2500  36.5000 Du        
    232 ****        20.2500  26.2500  36.7500 Du        
    233 ****        20.5000  25.0000  37.0000 Du        
    234 ****        20.5000  25.0000  37.2500 Du        
    235 ****        20.5000  25.2500  36.0000 Du        
    236 ****        20.5000  25.2500  36.2500 Du        
    237 ****        20.5000  25.2500  36.5000 Du        
    238 ****        20.5000  25.2500  36.7500 Du        
    239 ****        20.5000  25.2500  37.0000 Du        
    240 ****        20.5000  25.2500  37.2500 Du        
    241 ****        20.5000  25.5000  36.0000 Du        
    242 ****        20.5000  25.5000  36.2500 Du        
    243 ****        20.5000  25.5000  36.5000 Du        
    244 ****        20.5000  25.5000  36.7500 Du        
    245 ****        20.5000  25.5000  37.0000 Du        
    246 ****        20.5000  25.5000  37.2500 Du        
    247 ****        20.5000  25.7500  36.0000 Du        
    248 ****        20.5000  25.7500  36.2500 Du        
    249 ****        20.5000  25.7500  36.5000 Du        
    250 ****        20.5000  25.7500  36.7500 Du        
    251 ****        20.5000  25.7500  37.0000 Du        
    252 ****        20.5000  25.7500  37.2500 Du        
    253 ****        20.5000  26.0000  36.2500 Du        
    254 ****        20.5000  26.0000  36.5000 Du        
    255 ****        20.5000  26.0000  36.7500 Du        
    256 ****        20.5000  26.0000  37.0000 Du        
    257 ****        20.5000  26.2500  36.2500 Du        
    258 ****        20.5000  26.2500  36.5000 Du        
    259 ****        20.7500  25.0000  36.7500 Du        
    260 ****        20.7500  25.0000  37.0000 Du        
    261 ****        20.7500  25.0000  37.2500 Du        
    262 ****        20.7500  25.2500  36.0000 Du        
    263 ****        20.7500  25.2500  36.2500 Du        
    264 ****        20.7500  25.2500  36.5000 Du        
    265 ****        20.7500  25.2500  36.7500 Du        
    266 ****        20.7500  25.2500  37.0000 Du        
    267 ****        20.7500  25.2500  37.2500 Du        
    268 ****        20.7500  25.5000  36.0000 Du        
    269 ****        20.7500  25.5000  36.2500 Du        
    270 ****        20.7500  25.5000  36.5000 Du        
    271 ****        20.7500  25.5000  36.7500 Du        
    272 ****        20.7500  25.5000  37.0000 Du        
    273 ****        20.7500  25.5000  37.2500 Du        
    274 ****        20.7500  25.7500  36.0000 Du        
    275 ****        20.7500  25.7500  36.2500 Du        
    276 ****        20.7500  25.7500  36.5000 Du        
    277 ****        20.7500  25.7500  36.7500 Du        
    278 ****        20.7500  25.7500  37.0000 Du        
    279 ****        20.7500  26.0000  36.2500 Du        
    280 ****        21.0000  25.0000  36.2500 Du        
    281 ****        21.0000  25.0000  37.0000 Du        
    282 ****        21.0000  25.0000  37.2500 Du        
    283 ****        21.0000  25.2500  36.0000 Du        
    284 ****        21.0000  25.2500  36.2500 Du        
    285 ****        21.0000  25.2500  36.5000 Du        
    286 ****        21.0000  25.2500  36.7500 Du        
    287 ****        21.0000  25.2500  37.0000 Du        
    288 ****        21.0000  25.2500  37.2500 Du        
    289 ****        21.0000  25.5000  36.0000 Du        
    290 ****        21.0000  25.5000  36.2500 Du        
    291 ****        21.0000  25.5000  36.5000 Du        
    292 ****        21.0000  25.5000  36.7500 Du        
    293 ****        21.0000  25.5000  37.0000 Du        
    294 ****        21.0000  25.7500  36.0000 Du        
    295 ****        21.0000  25.7500  36.2500 Du        
    296 ****        21.2500  25.2500  36.0000 Du        
    297 ****        21.2500  25.2500  36.2500 Du        
    298 ****        21.2500  25.5000  36.2500 Du        
    299 ****        21.5000  22.5000  40.2500 Du        
    300 ****        21.5000  22.5000  40.5000 Du        
    301 ****        21.5000  22.5000  40.7500 Du        
    302 ****        21.5000  22.5000  41.0000 Du        
    303 ****        21.5000  22.5000  41.2500 Du        
    304 ****        21.5000  22.5000  41.7500 Du        
    305 ****        21.5000  22.5000  42.0000 Du        
    306 ****        21.5000  22.5000  42.2500 Du        
    307 ****        21.5000  22.7500  40.0000 Du        
    308 ****        21.5000  22.7500  40.2500 Du        
    309 ****        21.5000  22.7500  40.5000 Du        
    310 ****        21.5000  22.7500  40.7500 Du        
    311 ****        21.5000  22.7500  41.0000 Du        
    312 ****        21.5000  22.7500  41.2500 Du        
    313 ****        21.5000  22.7500  41.5000 Du        
    314 ****        21.5000  22.7500  41.7500 Du        
    315 ****        21.5000  22.7500  42.0000 Du        
    316 ****        21.5000  23.0000  40.0000 Du        
    317 ****        21.5000  23.0000  40.2500 Du        
    318 ****        21.5000  23.0000  40.5000 Du        
    319 ****        21.5000  23.0000  40.7500 Du        
    320 ****        21.5000  23.0000  41.0000 Du        
    321 ****        21.5000  23.0000  41.2500 Du        
    322 ****        21.5000  23.0000  41.5000 Du        
    323 ****        21.5000  23.0000  41.7500 Du        
    324 ****        21.5000  23.0000  42.0000 Du        
    325 ****        21.5000  23.2500  40.2500 Du        
    326 ****        21.5000  23.2500  40.5000 Du        
    327 ****        21.5000  23.2500  40.7500 Du        
    328 ****        21.5000  23.2500  41.0000 Du        
    329 ****        21.5000  23.2500  41.2500 Du        
    330 ****        21.5000  23.2500  41.5000 Du        
    331 ****        21.7500  22.2500  41.7500 Du        
    332 ****        21.7500  22.2500  42.0000 Du        
    333 ****        21.7500  22.2500  42.2500 Du        
    334 ****        21.7500  22.5000  40.2500 Du        
    335 ****        21.7500  22.5000  40.5000 Du        
    336 ****        21.7500  22.5000  40.7500 Du        
    337 ****        21.7500  22.5000  41.0000 Du        
    338 ****        21.7500  22.5000  41.2500 Du        
    339 ****        21.7500  22.5000  41.5000 Du        
    340 ****        21.7500  22.5000  41.7500 Du        
    341 ****        21.7500  22.5000  42.0000 Du        
    342 ****        21.7500  22.5000  42.2500 Du        
    343 ****        21.7500  22.5000  42.5000 Du        
    344 ****        21.7500  22.7500  40.0000 Du        
    345 ****        21.7500  22.7500  40.2500 Du        
    346 ****        21.7500  22.7500  40.5000 Du        
    347 ****        21.7500  22.7500  40.7500 Du        
    348 ****        21.7500  22.7500  41.0000 Du        
    349 ****        21.7500  22.7500  41.2500 Du        
    350 ****        21.7500  22.7500  41.5000 Du        
    351 ****        21.7500  22.7500  41.7500 Du        
    352 ****        21.7500  22.7500  42.0000 Du        
    353 ****        21.7500  22.7500  42.2500 Du        
    354 ****        21.7500  22.7500  42.5000 Du        
    355 ****        21.7500  23.0000  40.0000 Du        
    356 ****        21.7500  23.0000  40.2500 Du        
    357 ****        21.7500  23.0000  40.5000 Du        
    358 ****        21.7500  23.0000  40.7500 Du        
    359 ****        21.7500  23.0000  41.0000 Du        
    360 ****        21.7500  23.0000  41.2500 Du        
    361 ****        21.7500  23.0000  41.5000 Du        
    362 ****        21.7500  23.0000  41.7500 Du        
    363 ****        21.7500  23.0000  42.0000 Du        
    364 ****        21.7500  23.0000  42.2500 Du        
    365 ****        21.7500  23.2500  40.0000 Du        
    366 ****        21.7500  23.2500  40.2500 Du        
    367 ****        21.7500  23.2500  40.5000 Du        
    368 ****        21.7500  23.2500  40.7500 Du        
    369 ****        21.7500  23.2500  41.0000 Du        
    370 ****        21.7500  23.2500  41.2500 Du        
    371 ****        21.7500  23.2500  41.5000 Du        
    372 ****        21.7500  23.2500  41.7500 Du        
    373 ****        21.7500  23.2500  42.0000 Du        
    374 ****        21.7500  23.2500  42.2500 Du        
    375 ****        21.7500  23.5000  40.2500 Du        
    376 ****        21.7500  23.5000  40.5000 Du        
    377 ****        21.7500  23.5000  40.7500 Du        
    378 ****        21.7500  23.5000  41.0000 Du        
    379 ****        21.7500  23.5000  41.2500 Du        
    380 ****        21.7500  23.5000  41.5000 Du        
    381 ****        21.7500  23.5000  41.7500 Du        
    382 ****        21.7500  23.5000  42.0000 Du        
    383 ****        21.7500  23.7500  40.0000 Du        
    384 ****        21.7500  23.7500  40.2500 Du        
    385 ****        21.7500  23.7500  40.5000 Du        
    386 ****        21.7500  23.7500  40.7500 Du        
    387 ****        21.7500  23.7500  41.0000 Du        
    388 ****        21.7500  23.7500  41.2500 Du        
    389 ****        21.7500  24.0000  40.2500 Du        
    390 ****        22.0000  22.2500  41.0000 Du        
    391 ****        22.0000  22.2500  41.2500 Du        
    392 ****        22.0000  22.2500  41.5000 Du        
    393 ****        22.0000  22.2500  41.7500 Du        
    394 ****        22.0000  22.2500  42.0000 Du        
    395 ****        22.0000  22.2500  42.2500 Du        
    396 ****        22.0000  22.2500  42.5000 Du        
    397 ****        22.0000  22.5000  40.5000 Du        
    398 ****        22.0000  22.5000  40.7500 Du        
    399 ****        22.0000  22.5000  41.0000 Du        
    400 ****        22.0000  22.5000  41.2500 Du        
    401 ****        22.0000  22.5000  41.5000 Du        
    402 ****        22.0000  22.5000  41.7500 Du        
    403 ****        22.0000  22.5000  42.0000 Du        
    404 ****        22.0000  22.5000  42.2500 Du        
    405 ****        22.0000  22.5000  42.5000 Du        
    406 ****        22.0000  22.7500  40.2500 Du        
    407 ****        22.0000  22.7500  40.5000 Du        
    408 ****        22.0000  22.7500  40.7500 Du        
    409 ****        22.0000  22.7500  41.0000 Du        
    410 ****        22.0000  22.7500  41.2500 Du        
    411 ****        22.0000  22.7500  41.5000 Du        
    412 ****        22.0000  22.7500  41.7500 Du        
    413 ****        22.0000  22.7500  42.0000 Du        
    414 ****        22.0000  22.7500  42.2500 Du        
    415 ****        22.0000  22.7500  42.5000 Du        
    416 ****        22.0000  23.0000  40.2500 Du        
    417 ****        22.0000  23.0000  40.5000 Du        
    418 ****        22.0000  23.0000  40.7500 Du        
    419 ****        22.0000  23.0000  41.0000 Du        
    420 ****        22.0000  23.0000  41.2500 Du        
    421 ****        22.0000  23.0000  41.5000 Du        
    422 ****        22.0000  23.0000  41.7500 Du        
    423 ****        22.0000  23.0000  42.0000 Du        
    424 ****        22.0000  23.0000  42.2500 Du        
    425 ****        22.0000  23.0000  42.5000 Du        
    426 ****        22.0000  23.2500  40.2500 Du        
    427 ****        22.0000  23.2500  40.5000 Du        
    428 ****        22.0000  23.2500  40.7500 Du        
    429 ****        22.0000  23.2500  41.0000 Du        
    430 ****        22.0000  23.2500  41.2500 Du        
    431 ****        22.0000  23.2500  41.5000 Du        
    432 ****        22.0000  23.2500  41.7500 Du        
    433 ****        22.0000  23.2500  42.0000 Du        
    434 ****        22.0000  23.2500  42.2500 Du        
    435 ****        22.0000  23.2500  42.5000 Du        
    436 ****        22.0000  23.5000  40.2500 Du        
    437 ****        22.0000  23.5000  40.5000 Du        
    438 ****        22.0000  23.5000  40.7500 Du        
    439 ****        22.0000  23.5000  41.0000 Du        
    440 ****        22.0000  23.5000  41.2500 Du        
    441 ****        22.0000  23.5000  41.5000 Du        
    442 ****        22.0000  23.5000  41.7500 Du        
    443 ****        22.0000  23.5000  42.0000 Du        
    444 ****        22.0000  23.5000  42.2500 Du        
    445 ****        22.0000  23.7500  40.2500 Du        
    446 ****        22.0000  23.7500  40.5000 Du        
    447 ****        22.0000  23.7500  40.7500 Du        
    448 ****        22.0000  23.7500  41.0000 Du        
    449 ****        22.0000  23.7500  41.2500 Du        
    450 ****        22.0000  23.7500  41.5000 Du        
    451 ****        22.0000  23.7500  41.7500 Du        
    452 ****        22.0000  23.7500  42.0000 Du        
    453 ****        22.0000  24.0000  40.2500 Du        
    454 ****        22.0000  24.0000  40.7500 Du        
    455 ****        22.0000  24.0000  41.0000 Du        
    456 ****        22.0000  24.0000  41.2500 Du        
    457 ****        22.0000  24.0000  41.7500 Du        
    458 ****        22.0000  24.0000  42.0000 Du        
    459 ****        22.2500  22.2500  40.7500 Du        
    460 ****        22.2500  22.2500  41.0000 Du        
    461 ****        22.2500  22.2500  41.2500 Du        
    462 ****        22.2500  22.2500  41.5000 Du        
    463 ****        22.2500  22.2500  41.7500 Du        
    464 ****        22.2500  22.2500  42.0000 Du        
    465 ****        22.2500  22.2500  42.2500 Du        
    466 ****        22.2500  22.2500  42.5000 Du        
    467 ****        22.2500  22.5000  40.5000 Du        
    468 ****        22.2500  22.5000  40.7500 Du        
    469 ****        22.2500  22.5000  41.0000 Du        
    470 ****        22.2500  22.5000  41.2500 Du        
    471 ****        22.2500  22.5000  41.5000 Du        
    472 ****        22.2500  22.5000  41.7500 Du        
    473 ****        22.2500  22.5000  42.0000 Du        
    474 ****        22.2500  22.5000  42.2500 Du        
    475 ****        22.2500  22.5000  42.5000 Du        
    476 ****        22.2500  22.7500  40.2500 Du        
    477 ****        22.2500  22.7500  40.5000 Du        
    478 ****        22.2500  22.7500  40.7500 Du        
    479 ****        22.2500  22.7500  41.0000 Du        
    480 ****        22.2500  22.7500  41.2500 Du        
    481 ****        22.2500  22.7500  41.5000 Du        
    482 ****        22.2500  22.7500  41.7500 Du        
    483 ****        22.2500  22.7500  42.0000 Du        
    484 ****        22.2500  22.7500  42.2500 Du        
    485 ****        22.2500  22.7500  42.5000 Du        
    486 ****        22.2500  23.0000  40.5000 Du        
    487 ****        22.2500  23.0000  40.7500 Du        
    488 ****        22.2500  23.0000  41.0000 Du        
    489 ****        22.2500  23.0000  41.2500 Du        
    490 ****        22.2500  23.0000  41.5000 Du        
    491 ****        22.2500  23.0000  41.7500 Du        
    492 ****        22.2500  23.0000  42.0000 Du        
    493 ****        22.2500  23.0000  42.2500 Du        
    494 ****        22.2500  23.0000  42.5000 Du        
    495 ****        22.2500  23.2500  40.5000 Du        
    496 ****        22.2500  23.2500  40.7500 Du        
    497 ****        22.2500  23.2500  41.0000 Du        
    498 ****        22.2500  23.2500  41.2500 Du        
    499 ****        22.2500  23.2500  41.5000 Du        
    500 ****        22.2500  23.2500  41.7500 Du        
    501 ****        22.2500  23.2500  42.0000 Du        
    502 ****        22.2500  23.2500  42.2500 Du        
    503 ****        22.2500  23.2500  42.5000 Du        
    504 ****        22.2500  23.5000  41.7500 Du        
    505 ****        22.2500  23.5000  42.0000 Du        
    506 ****        22.2500  23.7500  42.0000 Du        
    507 ****        22.5000  22.2500  40.7500 Du        
    508 ****        22.5000  22.2500  41.0000 Du        
    509 ****        22.5000  22.2500  41.2500 Du        
    510 ****        22.5000  22.2500  41.5000 Du        
    511 ****        22.5000  22.2500  41.7500 Du        
    512 ****        22.5000  22.2500  42.0000 Du        
    513 ****        22.5000  22.2500  42.2500 Du        
    514 ****        22.5000  22.2500  42.5000 Du        
    515 ****        22.5000  22.5000  40.7500 Du        
    516 ****        22.5000  22.5000  41.0000 Du        
    517 ****        22.5000  22.5000  41.2500 Du        
    518 ****        22.5000  22.5000  41.5000 Du        
    519 ****        22.5000  22.5000  41.7500 Du        
    520 ****        22.5000  22.5000  42.0000 Du        
    521 ****        22.5000  22.5000  42.2500 Du        
    522 ****        22.5000  22.5000  42.5000 Du        
    523 ****        22.5000  22.7500  41.0000 Du        
    524 ****        22.5000  22.7500  41.2500 Du        
    525 ****        22.5000  22.7500  41.5000 Du        
    526 ****        22.5000  22.7500  41.7500 Du        
    527 ****        22.5000  22.7500  42.0000 Du        
    528 ****        22.5000  22.7500  42.2500 Du        
    529 ****        22.5000  22.7500  42.5000 Du        
    530 ****        22.5000  23.0000  41.2500 Du        
    531 ****        22.5000  23.0000  41.5000 Du        
    532 ****        22.5000  23.0000  41.7500 Du        
    533 ****        22.5000  23.0000  42.0000 Du        
    534 ****        22.5000  23.0000  42.2500 Du        
    535 ****        22.5000  23.0000  42.5000 Du        
    536 ****        22.5000  23.2500  41.7500 Du        
    537 ****        22.5000  23.2500  42.0000 Du        
    538 ****        22.5000  23.2500  42.2500 Du        
    539 ****        22.5000  23.2500  42.5000 Du        
    540 ****        22.5000  23.5000  42.0000 Du        
    541 ****        22.5000  23.5000  42.2500 Du        
    542 ****        22.7500  22.0000  42.0000 Du        
    543 ****        22.7500  22.0000  42.2500 Du        
    544 ****        22.7500  22.2500  41.5000 Du        
    545 ****        22.7500  22.2500  41.7500 Du        
    546 ****        22.7500  22.2500  42.0000 Du        
    547 ****        22.7500  22.2500  42.2500 Du        
    548 ****        22.7500  22.2500  42.5000 Du        
    549 ****        22.7500  22.5000  41.7500 Du        
    550 ****        22.7500  22.5000  42.0000 Du        
    551 ****        22.7500  22.5000  42.2500 Du        
    552 ****        22.7500  22.5000  42.5000 Du        
    553 ****        22.7500  22.7500  42.0000 Du        
    554 ****        22.7500  22.7500  42.2500 Du        
    555 ****        22.7500  22.7500  42.5000 Du        
    556 ****        22.7500  23.0000  42.2500 Du        
    557 ****        23.0000  22.0000  42.2500 Du        
    558 ****        23.0000  22.2500  42.0000 Du        
    559 ****        23.0000  22.2500  42.2500 Du        
