#       Name:                CT1002167954
#       Creating user name   hitesit
#       Creation time:       Sun Apr 16 02:21:59 2023


#       File generated by GOLD software.
#

@<TRIPOS>MOLECULE
CT1002167954|ligand_prepared|mol2|1|dock6
    29    30     1
SMALL
NO_CHARGES


@<TRIPOS>ATOM
      1 C1          21.1256  22.8747  40.4032 C.3            1 RES1               0.0000
      2 C2          21.1685  24.3406  39.9258 C.ar           1 RES1               0.0000
      3 C3          22.2891  22.1661  39.7159 C.2            1 RES1               0.0000
      4 C4          21.2339  22.9177  41.9234 C.2            1 RES1               0.0000
      5 C5          19.8165  22.1367  40.0383 C.3            1 RES1               0.0000
      6 C6          21.7670  25.3235  40.7084 C.ar           1 RES1               0.0000
      7 C7          20.6171  24.7242  38.7062 C.ar           1 RES1               0.0000
      8 N8          23.3772  21.8542  40.4767 N.am           1 RES1               0.0000
      9 O9          22.2687  21.9202  38.5162 O.2            1 RES1               0.0000
     10 N10         22.3540  22.3814  42.5028 N.am           1 RES1               0.0000
     11 O11         20.3672  23.4262  42.6238 O.2            1 RES1               0.0000
     12 C12         18.5575  22.9273  40.3578 C.3            1 RES1               0.0000
     13 C13         21.8153  26.6416  40.2858 C.ar           1 RES1               0.0000
     14 C14         20.6662  26.0430  38.2856 C.ar           1 RES1               0.0000
     15 C15         23.4446  21.8792  41.8466 C.2            1 RES1               0.0000
     16 C16         21.2654  27.0022  39.0741 C.ar           1 RES1               0.0000
     17 O17         24.4379  21.4644  42.4368 O.2            1 RES1               0.0000
     18 H18         19.8272  21.9084  38.9654 H              1 RES1               0.0000
     19 H19         19.7838  21.1852  40.5833 H              1 RES1               0.0000
     20 H20         22.2029  25.0590  41.6661 H              1 RES1               0.0000
     21 H21         20.1397  23.9868  38.0699 H              1 RES1               0.0000
     22 H22         24.2186  21.5768  39.9813 H              1 RES1               0.0000
     23 H23         22.3767  22.3539  43.5172 H              1 RES1               0.0000
     24 H24         17.6682  22.3643  40.0824 H              1 RES1               0.0000
     25 H25         18.5015  23.1502  41.4213 H              1 RES1               0.0000
     26 H26         18.5447  23.8690  39.8130 H              1 RES1               0.0000
     27 H27         22.2867  27.3929  40.9107 H              1 RES1               0.0000
     28 H28         20.2316  26.3224  37.3315 H              1 RES1               0.0000
     29 H29         21.3036  28.0347  38.7431 H              1 RES1               0.0000
@<TRIPOS>BOND
    1    1    2 1     
    2    1    3 1     
    3    1    4 1     
    4    1    5 1     
    5    2    6 ar    
    6    2    7 ar    
    7    3    8 1     
    8    3    9 2     
    9    4   10 1     
   10    4   11 2     
   11    5   12 1     
   12    5   18 1     
   13    5   19 1     
   14    6   13 ar    
   15    6   20 1     
   16    7   14 ar    
   17    7   21 1     
   18    8   15 1     
   19    8   22 1     
   20   10   15 1     
   21   10   23 1     
   22   12   24 1     
   23   12   25 1     
   24   12   26 1     
   25   13   16 ar    
   26   13   27 1     
   27   14   16 ar    
   28   14   28 1     
   29   15   17 2     
   30   16   29 1     
@<TRIPOS>SUBSTRUCTURE
      1 RES1           1
@<TRIPOS>SET
DONOR_HYDROGENS      STATIC     ATOMS    <user>   **** ""
2 22 23
ATOM$RED        STATIC     ATOMS    COLORGROUP SYSTEM
2 22 23
@<TRIPOS>COMMENT
> <Gold.Version>
2022.3.0

> <Gold.Id.Protein>
unknown|2zaz_clean|pdb

> <Gold.Protein.RotatedTorsions>
[ 1027 1018 1017 1015 ] final  -97.44 input   60.00 | X-H torsion
[ 5159 5154 5153 5150 ] final  -10.14 input   60.02 | X-H torsion

> <Gold.Protein.ActiveResidues>
 TYR69   ARG73   ASP324  GLN325  SER326  PHE327  GLU328  ARG330  LEU332  TRP337 
 LEU340  ASP343  GLU344 

> <Gold.Protein.RotatedAtoms>
   24.5233   23.8057   38.3218 H   0  0  0  0  0  0  0  0  0  0  0  0  # atno 1027 bound_to 1018
   23.6295   19.6285   43.7714 H   0  0  0  0  0  0  0  0  0  0  0  0  # atno 5159 bound_to 5154
   23.8153   22.3409   38.3150 LP  0  0  0  0  0  0  0  0  0  0  0  0  # atno 5589 bound_to 1018
   23.2991   23.5054   37.2932 LP  0  0  0  0  0  0  0  0  0  0  0  0  # atno 5590 bound_to 1018
   22.5575   19.8963   44.9660 LP  0  0  0  0  0  0  0  0  0  0  0  0  # atno 5597 bound_to 5154
   22.3241   18.6677   43.9159 LP  0  0  0  0  0  0  0  0  0  0  0  0  # atno 5598 bound_to 5154

> <Gold.Score>
     Fitness  S(hb_ext) S(vdw_ext)  S(hb_int)    S(int)      intcor
     23.00       2.86      17.07       0.00      -3.34      -0.76

> <Gold.Goldscore.Fitness>
22.9991

> <Gold.Goldscore.Internal.Vdw>
-3.4772

> <Gold.Goldscore.Internal.Torsion>
-0.6190

> <Gold.Goldscore.External.Vdw>
17.0711

> <Gold.Goldscore.Internal.HBond>
0.0000

> <Gold.Goldscore.External.HBond>
2.8640

> <Gold.Goldscore.Internal.Correction>
-0.7585

> <Gold.Goldscore.Hbonds>
donor molecule, donor type, donor heavy atom, donor atom, acceptor molecule, acceptor atom, score
      P1  H  1095  1098       L1    17  0.31
      P1  H  5154  5159       L1    17  0.17
      P1  H  5160  5171       L1    17  0.02
      P1  H  5215  5226       L1     9  0.04
      L1  H    10    23       P1  5127  0.06

> <Gold.Goldscore.Internal.Vdw.Weighted>
-3.4772

> <Gold.Goldscore.Internal.Torsion.Weighted>
-0.6190

> <Gold.Goldscore.External.Vdw.Weighted>
23.4728

> <Gold.Goldscore.Internal.HBond.Weighted>
0.0000

> <Gold.Goldscore.External.HBond.Weighted>
2.8640

> <Gold.Goldscore.Internal.Correction.Weighted>
-0.7585

> <Gold.Rescore>
     Score     S(PLP)   S(hbond)     S(cho)   S(metal)  DE(clash)   DE(tors)     intcor
     21.32     -17.91       1.87       0.00       0.00       0.00       1.10       ----

> <Gold.PLP.Fitness>
21.3170

> <Gold.PLP.PLP>
-17.9138

> <Gold.PLP.part.hbond>
-6.3859

> <Gold.PLP.part.metal>
0.0000

> <Gold.PLP.part.buried>
-4.3317

> <Gold.PLP.part.nonpolar>
-10.1659

> <Gold.PLP.part.repulsive>
3.0658

> <Gold.PLP.ligand.clash>
0.0000

> <Gold.PLP.ligand.torsion>
1.1003

> <Gold.PLP.Chemscore.Hbond>
1.8679

> <Gold.PLP.Chemscore.CHOScore>
0.0000

> <Gold.PLP.Chemscore.Metal>
0.0000

> <Gold.Chemscore.Hbonds>
donor molecule, donor type, donor heavy atom, donor atom, acceptor molecule, acceptor atom, score
      P1  H  5154  5159       L1    17  0.23
      P1  H  5160  5171       L1    17  0.50

> <Gold.PLP.Chemscore.Internal.Correction>
   9.000000E+99

