#       Name:                CT1002167954
#       Creating user name   hitesit
#       Creation time:       Sun Apr 16 02:22:02 2023


#       File generated by GOLD software.
#

@<TRIPOS>MOLECULE
CT1002167954|ligand_prepared|mol2|1|dock10
    29    30     1
SMALL
NO_CHARGES


@<TRIPOS>ATOM
      1 C1          22.5801  26.9455  41.5316 C.3            1 RES1               0.0000
      2 C2          22.4776  25.5275  40.9336 C.ar           1 RES1               0.0000
      3 C3          22.3207  26.7993  43.0281 C.2            1 RES1               0.0000
      4 C4          23.9763  27.4531  41.1888 C.2            1 RES1               0.0000
      5 C5          21.5526  27.9445  40.9503 C.3            1 RES1               0.0000
      6 C6          22.1066  25.3439  39.6050 C.ar           1 RES1               0.0000
      7 C7          22.7530  24.3956  41.6962 C.ar           1 RES1               0.0000
      8 N8          23.3887  26.9133  43.8685 N.am           1 RES1               0.0000
      9 O9          21.2029  26.5483  43.4614 O.2            1 RES1               0.0000
     10 N10         24.8517  27.6705  42.2205 N.am           1 RES1               0.0000
     11 O11         24.3318  27.6509  40.0335 O.2            1 RES1               0.0000
     12 C12         21.4658  29.2526  41.7207 C.3            1 RES1               0.0000
     13 C13         22.0171  24.0748  39.0575 C.ar           1 RES1               0.0000
     14 C14         22.6626  23.1273  41.1468 C.ar           1 RES1               0.0000
     15 C15         24.6312  27.3944  43.5424 C.2            1 RES1               0.0000
     16 C16         22.2954  22.9658  39.8278 C.ar           1 RES1               0.0000
     17 O17         25.4875  27.5661  44.4052 O.2            1 RES1               0.0000
     18 H18         21.8233  28.1645  39.9103 H              1 RES1               0.0000
     19 H19         20.5631  27.4709  40.9462 H              1 RES1               0.0000
     20 H20         21.8814  26.2046  38.9841 H              1 RES1               0.0000
     21 H21         23.0427  24.4986  42.7364 H              1 RES1               0.0000
     22 H22         23.2507  26.6131  44.8283 H              1 RES1               0.0000
     23 H23         25.7509  28.0759  41.9808 H              1 RES1               0.0000
     24 H24         20.7307  29.9169  41.2711 H              1 RES1               0.0000
     25 H25         21.1739  29.0735  42.7534 H              1 RES1               0.0000
     26 H26         22.4267  29.7629  41.7236 H              1 RES1               0.0000
     27 H27         21.7263  23.9530  38.0193 H              1 RES1               0.0000
     28 H28         22.8820  22.2573  41.7569 H              1 RES1               0.0000
     29 H29         22.2256  21.9718  39.3986 H              1 RES1               0.0000
@<TRIPOS>BOND
    1    1    2 1     
    2    1    3 1     
    3    1    4 1     
    4    1    5 1     
    5    2    6 ar    
    6    2    7 ar    
    7    3    8 1     
    8    3    9 2     
    9    4   10 1     
   10    4   11 2     
   11    5   12 1     
   12    5   18 1     
   13    5   19 1     
   14    6   13 ar    
   15    6   20 1     
   16    7   14 ar    
   17    7   21 1     
   18    8   15 1     
   19    8   22 1     
   20   10   15 1     
   21   10   23 1     
   22   12   24 1     
   23   12   25 1     
   24   12   26 1     
   25   13   16 ar    
   26   13   27 1     
   27   14   16 ar    
   28   14   28 1     
   29   15   17 2     
   30   16   29 1     
@<TRIPOS>SUBSTRUCTURE
      1 RES1           1
@<TRIPOS>SET
DONOR_HYDROGENS      STATIC     ATOMS    <user>   **** ""
2 22 23
ATOM$RED        STATIC     ATOMS    COLORGROUP SYSTEM
2 22 23
@<TRIPOS>COMMENT
> <Gold.Version>
2022.3.0

> <Gold.Id.Protein>
unknown|2zaz_clean|pdb

> <Gold.Protein.RotatedTorsions>
[ 1027 1018 1017 1015 ] final -157.65 input   60.00 | X-H torsion
[ 5159 5154 5153 5150 ] final -161.53 input   60.02 | X-H torsion

> <Gold.Protein.ActiveResidues>
 TYR69   ARG73   ASP324  GLN325  SER326  PHE327  GLU328  ARG330  LEU332  TRP337 
 LEU340  ASP343  GLU344 

> <Gold.Protein.RotatedAtoms>
   24.4573   22.9310   38.6562 H   0  0  0  0  0  0  0  0  0  0  0  0  # atno 1027 bound_to 1018
   22.2105   19.5308   44.8980 H   0  0  0  0  0  0  0  0  0  0  0  0  # atno 5159 bound_to 5154
   23.2330   22.6298   37.6279 LP  0  0  0  0  0  0  0  0  0  0  0  0  # atno 5589 bound_to 1018
   23.9480   24.0979   37.6433 LP  0  0  0  0  0  0  0  0  0  0  0  0  # atno 5590 bound_to 1018
   22.7230   18.6952   43.5992 LP  0  0  0  0  0  0  0  0  0  0  0  0  # atno 5597 bound_to 5154
   23.5873   19.9671   44.1484 LP  0  0  0  0  0  0  0  0  0  0  0  0  # atno 5598 bound_to 5154

> <Gold.Score>
     Fitness  S(hb_ext) S(vdw_ext)  S(hb_int)    S(int)      intcor
     24.37       0.60      17.92       0.00      -0.86      -0.76

> <Gold.Goldscore.Fitness>
24.3732

> <Gold.Goldscore.Internal.Vdw>
-1.0406

> <Gold.Goldscore.Internal.Torsion>
-0.5761

> <Gold.Goldscore.External.Vdw>
17.9160

> <Gold.Goldscore.Internal.HBond>
0.0000

> <Gold.Goldscore.External.HBond>
0.5970

> <Gold.Goldscore.Internal.Correction>
-0.7585

> <Gold.Goldscore.Hbonds>
donor molecule, donor type, donor heavy atom, donor atom, acceptor molecule, acceptor atom, score
      P1  H  5120  5128       L1    17  0.30

> <Gold.Goldscore.Internal.Vdw.Weighted>
-1.0406

> <Gold.Goldscore.Internal.Torsion.Weighted>
-0.5761

> <Gold.Goldscore.External.Vdw.Weighted>
24.6345

> <Gold.Goldscore.Internal.HBond.Weighted>
0.0000

> <Gold.Goldscore.External.HBond.Weighted>
0.5970

> <Gold.Goldscore.Internal.Correction.Weighted>
-0.7585

> <Gold.Rescore>
     Score     S(PLP)   S(hbond)     S(cho)   S(metal)  DE(clash)   DE(tors)     intcor
     16.28     -15.00       0.99       0.00       0.00       0.69       0.50       ----

> <Gold.PLP.Fitness>
16.2817

> <Gold.PLP.PLP>
-14.9961

> <Gold.PLP.part.hbond>
-1.0000

> <Gold.PLP.part.metal>
0.0000

> <Gold.PLP.part.buried>
-5.6871

> <Gold.PLP.part.nonpolar>
-9.7407

> <Gold.PLP.part.repulsive>
0.8950

> <Gold.PLP.ligand.clash>
0.6875

> <Gold.PLP.ligand.torsion>
0.5003

> <Gold.PLP.Chemscore.Hbond>
0.9913

> <Gold.PLP.Chemscore.CHOScore>
0.0000

> <Gold.PLP.Chemscore.Metal>
0.0000

> <Gold.Chemscore.Hbonds>
donor molecule, donor type, donor heavy atom, donor atom, acceptor molecule, acceptor atom, score
      P1  H  5120  5128       L1    17  0.46

> <Gold.PLP.Chemscore.Internal.Correction>
   9.000000E+99

