#       Name:                CT1002167954
#       Creating user name   hitesit
#       Creation time:       Sun Apr 16 02:22:00 2023


#       File generated by GOLD software.
#

@<TRIPOS>MOLECULE
CT1002167954|ligand_prepared|mol2|1|dock7
    29    30     1
SMALL
NO_CHARGES


@<TRIPOS>ATOM
      1 C1          20.3566  23.2058  40.0502 C.3            1 RES1               0.0000
      2 C2          20.6165  23.8257  38.6620 C.ar           1 RES1               0.0000
      3 C3          21.7148  22.7545  40.5790 C.2            1 RES1               0.0000
      4 C4          19.6940  24.2950  40.8864 C.2            1 RES1               0.0000
      5 C5          19.4098  21.9833  40.0212 C.3            1 RES1               0.0000
      6 C6          21.9096  24.1466  38.2601 C.ar           1 RES1               0.0000
      7 C7          19.5755  24.0794  37.7729 C.ar           1 RES1               0.0000
      8 N8          22.2834  23.4946  41.5733 N.am           1 RES1               0.0000
      9 O9          22.2963  21.7869  40.1035 O.2            1 RES1               0.0000
     10 N10         20.3828  24.7846  41.9651 N.am           1 RES1               0.0000
     11 O11         18.5887  24.7454  40.6112 O.2            1 RES1               0.0000
     12 C12         19.2017  21.3367  41.3816 C.3            1 RES1               0.0000
     13 C13         22.1537  24.6985  37.0135 C.ar           1 RES1               0.0000
     14 C14         19.8217  24.6316  36.5267 C.ar           1 RES1               0.0000
     15 C15         21.6603  24.4556  42.3284 C.2            1 RES1               0.0000
     16 C16         21.1101  24.9410  36.1458 C.ar           1 RES1               0.0000
     17 O17         22.2327  24.9794  43.2797 O.2            1 RES1               0.0000
     18 H18         18.4359  22.3002  39.6282 H              1 RES1               0.0000
     19 H19         19.8213  21.2343  39.3335 H              1 RES1               0.0000
     20 H20         22.7432  23.9652  38.9304 H              1 RES1               0.0000
     21 H21         18.5537  23.8451  38.0516 H              1 RES1               0.0000
     22 H22         23.2625  23.3174  41.7740 H              1 RES1               0.0000
     23 H23         19.8983  25.4566  42.5517 H              1 RES1               0.0000
     24 H24         18.5298  20.4845  41.3049 H              1 RES1               0.0000
     25 H25         20.1471  20.9869  41.7911 H              1 RES1               0.0000
     26 H26         18.7700  22.0465  42.0841 H              1 RES1               0.0000
     27 H27         23.1693  24.9414  36.7190 H              1 RES1               0.0000
     28 H28         18.9973  24.8213  35.8473 H              1 RES1               0.0000
     29 H29         21.3016  25.3729  35.1691 H              1 RES1               0.0000
@<TRIPOS>BOND
    1    1    2 1     
    2    1    3 1     
    3    1    4 1     
    4    1    5 1     
    5    2    6 ar    
    6    2    7 ar    
    7    3    8 1     
    8    3    9 2     
    9    4   10 1     
   10    4   11 2     
   11    5   12 1     
   12    5   18 1     
   13    5   19 1     
   14    6   13 ar    
   15    6   20 1     
   16    7   14 ar    
   17    7   21 1     
   18    8   15 1     
   19    8   22 1     
   20   10   15 1     
   21   10   23 1     
   22   12   24 1     
   23   12   25 1     
   24   12   26 1     
   25   13   16 ar    
   26   13   27 1     
   27   14   16 ar    
   28   14   28 1     
   29   15   17 2     
   30   16   29 1     
@<TRIPOS>SUBSTRUCTURE
      1 RES1           1
@<TRIPOS>SET
DONOR_HYDROGENS      STATIC     ATOMS    <user>   **** ""
2 22 23
ATOM$RED        STATIC     ATOMS    COLORGROUP SYSTEM
2 22 23
@<TRIPOS>COMMENT
> <Gold.Version>
2022.3.0

> <Gold.Id.Protein>
unknown|2zaz_clean|pdb

> <Gold.Protein.RotatedTorsions>
[ 1027 1018 1017 1015 ] final -164.13 input   60.00 | X-H torsion
[ 5159 5154 5153 5150 ] final  -20.36 input   60.02 | X-H torsion

> <Gold.Protein.ActiveResidues>
 TYR69   ARG73   ASP324  GLN325  SER326  PHE327  GLU328  ARG330  LEU332  TRP337 
 LEU340  ASP343  GLU344 

> <Gold.Protein.RotatedAtoms>
   24.4074   22.8380   38.6509 H   0  0  0  0  0  0  0  0  0  0  0  0  # atno 1027 bound_to 1018
   23.6407   19.7498   43.8854 H   0  0  0  0  0  0  0  0  0  0  0  0  # atno 5159 bound_to 5154
   23.2038   22.7097   37.5638 LP  0  0  0  0  0  0  0  0  0  0  0  0  # atno 5589 bound_to 1018
   24.0275   24.1118   37.7128 LP  0  0  0  0  0  0  0  0  0  0  0  0  # atno 5590 bound_to 1018
   22.4277   19.7895   44.9694 LP  0  0  0  0  0  0  0  0  0  0  0  0  # atno 5597 bound_to 5154
   22.4426   18.6522   43.7977 LP  0  0  0  0  0  0  0  0  0  0  0  0  # atno 5598 bound_to 5154

> <Gold.Score>
     Fitness  S(hb_ext) S(vdw_ext)  S(hb_int)    S(int)      intcor
     23.25       3.16      15.92       0.00      -1.80      -0.76

> <Gold.Goldscore.Fitness>
23.2524

> <Gold.Goldscore.Internal.Vdw>
-2.1819

> <Gold.Goldscore.Internal.Torsion>
-0.3775

> <Gold.Goldscore.External.Vdw>
15.9219

> <Gold.Goldscore.Internal.HBond>
0.0000

> <Gold.Goldscore.External.HBond>
3.1607

> <Gold.Goldscore.Internal.Correction>
-0.7585

> <Gold.Goldscore.Hbonds>
donor molecule, donor type, donor heavy atom, donor atom, acceptor molecule, acceptor atom, score
      P1  H  5215  5226       L1     9  0.53

> <Gold.Goldscore.Internal.Vdw.Weighted>
-2.1819

> <Gold.Goldscore.Internal.Torsion.Weighted>
-0.3775

> <Gold.Goldscore.External.Vdw.Weighted>
21.8926

> <Gold.Goldscore.Internal.HBond.Weighted>
0.0000

> <Gold.Goldscore.External.HBond.Weighted>
3.1607

> <Gold.Goldscore.Internal.Correction.Weighted>
-0.7585

> <Gold.Rescore>
     Score     S(PLP)   S(hbond)     S(cho)   S(metal)  DE(clash)   DE(tors)     intcor
     20.42     -18.83       1.24       0.00       0.00       1.98       0.08       ----

> <Gold.PLP.Fitness>
20.4235

> <Gold.PLP.PLP>
-18.8317

> <Gold.PLP.part.hbond>
-2.3738

> <Gold.PLP.part.metal>
0.0000

> <Gold.PLP.part.buried>
-3.7653

> <Gold.PLP.part.nonpolar>
-13.3954

> <Gold.PLP.part.repulsive>
0.4495

> <Gold.PLP.ligand.clash>
1.9823

> <Gold.PLP.ligand.torsion>
0.0776

> <Gold.PLP.Chemscore.Hbond>
1.2431

> <Gold.PLP.Chemscore.CHOScore>
0.0000

> <Gold.PLP.Chemscore.Metal>
0.0000

> <Gold.Chemscore.Hbonds>
donor molecule, donor type, donor heavy atom, donor atom, acceptor molecule, acceptor atom, score
      P1  H  5215  5226       L1     9  1.00

> <Gold.PLP.Chemscore.Internal.Correction>
   9.000000E+99

