#       Name:                CT1002167954
#       Creating user name   hitesit
#       Creation time:       Sun Apr 16 02:22:02 2023


#       File generated by GOLD software.
#

@<TRIPOS>MOLECULE
CT1002167954|ligand_prepared|mol2|1|dock9
    29    30     1
SMALL
NO_CHARGES


@<TRIPOS>ATOM
      1 C1          21.1572  23.0871  40.4722 C.3            1 RES1               0.0000
      2 C2          21.3178  24.5479  40.0042 C.ar           1 RES1               0.0000
      3 C3          22.2094  22.2779  39.7197 C.2            1 RES1               0.0000
      4 C4          21.3472  23.1004  41.9850 C.2            1 RES1               0.0000
      5 C5          19.7654  22.4839  40.1709 C.3            1 RES1               0.0000
      6 C6          20.4808  25.0743  39.0250 C.ar           1 RES1               0.0000
      7 C7          22.2949  25.3805  40.5434 C.ar           1 RES1               0.0000
      8 N8          23.2996  21.8527  40.4201 N.am           1 RES1               0.0000
      9 O9          22.1034  22.0502  38.5208 O.2            1 RES1               0.0000
     10 N10         22.4380  22.4510  42.5008 N.am           1 RES1               0.0000
     11 O11         20.5712  23.6815  42.7336 O.2            1 RES1               0.0000
     12 C12         19.5114  21.1532  40.8613 C.3            1 RES1               0.0000
     13 C13         20.6138  26.3865  38.6020 C.ar           1 RES1               0.0000
     14 C14         22.4263  26.6923  40.1188 C.ar           1 RES1               0.0000
     15 C15         23.4394  21.8539  41.7847 C.2            1 RES1               0.0000
     16 C16         21.5862  27.1965  39.1489 C.ar           1 RES1               0.0000
     17 O17         24.4168  21.3376  42.3189 O.2            1 RES1               0.0000
     18 H18         18.9951  23.1983  40.4866 H              1 RES1               0.0000
     19 H19         19.6686  22.3435  39.0872 H              1 RES1               0.0000
     20 H20         19.7114  24.4513  38.5813 H              1 RES1               0.0000
     21 H21         22.9678  25.0050  41.3069 H              1 RES1               0.0000
     22 H22         24.0834  21.5014  39.8792 H              1 RES1               0.0000
     23 H23         22.5102  22.4087  43.5124 H              1 RES1               0.0000
     24 H24         18.5214  20.7743  40.6162 H              1 RES1               0.0000
     25 H25         20.2444  20.4114  40.5511 H              1 RES1               0.0000
     26 H26         19.5749  21.2611  41.9421 H              1 RES1               0.0000
     27 H27         19.9510  26.7780  37.8374 H              1 RES1               0.0000
     28 H28         23.1934  27.3260  40.5515 H              1 RES1               0.0000
     29 H29         21.6899  28.2244  38.8177 H              1 RES1               0.0000
@<TRIPOS>BOND
    1    1    2 1     
    2    1    3 1     
    3    1    4 1     
    4    1    5 1     
    5    2    6 ar    
    6    2    7 ar    
    7    3    8 1     
    8    3    9 2     
    9    4   10 1     
   10    4   11 2     
   11    5   12 1     
   12    5   18 1     
   13    5   19 1     
   14    6   13 ar    
   15    6   20 1     
   16    7   14 ar    
   17    7   21 1     
   18    8   15 1     
   19    8   22 1     
   20   10   15 1     
   21   10   23 1     
   22   12   24 1     
   23   12   25 1     
   24   12   26 1     
   25   13   16 ar    
   26   13   27 1     
   27   14   16 ar    
   28   14   28 1     
   29   15   17 2     
   30   16   29 1     
@<TRIPOS>SUBSTRUCTURE
      1 RES1           1
@<TRIPOS>SET
DONOR_HYDROGENS      STATIC     ATOMS    <user>   **** ""
2 22 23
ATOM$RED        STATIC     ATOMS    COLORGROUP SYSTEM
2 22 23
@<TRIPOS>COMMENT
> <Gold.Version>
2022.3.0

> <Gold.Id.Protein>
unknown|2zaz_clean|pdb

> <Gold.Protein.RotatedTorsions>
[ 1027 1018 1017 1015 ] final  -93.68 input   60.00 | X-H torsion
[ 5159 5154 5153 5150 ] final   16.21 input   60.02 | X-H torsion

> <Gold.Protein.ActiveResidues>
 TYR69   ARG73   ASP324  GLN325  SER326  PHE327  GLU328  ARG330  LEU332  TRP337 
 LEU340  ASP343  GLU344 

> <Gold.Protein.RotatedAtoms>
   24.5025   23.8482   38.2827 H   0  0  0  0  0  0  0  0  0  0  0  0  # atno 1027 bound_to 1018
   23.4880   19.2918   43.5506 H   0  0  0  0  0  0  0  0  0  0  0  0  # atno 5159 bound_to 5154
   23.8619   22.3543   38.3533 LP  0  0  0  0  0  0  0  0  0  0  0  0  # atno 5589 bound_to 1018
   23.2735   23.4492   37.2943 LP  0  0  0  0  0  0  0  0  0  0  0  0  # atno 5590 bound_to 1018
   22.9223   20.0916   44.8499 LP  0  0  0  0  0  0  0  0  0  0  0  0  # atno 5597 bound_to 5154
   22.1017   18.8114   44.2545 LP  0  0  0  0  0  0  0  0  0  0  0  0  # atno 5598 bound_to 5154

> <Gold.Score>
     Fitness  S(hb_ext) S(vdw_ext)  S(hb_int)    S(int)      intcor
     26.85       2.14      18.37       0.00      -0.54      -0.76

> <Gold.Goldscore.Fitness>
26.8540

> <Gold.Goldscore.Internal.Vdw>
-0.7394

> <Gold.Goldscore.Internal.Torsion>
-0.5581

> <Gold.Goldscore.External.Vdw>
18.3661

> <Gold.Goldscore.Internal.HBond>
0.0000

> <Gold.Goldscore.External.HBond>
2.1396

> <Gold.Goldscore.Internal.Correction>
-0.7585

> <Gold.Goldscore.Hbonds>
donor molecule, donor type, donor heavy atom, donor atom, acceptor molecule, acceptor atom, score
      P1  H  1095  1098       L1    17  0.24
      P1  H  5160  5171       L1    17  0.02
      P1  H  5215  5226       L1     9  0.05
      L1  H    10    23       P1  5127  0.05

> <Gold.Goldscore.Internal.Vdw.Weighted>
-0.7394

> <Gold.Goldscore.Internal.Torsion.Weighted>
-0.5581

> <Gold.Goldscore.External.Vdw.Weighted>
25.2534

> <Gold.Goldscore.Internal.HBond.Weighted>
0.0000

> <Gold.Goldscore.External.HBond.Weighted>
2.1396

> <Gold.Goldscore.Internal.Correction.Weighted>
-0.7585

> <Gold.Rescore>
     Score     S(PLP)   S(hbond)     S(cho)   S(metal)  DE(clash)   DE(tors)     intcor
     16.07     -16.39       0.70       0.00       0.00       0.00       1.21       ----

> <Gold.PLP.Fitness>
16.0735

> <Gold.PLP.PLP>
-16.3910

> <Gold.PLP.part.hbond>
-2.7045

> <Gold.PLP.part.metal>
0.0000

> <Gold.PLP.part.buried>
-5.3300

> <Gold.PLP.part.nonpolar>
-7.5634

> <Gold.PLP.part.repulsive>
0.8025

> <Gold.PLP.ligand.clash>
0.0000

> <Gold.PLP.ligand.torsion>
1.2110

> <Gold.PLP.Chemscore.Hbond>
0.7015

> <Gold.PLP.Chemscore.CHOScore>
0.0000

> <Gold.PLP.Chemscore.Metal>
0.0000

> <Gold.Chemscore.Hbonds>
donor molecule, donor type, donor heavy atom, donor atom, acceptor molecule, acceptor atom, score
      P1  H  5160  5171       L1    17  0.66

> <Gold.PLP.Chemscore.Internal.Correction>
   9.000000E+99

