#       Name:                CT1002167954
#       Creating user name   hitesit
#       Creation time:       Sun Apr 16 02:21:59 2023


#       File generated by GOLD software.
#

@<TRIPOS>MOLECULE
CT1002167954|ligand_prepared|mol2|1|dock5
    29    30     1
SMALL
NO_CHARGES


@<TRIPOS>ATOM
      1 C1          21.1317  24.9592  39.2564 C.3            1 RES1               0.0000
      2 C2          21.8002  24.0487  40.3066 C.ar           1 RES1               0.0000
      3 C3          19.6275  24.8454  39.4860 C.2            1 RES1               0.0000
      4 C4          21.6920  26.3584  39.4864 C.2            1 RES1               0.0000
      5 C5          21.4374  24.5564  37.7950 C.3            1 RES1               0.0000
      6 C6          21.8842  24.4455  41.6379 C.ar           1 RES1               0.0000
      7 C7          22.3340  22.8102  39.9604 C.ar           1 RES1               0.0000
      8 N8          18.9955  25.9038  40.0693 N.am           1 RES1               0.0000
      9 O9          19.0121  23.8269  39.1960 O.2            1 RES1               0.0000
     10 N10         20.8293  27.3332  39.9144 N.am           1 RES1               0.0000
     11 O11         22.8762  26.6215  39.3168 O.2            1 RES1               0.0000
     12 C12         20.8674  25.5161  36.7624 C.3            1 RES1               0.0000
     13 C13         22.4777  23.6324  42.5892 C.ar           1 RES1               0.0000
     14 C14         22.9274  21.9988  40.9133 C.ar           1 RES1               0.0000
     15 C15         19.5128  27.1620  40.2457 C.2            1 RES1               0.0000
     16 C16         22.9992  22.4085  42.2278 C.ar           1 RES1               0.0000
     17 O17         18.8151  28.0761  40.6756 O.2            1 RES1               0.0000
     18 H18         22.5251  24.5018  37.6639 H              1 RES1               0.0000
     19 H19         21.0270  23.5557  37.6113 H              1 RES1               0.0000
     20 H20         21.4815  25.4063  41.9406 H              1 RES1               0.0000
     21 H21         22.2897  22.4678  38.9321 H              1 RES1               0.0000
     22 H22         18.0509  25.7452  40.4053 H              1 RES1               0.0000
     23 H23         21.2031  28.2736  39.9932 H              1 RES1               0.0000
     24 H24         21.1106  25.1870  35.7543 H              1 RES1               0.0000
     25 H25         19.7843  25.5756  36.8475 H              1 RES1               0.0000
     26 H26         21.2736  26.5161  36.8998 H              1 RES1               0.0000
     27 H27         22.5330  23.9601  43.6221 H              1 RES1               0.0000
     28 H28         23.3371  21.0366  40.6243 H              1 RES1               0.0000
     29 H29         23.4638  21.7716  42.9733 H              1 RES1               0.0000
@<TRIPOS>BOND
    1    1    2 1     
    2    1    3 1     
    3    1    4 1     
    4    1    5 1     
    5    2    6 ar    
    6    2    7 ar    
    7    3    8 1     
    8    3    9 2     
    9    4   10 1     
   10    4   11 2     
   11    5   12 1     
   12    5   18 1     
   13    5   19 1     
   14    6   13 ar    
   15    6   20 1     
   16    7   14 ar    
   17    7   21 1     
   18    8   15 1     
   19    8   22 1     
   20   10   15 1     
   21   10   23 1     
   22   12   24 1     
   23   12   25 1     
   24   12   26 1     
   25   13   16 ar    
   26   13   27 1     
   27   14   16 ar    
   28   14   28 1     
   29   15   17 2     
   30   16   29 1     
@<TRIPOS>SUBSTRUCTURE
      1 RES1           1
@<TRIPOS>SET
DONOR_HYDROGENS      STATIC     ATOMS    <user>   **** ""
2 22 23
ATOM$RED        STATIC     ATOMS    COLORGROUP SYSTEM
2 22 23
@<TRIPOS>COMMENT
> <Gold.Version>
2022.3.0

> <Gold.Id.Protein>
unknown|2zaz_clean|pdb

> <Gold.Protein.RotatedTorsions>
[ 1027 1018 1017 1015 ] final -121.23 input   60.00 | X-H torsion
[ 5159 5154 5153 5150 ] final   27.72 input   60.02 | X-H torsion

> <Gold.Protein.ActiveResidues>
 TYR69   ARG73   ASP324  GLN325  SER326  PHE327  GLU328  ARG330  LEU332  TRP337 
 LEU340  ASP343  GLU344 

> <Gold.Protein.RotatedAtoms>
   24.5881   23.4867   38.5287 H   0  0  0  0  0  0  0  0  0  0  0  0  # atno 1027 bound_to 1018
   23.3811   19.1474   43.4959 H   0  0  0  0  0  0  0  0  0  0  0  0  # atno 5159 bound_to 5154
   23.5350   22.3444   38.0458 LP  0  0  0  0  0  0  0  0  0  0  0  0  # atno 5589 bound_to 1018
   23.5141   23.8234   37.3539 LP  0  0  0  0  0  0  0  0  0  0  0  0  # atno 5590 bound_to 1018
   23.0806   20.1331   44.7553 LP  0  0  0  0  0  0  0  0  0  0  0  0  # atno 5597 bound_to 5154
   22.0510   18.9153   44.4041 LP  0  0  0  0  0  0  0  0  0  0  0  0  # atno 5598 bound_to 5154

> <Gold.Score>
     Fitness  S(hb_ext) S(vdw_ext)  S(hb_int)    S(int)      intcor
     22.91       0.00      16.86       0.00      -0.27      -0.76

> <Gold.Goldscore.Fitness>
22.9070

> <Gold.Goldscore.Internal.Vdw>
-0.6316

> <Gold.Goldscore.Internal.Torsion>
-0.3983

> <Gold.Goldscore.External.Vdw>
16.8570

> <Gold.Goldscore.Internal.HBond>
0.0000

> <Gold.Goldscore.External.HBond>
0.0000

> <Gold.Goldscore.Internal.Correction>
-0.7585

> <Gold.Goldscore.Internal.Vdw.Weighted>
-0.6316

> <Gold.Goldscore.Internal.Torsion.Weighted>
-0.3983

> <Gold.Goldscore.External.Vdw.Weighted>
23.1784

> <Gold.Goldscore.Internal.HBond.Weighted>
0.0000

> <Gold.Goldscore.External.HBond.Weighted>
0.0000

> <Gold.Goldscore.Internal.Correction.Weighted>
-0.7585

> <Gold.Rescore>
     Score     S(PLP)   S(hbond)     S(cho)   S(metal)  DE(clash)   DE(tors)     intcor
     14.25     -15.03       0.00       0.00       0.00       0.00       0.39       ----

> <Gold.PLP.Fitness>
14.2515

> <Gold.PLP.PLP>
-15.0299

> <Gold.PLP.part.hbond>
0.0000

> <Gold.PLP.part.metal>
0.0000

> <Gold.PLP.part.buried>
-0.3113

> <Gold.PLP.part.nonpolar>
-16.0324

> <Gold.PLP.part.repulsive>
0.0914

> <Gold.PLP.ligand.clash>
0.0000

> <Gold.PLP.ligand.torsion>
0.3892

> <Gold.PLP.Chemscore.Hbond>
0.0000

> <Gold.PLP.Chemscore.CHOScore>
0.0000

> <Gold.PLP.Chemscore.Metal>
0.0000

> <Gold.PLP.Chemscore.Internal.Correction>
   9.000000E+99

