#       Name:                CT1002167954
#       Creating user name   hitesit
#       Creation time:       Sun Apr 16 02:22:01 2023


#       File generated by GOLD software.
#

@<TRIPOS>MOLECULE
CT1002167954|ligand_prepared|mol2|1|dock8
    29    30     1
SMALL
NO_CHARGES


@<TRIPOS>ATOM
      1 C1          20.8912  22.3383  40.5611 C.3            1 RES1               0.0000
      2 C2          20.0097  21.1067  40.2698 C.ar           1 RES1               0.0000
      3 C3          20.9512  22.4726  42.0799 C.2            1 RES1               0.0000
      4 C4          22.2405  22.0614  39.9073 C.2            1 RES1               0.0000
      5 C5          20.3368  23.6567  39.9729 C.3            1 RES1               0.0000
      6 C6          19.5819  20.2807  41.3048 C.ar           1 RES1               0.0000
      7 C7          19.6148  20.7858  38.9738 C.ar           1 RES1               0.0000
      8 N8          22.1142  22.1218  42.6997 N.am           1 RES1               0.0000
      9 O9          19.9798  22.8431  42.7274 O.2            1 RES1               0.0000
     10 N10         23.3310  21.9119  40.7236 N.am           1 RES1               0.0000
     11 O11         22.3663  21.9550  38.6935 O.2            1 RES1               0.0000
     12 C12         21.2003  24.8722  40.2714 C.3            1 RES1               0.0000
     13 C13         18.7856  19.1756  41.0539 C.ar           1 RES1               0.0000
     14 C14         18.8186  19.6800  38.7249 C.ar           1 RES1               0.0000
     15 C15         23.3235  21.8990  42.0918 C.2            1 RES1               0.0000
     16 C16         18.4031  18.8748  39.7640 C.ar           1 RES1               0.0000
     17 O17         24.3371  21.7042  42.7564 O.2            1 RES1               0.0000
     18 H18         20.2453  23.5471  38.8852 H              1 RES1               0.0000
     19 H19         19.3322  23.8292  40.3782 H              1 RES1               0.0000
     20 H20         19.8749  20.5002  42.3261 H              1 RES1               0.0000
     21 H21         19.9307  21.4044  38.1406 H              1 RES1               0.0000
     22 H22         22.0818  22.0152  43.7086 H              1 RES1               0.0000
     23 H23         24.2317  21.7999  40.2691 H              1 RES1               0.0000
     24 H24         20.7662  25.7699  39.8363 H              1 RES1               0.0000
     25 H25         21.2920  25.0260  41.3446 H              1 RES1               0.0000
     26 H26         22.1998  24.7456  39.8605 H              1 RES1               0.0000
     27 H27         18.4623  18.5443  41.8749 H              1 RES1               0.0000
     28 H28         18.5205  19.4467  37.7081 H              1 RES1               0.0000
     29 H29         17.7790  18.0092  39.5676 H              1 RES1               0.0000
@<TRIPOS>BOND
    1    1    2 1     
    2    1    3 1     
    3    1    4 1     
    4    1    5 1     
    5    2    6 ar    
    6    2    7 ar    
    7    3    8 1     
    8    3    9 2     
    9    4   10 1     
   10    4   11 2     
   11    5   12 1     
   12    5   18 1     
   13    5   19 1     
   14    6   13 ar    
   15    6   20 1     
   16    7   14 ar    
   17    7   21 1     
   18    8   15 1     
   19    8   22 1     
   20   10   15 1     
   21   10   23 1     
   22   12   24 1     
   23   12   25 1     
   24   12   26 1     
   25   13   16 ar    
   26   13   27 1     
   27   14   16 ar    
   28   14   28 1     
   29   15   17 2     
   30   16   29 1     
@<TRIPOS>SUBSTRUCTURE
      1 RES1           1
@<TRIPOS>SET
DONOR_HYDROGENS      STATIC     ATOMS    <user>   **** ""
2 22 23
ATOM$RED        STATIC     ATOMS    COLORGROUP SYSTEM
2 22 23
@<TRIPOS>COMMENT
> <Gold.Version>
2022.3.0

> <Gold.Id.Protein>
unknown|2zaz_clean|pdb

> <Gold.Protein.RotatedTorsions>
[ 1027 1018 1017 1015 ] final   83.84 input   60.00 | X-H torsion
[ 5159 5154 5153 5150 ] final  -77.14 input   60.02 | X-H torsion

> <Gold.Protein.ActiveResidues>
 TYR69   ARG73   ASP324  GLN325  SER326  PHE327  GLU328  ARG330  LEU332  TRP337 
 LEU340  ASP343  GLU344 

> <Gold.Protein.RotatedAtoms>
   23.2472   22.6163   37.6444 H   0  0  0  0  0  0  0  0  0  0  0  0  # atno 1027 bound_to 1018
   23.2715   20.1357   44.5976 H   0  0  0  0  0  0  0  0  0  0  0  0  # atno 5159 bound_to 5154
   23.9296   24.0931   37.6279 LP  0  0  0  0  0  0  0  0  0  0  0  0  # atno 5589 bound_to 1018
   24.4707   22.9517   38.6629 LP  0  0  0  0  0  0  0  0  0  0  0  0  # atno 5590 bound_to 1018
   22.0326   19.0807   44.5885 LP  0  0  0  0  0  0  0  0  0  0  0  0  # atno 5597 bound_to 5154
   23.2094   18.9725   43.4615 LP  0  0  0  0  0  0  0  0  0  0  0  0  # atno 5598 bound_to 5154

> <Gold.Score>
     Fitness  S(hb_ext) S(vdw_ext)  S(hb_int)    S(int)      intcor
     28.32       3.07      20.18       0.00      -2.50      -0.76

> <Gold.Goldscore.Fitness>
28.3248

> <Gold.Goldscore.Internal.Vdw>
-2.8909

> <Gold.Goldscore.Internal.Torsion>
-0.3674

> <Gold.Goldscore.External.Vdw>
20.1841

> <Gold.Goldscore.Internal.HBond>
0.0000

> <Gold.Goldscore.External.HBond>
3.0715

> <Gold.Goldscore.Internal.Correction>
-0.7585

> <Gold.Goldscore.Hbonds>
donor molecule, donor type, donor heavy atom, donor atom, acceptor molecule, acceptor atom, score
      P1  H  1018  1027       L1    11  0.06
      P1  H  1095  1098       L1    17  0.46
      P1  H  5215  5226       L1    11  0.01
      L1  H     8    22       P1  5127  0.02

> <Gold.Goldscore.Internal.Vdw.Weighted>
-2.8909

> <Gold.Goldscore.Internal.Torsion.Weighted>
-0.3674

> <Gold.Goldscore.External.Vdw.Weighted>
27.7532

> <Gold.Goldscore.Internal.HBond.Weighted>
0.0000

> <Gold.Goldscore.External.HBond.Weighted>
3.0715

> <Gold.Goldscore.Internal.Correction.Weighted>
-0.7585

> <Gold.Rescore>
     Score     S(PLP)   S(hbond)     S(cho)   S(metal)  DE(clash)   DE(tors)     intcor
     21.78     -17.87       2.00       0.00       0.00       2.04       0.02       ----

> <Gold.PLP.Fitness>
21.7759

> <Gold.PLP.PLP>
-17.8690

> <Gold.PLP.part.hbond>
-6.7022

> <Gold.PLP.part.metal>
0.0000

> <Gold.PLP.part.buried>
-3.1831

> <Gold.PLP.part.nonpolar>
-12.2919

> <Gold.PLP.part.repulsive>
4.4619

> <Gold.PLP.ligand.clash>
2.0429

> <Gold.PLP.ligand.torsion>
0.0195

> <Gold.PLP.Chemscore.Hbond>
1.9963

> <Gold.PLP.Chemscore.CHOScore>
0.0000

> <Gold.PLP.Chemscore.Metal>
0.0000

> <Gold.Chemscore.Hbonds>
donor molecule, donor type, donor heavy atom, donor atom, acceptor molecule, acceptor atom, score
      P1  H  1018  1027       L1    11  0.47

> <Gold.PLP.Chemscore.Internal.Correction>
   9.000000E+99

