#       Name:                CT1002167954
#       Creating user name   hitesit
#       Creation time:       Sun Apr 16 02:21:54 2023


#       File generated by GOLD software.
#

@<TRIPOS>MOLECULE
CT1002167954|ligand_prepared|mol2|1|dock2
    29    30     1
SMALL
NO_CHARGES


@<TRIPOS>ATOM
      1 C1          20.9997  24.9018  40.8939 C.3            1 RES1               0.0000
      2 C2          21.1653  25.1735  39.3847 C.ar           1 RES1               0.0000
      3 C3          20.1750  23.6233  41.0111 C.2            1 RES1               0.0000
      4 C4          22.4091  24.7874  41.4639 C.2            1 RES1               0.0000
      5 C5          20.2666  26.0307  41.6552 C.3            1 RES1               0.0000
      6 C6          21.7299  24.2139  38.5498 C.ar           1 RES1               0.0000
      7 C7          20.7565  26.3757  38.8136 C.ar           1 RES1               0.0000
      8 N8          20.8239  22.4853  41.3901 N.am           1 RES1               0.0000
      9 O9          18.9814  23.6055  40.7368 O.2            1 RES1               0.0000
     10 N10         22.8040  23.5730  41.9611 N.am           1 RES1               0.0000
     11 O11         23.1870  25.7334  41.4719 O.2            1 RES1               0.0000
     12 C12         20.0633  25.7413  43.1341 C.3            1 RES1               0.0000
     13 C13         21.8778  24.4465  37.1924 C.ar           1 RES1               0.0000
     14 C14         20.9055  26.6063  37.4559 C.ar           1 RES1               0.0000
     15 C15         22.0861  22.4089  41.9220 C.2            1 RES1               0.0000
     16 C16         21.4654  25.6425  36.6446 C.ar           1 RES1               0.0000
     17 O17         22.5306  21.3438  42.3404 O.2            1 RES1               0.0000
     18 H18         20.8436  26.9581  41.5530 H              1 RES1               0.0000
     19 H19         19.2867  26.1924  41.1892 H              1 RES1               0.0000
     20 H20         22.0626  23.2677  38.9634 H              1 RES1               0.0000
     21 H21         20.3143  27.1488  39.4328 H              1 RES1               0.0000
     22 H22         20.3247  21.6102  41.2666 H              1 RES1               0.0000
     23 H23         23.7179  23.5332  42.4012 H              1 RES1               0.0000
     24 H24         19.5446  26.5647  43.6206 H              1 RES1               0.0000
     25 H25         19.4714  24.8389  43.2727 H              1 RES1               0.0000
     26 H26         21.0191  25.5999  43.6344 H              1 RES1               0.0000
     27 H27         22.3203  23.6853  36.5584 H              1 RES1               0.0000
     28 H28         20.5801  27.5493  37.0292 H              1 RES1               0.0000
     29 H29         21.5810  25.8243  35.5812 H              1 RES1               0.0000
@<TRIPOS>BOND
    1    1    2 1     
    2    1    3 1     
    3    1    4 1     
    4    1    5 1     
    5    2    6 ar    
    6    2    7 ar    
    7    3    8 1     
    8    3    9 2     
    9    4   10 1     
   10    4   11 2     
   11    5   12 1     
   12    5   18 1     
   13    5   19 1     
   14    6   13 ar    
   15    6   20 1     
   16    7   14 ar    
   17    7   21 1     
   18    8   15 1     
   19    8   22 1     
   20   10   15 1     
   21   10   23 1     
   22   12   24 1     
   23   12   25 1     
   24   12   26 1     
   25   13   16 ar    
   26   13   27 1     
   27   14   16 ar    
   28   14   28 1     
   29   15   17 2     
   30   16   29 1     
@<TRIPOS>SUBSTRUCTURE
      1 RES1           1
@<TRIPOS>SET
DONOR_HYDROGENS      STATIC     ATOMS    <user>   **** ""
2 22 23
ATOM$RED        STATIC     ATOMS    COLORGROUP SYSTEM
2 22 23
@<TRIPOS>COMMENT
> <Gold.Version>
2022.3.0

> <Gold.Id.Protein>
unknown|2zaz_clean|pdb

> <Gold.Protein.RotatedTorsions>
[ 1027 1018 1017 1015 ] final -108.71 input   60.00 | X-H torsion
[ 5159 5154 5153 5150 ] final -150.13 input   60.02 | X-H torsion

> <Gold.Protein.ActiveResidues>
 TYR69   ARG73   ASP324  GLN325  SER326  PHE327  GLU328  ARG330  LEU332  TRP337 
 LEU340  ASP343  GLU344 

> <Gold.Protein.RotatedAtoms>
   24.5687   23.6640   38.4296 H   0  0  0  0  0  0  0  0  0  0  0  0  # atno 1027 bound_to 1018
   22.3209   19.6723   44.9468 H   0  0  0  0  0  0  0  0  0  0  0  0  # atno 5159 bound_to 5154
   23.6781   22.3234   38.1920 LP  0  0  0  0  0  0  0  0  0  0  0  0  # atno 5589 bound_to 1018
   23.3905   23.6657   37.3076 LP  0  0  0  0  0  0  0  0  0  0  0  0  # atno 5590 bound_to 1018
   22.5675   18.6595   43.6972 LP  0  0  0  0  0  0  0  0  0  0  0  0  # atno 5597 bound_to 5154
   23.6317   19.8603   44.0011 LP  0  0  0  0  0  0  0  0  0  0  0  0  # atno 5598 bound_to 5154

> <Gold.Score>
     Fitness  S(hb_ext) S(vdw_ext)  S(hb_int)    S(int)      intcor
     26.29       6.21      14.65       0.00      -0.06      -0.76

> <Gold.Goldscore.Fitness>
26.2939

> <Gold.Goldscore.Internal.Vdw>
-0.4494

> <Gold.Goldscore.Internal.Torsion>
-0.3736

> <Gold.Goldscore.External.Vdw>
14.6541

> <Gold.Goldscore.Internal.HBond>
0.0000

> <Gold.Goldscore.External.HBond>
6.2091

> <Gold.Goldscore.Internal.Correction>
-0.7585

> <Gold.Goldscore.Hbonds>
donor molecule, donor type, donor heavy atom, donor atom, acceptor molecule, acceptor atom, score
      P1  H  5216  5228       L1    17  1.00
      L1  H    10    23       P1  5123  0.10

> <Gold.Goldscore.Internal.Vdw.Weighted>
-0.4494

> <Gold.Goldscore.Internal.Torsion.Weighted>
-0.3736

> <Gold.Goldscore.External.Vdw.Weighted>
20.1493

> <Gold.Goldscore.Internal.HBond.Weighted>
0.0000

> <Gold.Goldscore.External.HBond.Weighted>
6.2091

> <Gold.Goldscore.Internal.Correction.Weighted>
-0.7585

> <Gold.Rescore>
     Score     S(PLP)   S(hbond)     S(cho)   S(metal)  DE(clash)   DE(tors)     intcor
     23.53     -18.13       1.83       0.00       0.00       0.00       0.05       ----

> <Gold.PLP.Fitness>
23.5256

> <Gold.PLP.PLP>
-18.1341

> <Gold.PLP.part.hbond>
-2.0000

> <Gold.PLP.part.metal>
0.0000

> <Gold.PLP.part.buried>
-4.1270

> <Gold.PLP.part.nonpolar>
-12.6775

> <Gold.PLP.part.repulsive>
0.3215

> <Gold.PLP.ligand.clash>
0.0000

> <Gold.PLP.ligand.torsion>
0.0521

> <Gold.PLP.Chemscore.Hbond>
1.8319

> <Gold.PLP.Chemscore.CHOScore>
0.0000

> <Gold.PLP.Chemscore.Metal>
0.0000

> <Gold.Chemscore.Hbonds>
donor molecule, donor type, donor heavy atom, donor atom, acceptor molecule, acceptor atom, score
      P1  H  5216  5228       L1    17  1.00

> <Gold.PLP.Chemscore.Internal.Correction>
   9.000000E+99

