#       Name:                CT1002167954
#       Creating user name   hitesit
#       Creation time:       Sun Apr 16 02:21:26 2023


#       File generated by GOLD software.
#

@<TRIPOS>MOLECULE
CT1002167954|ligand_prepared|mol2|1|dock5
    29    30     1
SMALL
NO_CHARGES


@<TRIPOS>ATOM
      1 C1          -0.5882   7.8875  14.5481 C.3            1 RES1               0.0000
      2 C2          -0.7346   6.3749  14.8119 C.ar           1 RES1               0.0000
      3 C3          -1.5820   8.5821  15.4744 C.2            1 RES1               0.0000
      4 C4           0.8703   8.2306  14.8307 C.2            1 RES1               0.0000
      5 C5          -0.9026   8.3009  13.0915 C.3            1 RES1               0.0000
      6 C6          -0.1629   5.4462  13.9474 C.ar           1 RES1               0.0000
      7 C7          -1.4349   5.8940  15.9150 C.ar           1 RES1               0.0000
      8 N8          -1.0818   9.2350  16.5622 N.am           1 RES1               0.0000
      9 O9          -2.7891   8.5245  15.2751 O.2            1 RES1               0.0000
     10 N10          1.1417   9.0596  15.8875 N.am           1 RES1               0.0000
     11 O11          1.7880   7.7772  14.1580 O.2            1 RES1               0.0000
     12 C12         -0.8818   9.8041  12.8627 C.3            1 RES1               0.0000
     13 C13         -0.2843   4.0861  14.1788 C.ar           1 RES1               0.0000
     14 C14         -1.5553   4.5334  16.1445 C.ar           1 RES1               0.0000
     15 C15          0.2340   9.5527  16.7848 C.2            1 RES1               0.0000
     16 C16         -0.9801   3.6288  15.2776 C.ar           1 RES1               0.0000
     17 O17          0.5616  10.2480  17.7420 O.2            1 RES1               0.0000
     18 H18         -0.1682   7.8321  12.4250 H              1 RES1               0.0000
     19 H19         -1.8939   7.9165  12.8215 H              1 RES1               0.0000
     20 H20          0.3863   5.7873  13.0761 H              1 RES1               0.0000
     21 H21         -1.8966   6.5873  16.6099 H              1 RES1               0.0000
     22 H22         -1.7476   9.5126  17.2763 H              1 RES1               0.0000
     23 H23          2.1101   9.3346  16.0172 H              1 RES1               0.0000
     24 H24         -1.1087  10.0395  11.8250 H              1 RES1               0.0000
     25 H25         -1.6181  10.3002  13.4916 H              1 RES1               0.0000
     26 H26          0.0974  10.2164  13.0975 H              1 RES1               0.0000
     27 H27          0.1690   3.3782  13.4928 H              1 RES1               0.0000
     28 H28         -2.1043   4.1780  17.0102 H              1 RES1               0.0000
     29 H29         -1.0748   2.5632  15.4589 H              1 RES1               0.0000
@<TRIPOS>BOND
    1    1    2 1     
    2    1    3 1     
    3    1    4 1     
    4    1    5 1     
    5    2    6 ar    
    6    2    7 ar    
    7    3    8 1     
    8    3    9 2     
    9    4   10 1     
   10    4   11 2     
   11    5   12 1     
   12    5   18 1     
   13    5   19 1     
   14    6   13 ar    
   15    6   20 1     
   16    7   14 ar    
   17    7   21 1     
   18    8   15 1     
   19    8   22 1     
   20   10   15 1     
   21   10   23 1     
   22   12   24 1     
   23   12   25 1     
   24   12   26 1     
   25   13   16 ar    
   26   13   27 1     
   27   14   16 ar    
   28   14   28 1     
   29   15   17 2     
   30   16   29 1     
@<TRIPOS>SUBSTRUCTURE
      1 RES1           1
@<TRIPOS>SET
DONOR_HYDROGENS      STATIC     ATOMS    <user>   **** ""
2 22 23
ATOM$RED        STATIC     ATOMS    COLORGROUP SYSTEM
2 22 23
@<TRIPOS>COMMENT
> <Gold.Version>
2022.3.0

> <Gold.Id.Protein>
unknown|4a9y_clean|pdb

> <Gold.Protein.RotatedTorsions>
[ 1685 1678 1676 1673 ] final  -94.52 input   59.97 | X-H torsion
[ 2433 2428 2427 2424 ] final -126.49 input   60.04 | X-H torsion

> <Gold.Protein.ActiveResidues>
 TRP18   PRO29   VAL30   GLY31   SER32   GLY33   TYR35   GLY36   SER37   VAL38  
 CYS39   ALA40   ARG49   VAL50   ALA51   VAL52   LYS53   LYS54   LEU55   ARG67  
 ARG70   GLU71   LEU72   LEU74   LEU75   MET78   HIS80   ASN82   VAL83   ILE84  
 GLY85   LEU86   LEU87   ASP88   TYR103  LEU104  VAL105  THR106  HIS107  LEU108 
 MET109  GLY110  ALA111  ASP112  ASN114  ASN115  GLY137  LEU138  TYR140  ILE141 
 HIS142  ILE146  ILE147  HIS148  ARG149  ASP150  LEU151  SER154  ASN155  LEU156 
 ALA157  LYS165  ILE166  LEU167  ASP168  PHE169  GLY170  ASP205 

> <Gold.Protein.RotatedAtoms>
   -5.7115   -1.6381   17.8585 H   0  0  0  0  0  0  0  0  0  0  0  0  # atno 1685 bound_to 1678
    6.5068    6.0690   25.4891 H   0  0  0  0  0  0  0  0  0  0  0  0  # atno 2433 bound_to 2428
   -4.3422   -2.4930   18.0629 LP  0  0  0  0  0  0  0  0  0  0  0  0  # atno 5425 bound_to 1678
   -5.7767   -3.1201   18.5271 LP  0  0  0  0  0  0  0  0  0  0  0  0  # atno 5426 bound_to 1678
    4.9929    5.7044   25.0173 LP  0  0  0  0  0  0  0  0  0  0  0  0  # atno 5504 bound_to 2428
    6.2717    5.0077   24.2784 LP  0  0  0  0  0  0  0  0  0  0  0  0  # atno 5505 bound_to 2428

> <Gold.Score>
     Fitness  S(hb_ext) S(vdw_ext)  S(hb_int)    S(int)      intcor
     31.35       0.00      23.82       0.00      -1.41      -0.76

> <Gold.Goldscore.Fitness>
31.3499

> <Gold.Goldscore.Internal.Vdw>
-1.7516

> <Gold.Goldscore.Internal.Torsion>
-0.4148

> <Gold.Goldscore.External.Vdw>
23.8239

> <Gold.Goldscore.Internal.HBond>
0.0000

> <Gold.Goldscore.External.HBond>
0.0000

> <Gold.Goldscore.Internal.Correction>
-0.7585

> <Gold.Goldscore.Internal.Vdw.Weighted>
-1.7516

> <Gold.Goldscore.Internal.Torsion.Weighted>
-0.4148

> <Gold.Goldscore.External.Vdw.Weighted>
32.7579

> <Gold.Goldscore.Internal.HBond.Weighted>
0.0000

> <Gold.Goldscore.External.HBond.Weighted>
0.0000

> <Gold.Goldscore.Internal.Correction.Weighted>
-0.7585

> <Gold.Rescore>
     Score     S(PLP)   S(hbond)     S(cho)   S(metal)  DE(clash)   DE(tors)     intcor
     38.13     -40.13       0.00       0.00       0.00       0.00       1.00       ----

> <Gold.PLP.Fitness>
38.1267

> <Gold.PLP.PLP>
-40.1251

> <Gold.PLP.part.hbond>
0.0000

> <Gold.PLP.part.metal>
0.0000

> <Gold.PLP.part.buried>
-5.1237

> <Gold.PLP.part.nonpolar>
-35.5085

> <Gold.PLP.part.repulsive>
0.5933

> <Gold.PLP.ligand.clash>
0.0000

> <Gold.PLP.ligand.torsion>
0.9992

> <Gold.PLP.Chemscore.Hbond>
0.0000

> <Gold.PLP.Chemscore.CHOScore>
0.0000

> <Gold.PLP.Chemscore.Metal>
0.0000

> <Gold.PLP.Chemscore.Internal.Correction>
   9.000000E+99

