#       Name:                CT1002167954
#       Creating user name   hitesit
#       Creation time:       Sun Apr 16 02:21:21 2023


#       File generated by GOLD software.
#

@<TRIPOS>MOLECULE
CT1002167954|ligand_prepared|mol2|1|dock1
    29    30     1
SMALL
NO_CHARGES


@<TRIPOS>ATOM
      1 C1          -4.0925   1.8128  19.3692 C.3            1 RES1               0.0000
      2 C2          -5.0754   1.4499  18.2374 C.ar           1 RES1               0.0000
      3 C3          -2.7859   2.2128  18.6903 C.2            1 RES1               0.0000
      4 C4          -4.7510   2.9365  20.1620 C.2            1 RES1               0.0000
      5 C5          -3.8032   0.6470  20.3432 C.3            1 RES1               0.0000
      6 C6          -6.2912   0.8365  18.5242 C.ar           1 RES1               0.0000
      7 C7          -4.7819   1.7242  16.9043 C.ar           1 RES1               0.0000
      8 N8          -2.4644   3.5379  18.6697 N.am           1 RES1               0.0000
      9 O9          -2.0681   1.3825  18.1465 O.2            1 RES1               0.0000
     10 N10         -4.1540   4.1698  20.1448 N.am           1 RES1               0.0000
     11 O11         -5.7905   2.7692  20.7880 O.2            1 RES1               0.0000
     12 C12         -3.6098  -0.6944  19.6536 C.3            1 RES1               0.0000
     13 C13         -7.1826   0.5117  17.5152 C.ar           1 RES1               0.0000
     14 C14         -5.6747   1.3984  15.8967 C.ar           1 RES1               0.0000
     15 C15         -3.0573   4.5292  19.4097 C.2            1 RES1               0.0000
     16 C16         -6.8753   0.7928  16.2010 C.ar           1 RES1               0.0000
     17 O17         -2.6112   5.6729  19.4041 O.2            1 RES1               0.0000
     18 H18         -2.8985   0.8826  20.9172 H              1 RES1               0.0000
     19 H19         -4.6370   0.5630  21.0511 H              1 RES1               0.0000
     20 H20         -6.5492   0.6053  19.5523 H              1 RES1               0.0000
     21 H21         -3.8428   2.1992  16.6413 H              1 RES1               0.0000
     22 H22         -1.7136   3.8178  18.0466 H              1 RES1               0.0000
     23 H23         -4.5651   4.8862  20.7347 H              1 RES1               0.0000
     24 H24         -3.4097  -1.4773  20.3821 H              1 RES1               0.0000
     25 H25         -4.5003  -0.9722  19.0935 H              1 RES1               0.0000
     26 H26         -2.7721  -0.6544  18.9604 H              1 RES1               0.0000
     27 H27         -8.1256   0.0339  17.7598 H              1 RES1               0.0000
     28 H28         -5.4284   1.6209  14.8637 H              1 RES1               0.0000
     29 H29         -7.5740   0.5386  15.4108 H              1 RES1               0.0000
@<TRIPOS>BOND
    1    1    2 1     
    2    1    3 1     
    3    1    4 1     
    4    1    5 1     
    5    2    6 ar    
    6    2    7 ar    
    7    3    8 1     
    8    3    9 2     
    9    4   10 1     
   10    4   11 2     
   11    5   12 1     
   12    5   18 1     
   13    5   19 1     
   14    6   13 ar    
   15    6   20 1     
   16    7   14 ar    
   17    7   21 1     
   18    8   15 1     
   19    8   22 1     
   20   10   15 1     
   21   10   23 1     
   22   12   24 1     
   23   12   25 1     
   24   12   26 1     
   25   13   16 ar    
   26   13   27 1     
   27   14   16 ar    
   28   14   28 1     
   29   15   17 2     
   30   16   29 1     
@<TRIPOS>SUBSTRUCTURE
      1 RES1           1
@<TRIPOS>SET
DONOR_HYDROGENS      STATIC     ATOMS    <user>   **** ""
2 22 23
ATOM$RED        STATIC     ATOMS    COLORGROUP SYSTEM
2 22 23
@<TRIPOS>COMMENT
> <Gold.Version>
2022.3.0

> <Gold.Id.Protein>
unknown|4a9y_clean|pdb

> <Gold.Protein.RotatedTorsions>
[ 1685 1678 1676 1673 ] final  -41.47 input   59.97 | X-H torsion
[ 2433 2428 2427 2424 ] final -114.75 input   60.04 | X-H torsion

> <Gold.Protein.ActiveResidues>
 TRP18   PRO29   VAL30   GLY31   SER32   GLY33   TYR35   GLY36   SER37   VAL38  
 CYS39   ALA40   ARG49   VAL50   ALA51   VAL52   LYS53   LYS54   LEU55   ARG67  
 ARG70   GLU71   LEU72   LEU74   LEU75   MET78   HIS80   ASN82   VAL83   ILE84  
 GLY85   LEU86   LEU87   ASP88   TYR103  LEU104  VAL105  THR106  HIS107  LEU108 
 MET109  GLY110  ALA111  ASP112  ASN114  ASN115  GLY137  LEU138  TYR140  ILE141 
 HIS142  ILE146  ILE147  HIS148  ARG149  ASP150  LEU151  SER154  ASN155  LEU156 
 ALA157  LYS165  ILE166  LEU167  ASP168  PHE169  GLY170  ASP205 

> <Gold.Protein.RotatedAtoms>
   -6.1958   -2.2357   18.1862 H   0  0  0  0  0  0  0  0  0  0  0  0  # atno 1685 bound_to 1678
    6.6438    5.9778   25.3912 H   0  0  0  0  0  0  0  0  0  0  0  0  # atno 2433 bound_to 2428
   -4.6865   -1.7749   17.7894 LP  0  0  0  0  0  0  0  0  0  0  0  0  # atno 5425 bound_to 1678
   -4.9447   -3.2364   18.4706 LP  0  0  0  0  0  0  0  0  0  0  0  0  # atno 5426 bound_to 1678
    5.0406    5.8274   25.1580 LP  0  0  0  0  0  0  0  0  0  0  0  0  # atno 5504 bound_to 2428
    6.0861    4.9766   24.2362 LP  0  0  0  0  0  0  0  0  0  0  0  0  # atno 5505 bound_to 2428

> <Gold.Score>
     Fitness  S(hb_ext) S(vdw_ext)  S(hb_int)    S(int)      intcor
     36.55       0.33      28.65       0.00      -3.18      -0.76

> <Gold.Goldscore.Fitness>
36.5503

> <Gold.Goldscore.Internal.Vdw>
-3.0750

> <Gold.Goldscore.Internal.Torsion>
-0.8613

> <Gold.Goldscore.External.Vdw>
28.6518

> <Gold.Goldscore.Internal.HBond>
0.0000

> <Gold.Goldscore.External.HBond>
0.3319

> <Gold.Goldscore.Internal.Correction>
-0.7585

> <Gold.Goldscore.Hbonds>
donor molecule, donor type, donor heavy atom, donor atom, acceptor molecule, acceptor atom, score
      P1  H   762   773       L1    17  0.01
      P1  H  2639  2647       L1     9  0.05
      L1  H     8    22       P1  2642  0.08

> <Gold.Goldscore.Internal.Vdw.Weighted>
-3.0750

> <Gold.Goldscore.Internal.Torsion.Weighted>
-0.8613

> <Gold.Goldscore.External.Vdw.Weighted>
39.3962

> <Gold.Goldscore.Internal.HBond.Weighted>
0.0000

> <Gold.Goldscore.External.HBond.Weighted>
0.3319

> <Gold.Goldscore.Internal.Correction.Weighted>
-0.7585

> <Gold.Rescore>
     Score     S(PLP)   S(hbond)     S(cho)   S(metal)  DE(clash)   DE(tors)     intcor
     33.97     -33.73       0.74       0.00       0.00       1.34       0.31       ----

> <Gold.PLP.Fitness>
33.9710

> <Gold.PLP.PLP>
-33.7349

> <Gold.PLP.part.hbond>
-2.0000

> <Gold.PLP.part.metal>
0.0000

> <Gold.PLP.part.buried>
6.0323

> <Gold.PLP.part.nonpolar>
-37.6589

> <Gold.PLP.part.repulsive>
0.4721

> <Gold.PLP.ligand.clash>
1.3445

> <Gold.PLP.ligand.torsion>
0.3137

> <Gold.PLP.Chemscore.Hbond>
0.7360

> <Gold.PLP.Chemscore.CHOScore>
0.0000

> <Gold.PLP.Chemscore.Metal>
0.0000

> <Gold.Chemscore.Hbonds>
donor molecule, donor type, donor heavy atom, donor atom, acceptor molecule, acceptor atom, score
      L1  H     8    22       P1  2642  0.70

> <Gold.PLP.Chemscore.Internal.Correction>
   9.000000E+99

