#       Name:                CT1002167954
#       Creating user name   hitesit
#       Creation time:       Sun Apr 16 02:21:32 2023


#       File generated by GOLD software.
#

@<TRIPOS>MOLECULE
CT1002167954|ligand_prepared|mol2|1|dock10
    29    30     1
SMALL
NO_CHARGES


@<TRIPOS>ATOM
      1 C1          -4.3501   1.1789  20.7519 C.3            1 RES1               0.0000
      2 C2          -4.2344   2.3484  21.7509 C.ar           1 RES1               0.0000
      3 C3          -5.8229   1.0920  20.3628 C.2            1 RES1               0.0000
      4 C4          -3.4190   1.5148  19.5922 C.2            1 RES1               0.0000
      5 C5          -3.9145  -0.1858  21.3344 C.3            1 RES1               0.0000
      6 C6          -4.3423   2.1240  23.1201 C.ar           1 RES1               0.0000
      7 C7          -4.0175   3.6542  21.3192 C.ar           1 RES1               0.0000
      8 N8          -6.1747   1.5275  19.1192 N.am           1 RES1               0.0000
      9 O9          -6.6687   0.6844  21.1495 O.2            1 RES1               0.0000
     10 N10         -3.9812   1.7509  18.3651 N.am           1 RES1               0.0000
     11 O11         -2.2049   1.5935  19.7337 O.2            1 RES1               0.0000
     12 C12         -3.6232  -1.2389  20.2770 C.3            1 RES1               0.0000
     13 C13         -4.2344   3.1668  24.0252 C.ar           1 RES1               0.0000
     14 C14         -3.9101   4.6956  22.2261 C.ar           1 RES1               0.0000
     15 C15         -5.3191   1.8027  18.0829 C.2            1 RES1               0.0000
     16 C16         -4.0178   4.4531  23.5789 C.ar           1 RES1               0.0000
     17 O17         -5.7489   2.0751  16.9656 O.2            1 RES1               0.0000
     18 H18         -3.0142  -0.0386  21.9436 H              1 RES1               0.0000
     19 H19         -4.7084  -0.5578  21.9938 H              1 RES1               0.0000
     20 H20         -4.5152   1.1188  23.4898 H              1 RES1               0.0000
     21 H21         -3.9306   3.8687  20.2595 H              1 RES1               0.0000
     22 H22         -7.1654   1.6609  18.9435 H              1 RES1               0.0000
     23 H23         -3.3433   1.9020  17.5901 H              1 RES1               0.0000
     24 H24         -3.3221  -2.1767  20.7392 H              1 RES1               0.0000
     25 H25         -4.5049  -1.4288  19.6685 H              1 RES1               0.0000
     26 H26         -2.8208  -0.9127  19.6185 H              1 RES1               0.0000
     27 H27         -4.3212   2.9708  25.0888 H              1 RES1               0.0000
     28 H28         -3.7402   5.7065  21.8703 H              1 RES1               0.0000
     29 H29         -3.9328   5.2697  24.2882 H              1 RES1               0.0000
@<TRIPOS>BOND
    1    1    2 1     
    2    1    3 1     
    3    1    4 1     
    4    1    5 1     
    5    2    6 ar    
    6    2    7 ar    
    7    3    8 1     
    8    3    9 2     
    9    4   10 1     
   10    4   11 2     
   11    5   12 1     
   12    5   18 1     
   13    5   19 1     
   14    6   13 ar    
   15    6   20 1     
   16    7   14 ar    
   17    7   21 1     
   18    8   15 1     
   19    8   22 1     
   20   10   15 1     
   21   10   23 1     
   22   12   24 1     
   23   12   25 1     
   24   12   26 1     
   25   13   16 ar    
   26   13   27 1     
   27   14   16 ar    
   28   14   28 1     
   29   15   17 2     
   30   16   29 1     
@<TRIPOS>SUBSTRUCTURE
      1 RES1           1
@<TRIPOS>SET
DONOR_HYDROGENS      STATIC     ATOMS    <user>   **** ""
2 22 23
ATOM$RED        STATIC     ATOMS    COLORGROUP SYSTEM
2 22 23
@<TRIPOS>COMMENT
> <Gold.Version>
2022.3.0

> <Gold.Id.Protein>
unknown|4a9y_clean|pdb

> <Gold.Protein.RotatedTorsions>
[ 1685 1678 1676 1673 ] final -132.48 input   59.97 | X-H torsion
[ 2433 2428 2427 2424 ] final   39.09 input   60.04 | X-H torsion

> <Gold.Protein.ActiveResidues>
 TRP18   PRO29   VAL30   GLY31   SER32   GLY33   TYR35   GLY36   SER37   VAL38  
 CYS39   ALA40   ARG49   VAL50   ALA51   VAL52   LYS53   LYS54   LEU55   ARG67  
 ARG70   GLU71   LEU72   LEU74   LEU75   MET78   HIS80   ASN82   VAL83   ILE84  
 GLY85   LEU86   LEU87   ASP88   TYR103  LEU104  VAL105  THR106  HIS107  LEU108 
 MET109  GLY110  ALA111  ASP112  ASN114  ASN115  GLY137  LEU138  TYR140  ILE141 
 HIS142  ILE146  ILE147  HIS148  ARG149  ASP150  LEU151  SER154  ASN155  LEU156 
 ALA157  LYS165  ILE166  LEU167  ASP168  PHE169  GLY170  ASP205 

> <Gold.Protein.RotatedAtoms>
   -5.1139   -1.5815   17.7559 H   0  0  0  0  0  0  0  0  0  0  0  0  # atno 1685 bound_to 1678
    5.5445    5.0340   24.2843 H   0  0  0  0  0  0  0  0  0  0  0  0  # atno 2433 bound_to 2428
   -4.5623   -3.0052   18.3185 LP  0  0  0  0  0  0  0  0  0  0  0  0  # atno 5425 bound_to 1678
   -6.1584   -2.6648   18.3748 LP  0  0  0  0  0  0  0  0  0  0  0  0  # atno 5426 bound_to 1678
    6.8626    5.6433   25.0181 LP  0  0  0  0  0  0  0  0  0  0  0  0  # atno 5504 bound_to 2428
    5.3714    6.1115   25.4911 LP  0  0  0  0  0  0  0  0  0  0  0  0  # atno 5505 bound_to 2428

> <Gold.Score>
     Fitness  S(hb_ext) S(vdw_ext)  S(hb_int)    S(int)      intcor
     28.14       0.00      21.09       0.00      -0.86      -0.76

> <Gold.Goldscore.Fitness>
28.1367

> <Gold.Goldscore.Internal.Vdw>
-0.7947

> <Gold.Goldscore.Internal.Torsion>
-0.8216

> <Gold.Goldscore.External.Vdw>
21.0869

> <Gold.Goldscore.Internal.HBond>
0.0000

> <Gold.Goldscore.External.HBond>
0.0000

> <Gold.Goldscore.Internal.Correction>
-0.7585

> <Gold.Goldscore.Internal.Vdw.Weighted>
-0.7947

> <Gold.Goldscore.Internal.Torsion.Weighted>
-0.8216

> <Gold.Goldscore.External.Vdw.Weighted>
28.9945

> <Gold.Goldscore.Internal.HBond.Weighted>
0.0000

> <Gold.Goldscore.External.HBond.Weighted>
0.0000

> <Gold.Goldscore.Internal.Correction.Weighted>
-0.7585

> <Gold.Rescore>
     Score     S(PLP)   S(hbond)     S(cho)   S(metal)  DE(clash)   DE(tors)     intcor
     36.51     -37.30       0.00       0.00       0.00       0.00       0.39       ----

> <Gold.PLP.Fitness>
36.5098

> <Gold.PLP.PLP>
-37.2951

> <Gold.PLP.part.hbond>
0.0000

> <Gold.PLP.part.metal>
0.0000

> <Gold.PLP.part.buried>
-3.9995

> <Gold.PLP.part.nonpolar>
-33.7738

> <Gold.PLP.part.repulsive>
0.3125

> <Gold.PLP.ligand.clash>
0.0000

> <Gold.PLP.ligand.torsion>
0.3926

> <Gold.PLP.Chemscore.Hbond>
0.0000

> <Gold.PLP.Chemscore.CHOScore>
0.0000

> <Gold.PLP.Chemscore.Metal>
0.0000

> <Gold.PLP.Chemscore.Internal.Correction>
   9.000000E+99

