#       Name:                CT1002167954
#       Creating user name   hitesit
#       Creation time:       Sun Apr 16 02:21:29 2023


#       File generated by GOLD software.
#

@<TRIPOS>MOLECULE
CT1002167954|ligand_prepared|mol2|1|dock8
    29    30     1
SMALL
NO_CHARGES


@<TRIPOS>ATOM
      1 C1          -4.3884   1.3657  19.3265 C.3            1 RES1               0.0000
      2 C2          -4.1588   0.3545  20.4682 C.ar           1 RES1               0.0000
      3 C3          -5.2383   2.4888  19.9135 C.2            1 RES1               0.0000
      4 C4          -3.0047   1.8091  18.8646 C.2            1 RES1               0.0000
      5 C5          -5.1320   0.7730  18.1070 C.3            1 RES1               0.0000
      6 C6          -4.2231   0.7603  21.7979 C.ar           1 RES1               0.0000
      7 C7          -3.8847  -0.9856  20.2080 C.ar           1 RES1               0.0000
      8 N8          -4.6240   3.6797  20.1670 N.am           1 RES1               0.0000
      9 O9          -6.4203   2.3197  20.1866 O.2            1 RES1               0.0000
     10 N10         -2.6501   3.1177  19.0635 N.am           1 RES1               0.0000
     11 O11         -2.2120   1.0330  18.3453 O.2            1 RES1               0.0000
     12 C12         -5.5830   1.8166  17.0972 C.3            1 RES1               0.0000
     13 C13         -4.0237  -0.1415  22.8301 C.ar           1 RES1               0.0000
     14 C14         -3.6854  -1.8857  21.2417 C.ar           1 RES1               0.0000
     15 C15         -3.3853   4.0657  19.7215 C.2            1 RES1               0.0000
     16 C16         -3.7552  -1.4650  22.5528 C.ar           1 RES1               0.0000
     17 O17         -2.9755   5.2077  19.9086 O.2            1 RES1               0.0000
     18 H18         -4.4704   0.0573  17.6037 H              1 RES1               0.0000
     19 H19         -6.0119   0.2229  18.4631 H              1 RES1               0.0000
     20 H20         -4.4309   1.7983  22.0354 H              1 RES1               0.0000
     21 H21         -3.8240  -1.3388  19.1842 H              1 RES1               0.0000
     22 H22         -5.1325   4.3447  20.7410 H              1 RES1               0.0000
     23 H23         -1.7552   3.4125  18.6859 H              1 RES1               0.0000
     24 H24         -6.0990   1.3475  16.2621 H              1 RES1               0.0000
     25 H25         -6.2627   2.5305  17.5578 H              1 RES1               0.0000
     26 H26         -4.7303   2.3659  16.7034 H              1 RES1               0.0000
     27 H27         -4.0783   0.1949  23.8601 H              1 RES1               0.0000
     28 H28         -3.4738  -2.9262  21.0188 H              1 RES1               0.0000
     29 H29         -3.5994  -2.1713  23.3616 H              1 RES1               0.0000
@<TRIPOS>BOND
    1    1    2 1     
    2    1    3 1     
    3    1    4 1     
    4    1    5 1     
    5    2    6 ar    
    6    2    7 ar    
    7    3    8 1     
    8    3    9 2     
    9    4   10 1     
   10    4   11 2     
   11    5   12 1     
   12    5   18 1     
   13    5   19 1     
   14    6   13 ar    
   15    6   20 1     
   16    7   14 ar    
   17    7   21 1     
   18    8   15 1     
   19    8   22 1     
   20   10   15 1     
   21   10   23 1     
   22   12   24 1     
   23   12   25 1     
   24   12   26 1     
   25   13   16 ar    
   26   13   27 1     
   27   14   16 ar    
   28   14   28 1     
   29   15   17 2     
   30   16   29 1     
@<TRIPOS>SUBSTRUCTURE
      1 RES1           1
@<TRIPOS>SET
DONOR_HYDROGENS      STATIC     ATOMS    <user>   **** ""
2 22 23
ATOM$RED        STATIC     ATOMS    COLORGROUP SYSTEM
2 22 23
@<TRIPOS>COMMENT
> <Gold.Version>
2022.3.0

> <Gold.Id.Protein>
unknown|4a9y_clean|pdb

> <Gold.Protein.RotatedTorsions>
[ 1685 1678 1676 1673 ] final   22.70 input   59.97 | X-H torsion
[ 2433 2428 2427 2424 ] final  112.93 input   60.04 | X-H torsion

> <Gold.Protein.ActiveResidues>
 TRP18   PRO29   VAL30   GLY31   SER32   GLY33   TYR35   GLY36   SER37   VAL38  
 CYS39   ALA40   ARG49   VAL50   ALA51   VAL52   LYS53   LYS54   LEU55   ARG67  
 ARG70   GLU71   LEU72   LEU74   LEU75   MET78   HIS80   ASN82   VAL83   ILE84  
 GLY85   LEU86   LEU87   ASP88   TYR103  LEU104  VAL105  THR106  HIS107  LEU108 
 MET109  GLY110  ALA111  ASP112  ASN114  ASN115  GLY137  LEU138  TYR140  ILE141 
 HIS142  ILE146  ILE147  HIS148  ARG149  ASP150  LEU151  SER154  ASN155  LEU156 
 ALA157  LYS165  ILE166  LEU167  ASP168  PHE169  GLY170  ASP205 

> <Gold.Protein.RotatedAtoms>
   -5.8111   -3.0916   18.5156 H   0  0  0  0  0  0  0  0  0  0  0  0  # atno 1685 bound_to 1678
    4.9983    5.6957   25.0111 H   0  0  0  0  0  0  0  0  0  0  0  0  # atno 2433 bound_to 2428
   -5.6736   -1.6147   17.8465 LP  0  0  0  0  0  0  0  0  0  0  0  0  # atno 5425 bound_to 1678
   -4.3451   -2.5347   18.0818 LP  0  0  0  0  0  0  0  0  0  0  0  0  # atno 5426 bound_to 1678
    6.2806    5.0099   24.2812 LP  0  0  0  0  0  0  0  0  0  0  0  0  # atno 5504 bound_to 2428
    6.5037    6.0782   25.4959 LP  0  0  0  0  0  0  0  0  0  0  0  0  # atno 5505 bound_to 2428

> <Gold.Score>
     Fitness  S(hb_ext) S(vdw_ext)  S(hb_int)    S(int)      intcor
     37.23       0.54      27.34       0.00      -0.91      -0.76

> <Gold.Goldscore.Fitness>
37.2305

> <Gold.Goldscore.Internal.Vdw>
-1.1165

> <Gold.Goldscore.Internal.Torsion>
-0.5472

> <Gold.Goldscore.External.Vdw>
27.3420

> <Gold.Goldscore.Internal.HBond>
0.0000

> <Gold.Goldscore.External.HBond>
0.5403

> <Gold.Goldscore.Internal.Correction>
-0.7585

> <Gold.Goldscore.Hbonds>
donor molecule, donor type, donor heavy atom, donor atom, acceptor molecule, acceptor atom, score
      P1  H   762   773       L1    17  0.02
      L1  H    10    23       P1  2642  0.20

> <Gold.Goldscore.Internal.Vdw.Weighted>
-1.1165

> <Gold.Goldscore.Internal.Torsion.Weighted>
-0.5472

> <Gold.Goldscore.External.Vdw.Weighted>
37.5953

> <Gold.Goldscore.Internal.HBond.Weighted>
0.0000

> <Gold.Goldscore.External.HBond.Weighted>
0.5403

> <Gold.Goldscore.Internal.Correction.Weighted>
-0.7585

> <Gold.Rescore>
     Score     S(PLP)   S(hbond)     S(cho)   S(metal)  DE(clash)   DE(tors)     intcor
     35.83     -36.42       0.57       0.00       0.00       0.51       0.89       ----

> <Gold.PLP.Fitness>
35.8328

> <Gold.PLP.PLP>
-36.4219

> <Gold.PLP.part.hbond>
-0.4418

> <Gold.PLP.part.metal>
0.0000

> <Gold.PLP.part.buried>
-0.2327

> <Gold.PLP.part.nonpolar>
-36.9891

> <Gold.PLP.part.repulsive>
0.3867

> <Gold.PLP.ligand.clash>
0.5062

> <Gold.PLP.ligand.torsion>
0.8945

> <Gold.PLP.Chemscore.Hbond>
0.5688

> <Gold.PLP.Chemscore.CHOScore>
0.0000

> <Gold.PLP.Chemscore.Metal>
0.0000

> <Gold.Chemscore.Hbonds>
donor molecule, donor type, donor heavy atom, donor atom, acceptor molecule, acceptor atom, score
      L1  H    10    23       P1  2642  0.29
      P1  H   762   773       L1    17  0.02

> <Gold.PLP.Chemscore.Internal.Correction>
   9.000000E+99

