#       Name:                CT1002167954
#       Creating user name   hitesit
#       Creation time:       Sun Apr 16 02:21:23 2023


#       File generated by GOLD software.
#

@<TRIPOS>MOLECULE
CT1002167954|ligand_prepared|mol2|1|dock3
    29    30     1
SMALL
NO_CHARGES


@<TRIPOS>ATOM
      1 C1          -4.5888   1.0297  19.5574 C.3            1 RES1               0.0000
      2 C2          -3.4691   1.7680  18.7959 C.ar           1 RES1               0.0000
      3 C3          -4.6045  -0.3977  19.0182 C.2            1 RES1               0.0000
      4 C4          -4.2372   1.1318  21.0375 C.2            1 RES1               0.0000
      5 C5          -5.9928   1.6461  19.3563 C.3            1 RES1               0.0000
      6 C6          -3.6349   2.1221  17.4602 C.ar           1 RES1               0.0000
      7 C7          -2.2681   2.1035  19.4151 C.ar           1 RES1               0.0000
      8 N8          -4.1025  -1.3811  19.8188 N.am           1 RES1               0.0000
      9 O9          -5.0146  -0.6509  17.8922 O.2            1 RES1               0.0000
     10 N10         -3.9272  -0.0241  21.7050 N.am           1 RES1               0.0000
     11 O11         -4.2094   2.2047  21.6276 O.2            1 RES1               0.0000
     12 C12         -7.1104   0.8544  20.0168 C.3            1 RES1               0.0000
     13 C13         -2.6375   2.7900  16.7695 C.ar           1 RES1               0.0000
     14 C14         -1.2718   2.7714  18.7224 C.ar           1 RES1               0.0000
     15 C15         -3.8141  -1.2721  21.1555 C.2            1 RES1               0.0000
     16 C16         -1.4555   3.1155  17.4001 C.ar           1 RES1               0.0000
     17 O17         -3.4776  -2.2546  21.8101 O.2            1 RES1               0.0000
     18 H18         -5.9929   2.6646  19.7639 H              1 RES1               0.0000
     19 H19         -6.1972   1.7154  18.2807 H              1 RES1               0.0000
     20 H20         -4.5573   1.8721  16.9466 H              1 RES1               0.0000
     21 H21         -2.1011   1.8419  20.4545 H              1 RES1               0.0000
     22 H22         -3.9252  -2.2807  19.3834 H              1 RES1               0.0000
     23 H23         -3.7661   0.0529  22.7042 H              1 RES1               0.0000
     24 H24         -8.0737   1.3301  19.8451 H              1 RES1               0.0000
     25 H25         -7.1555  -0.1564  19.6168 H              1 RES1               0.0000
     26 H26         -6.9524   0.7871  21.0912 H              1 RES1               0.0000
     27 H27         -2.7865   3.0574  15.7286 H              1 RES1               0.0000
     28 H28         -0.3429   3.0250  19.2226 H              1 RES1               0.0000
     29 H29         -0.6744   3.6391  16.8589 H              1 RES1               0.0000
@<TRIPOS>BOND
    1    1    2 1     
    2    1    3 1     
    3    1    4 1     
    4    1    5 1     
    5    2    6 ar    
    6    2    7 ar    
    7    3    8 1     
    8    3    9 2     
    9    4   10 1     
   10    4   11 2     
   11    5   12 1     
   12    5   18 1     
   13    5   19 1     
   14    6   13 ar    
   15    6   20 1     
   16    7   14 ar    
   17    7   21 1     
   18    8   15 1     
   19    8   22 1     
   20   10   15 1     
   21   10   23 1     
   22   12   24 1     
   23   12   25 1     
   24   12   26 1     
   25   13   16 ar    
   26   13   27 1     
   27   14   16 ar    
   28   14   28 1     
   29   15   17 2     
   30   16   29 1     
@<TRIPOS>SUBSTRUCTURE
      1 RES1           1
@<TRIPOS>SET
DONOR_HYDROGENS      STATIC     ATOMS    <user>   **** ""
2 22 23
ATOM$RED        STATIC     ATOMS    COLORGROUP SYSTEM
2 22 23
@<TRIPOS>COMMENT
> <Gold.Version>
2022.3.0

> <Gold.Id.Protein>
unknown|4a9y_clean|pdb

> <Gold.Protein.RotatedTorsions>
[ 1685 1678 1676 1673 ] final    5.53 input   59.97 | X-H torsion
[ 2433 2428 2427 2424 ] final   39.52 input   60.04 | X-H torsion

> <Gold.Protein.ActiveResidues>
 TRP18   PRO29   VAL30   GLY31   SER32   GLY33   TYR35   GLY36   SER37   VAL38  
 CYS39   ALA40   ARG49   VAL50   ALA51   VAL52   LYS53   LYS54   LEU55   ARG67  
 ARG70   GLU71   LEU72   LEU74   LEU75   MET78   HIS80   ASN82   VAL83   ILE84  
 GLY85   LEU86   LEU87   ASP88   TYR103  LEU104  VAL105  THR106  HIS107  LEU108 
 MET109  GLY110  ALA111  ASP112  ASN114  ASN115  GLY137  LEU138  TYR140  ILE141 
 HIS142  ILE146  ILE147  HIS148  ARG149  ASP150  LEU151  SER154  ASN155  LEU156 
 ALA157  LYS165  ILE166  LEU167  ASP168  PHE169  GLY170  ASP205 

> <Gold.Protein.RotatedAtoms>
   -6.0122   -2.9058   18.4594 H   0  0  0  0  0  0  0  0  0  0  0  0  # atno 1685 bound_to 1678
    5.5380    5.0361   24.2864 H   0  0  0  0  0  0  0  0  0  0  0  0  # atno 2433 bound_to 2428
   -5.4055   -1.5548   17.7852 LP  0  0  0  0  0  0  0  0  0  0  0  0  # atno 5425 bound_to 1678
   -4.4107   -2.7817   18.1998 LP  0  0  0  0  0  0  0  0  0  0  0  0  # atno 5426 bound_to 1678
    6.8634    5.6386   25.0128 LP  0  0  0  0  0  0  0  0  0  0  0  0  # atno 5504 bound_to 2428
    5.3772    6.1142   25.4944 LP  0  0  0  0  0  0  0  0  0  0  0  0  # atno 5505 bound_to 2428

> <Gold.Score>
     Fitness  S(hb_ext) S(vdw_ext)  S(hb_int)    S(int)      intcor
     33.88       1.49      25.33       0.00      -2.44      -0.76

> <Gold.Goldscore.Fitness>
33.8847

> <Gold.Goldscore.Internal.Vdw>
-2.7921

> <Gold.Goldscore.Internal.Torsion>
-0.4022

> <Gold.Goldscore.External.Vdw>
25.3348

> <Gold.Goldscore.Internal.HBond>
0.0000

> <Gold.Goldscore.External.HBond>
1.4851

> <Gold.Goldscore.Internal.Correction>
-0.7585

> <Gold.Goldscore.Hbonds>
donor molecule, donor type, donor heavy atom, donor atom, acceptor molecule, acceptor atom, score
      P1  H  1722  1730       L1    17  0.74

> <Gold.Goldscore.Internal.Vdw.Weighted>
-2.7921

> <Gold.Goldscore.Internal.Torsion.Weighted>
-0.4022

> <Gold.Goldscore.External.Vdw.Weighted>
34.8354

> <Gold.Goldscore.Internal.HBond.Weighted>
0.0000

> <Gold.Goldscore.External.HBond.Weighted>
1.4851

> <Gold.Goldscore.Internal.Correction.Weighted>
-0.7585

> <Gold.Rescore>
     Score     S(PLP)   S(hbond)     S(cho)   S(metal)  DE(clash)   DE(tors)     intcor
     36.55     -38.75       0.00       0.00       0.00       0.00       1.10       ----

> <Gold.PLP.Fitness>
36.5496

> <Gold.PLP.PLP>
-38.7511

> <Gold.PLP.part.hbond>
0.4864

> <Gold.PLP.part.metal>
0.0000

> <Gold.PLP.part.buried>
-3.3018

> <Gold.PLP.part.nonpolar>
-37.5152

> <Gold.PLP.part.repulsive>
0.0916

> <Gold.PLP.ligand.clash>
0.0000

> <Gold.PLP.ligand.torsion>
1.1008

> <Gold.PLP.Chemscore.Hbond>
0.0000

> <Gold.PLP.Chemscore.CHOScore>
0.0000

> <Gold.PLP.Chemscore.Metal>
0.0000

> <Gold.Chemscore.Hbonds>
donor molecule, donor type, donor heavy atom, donor atom, acceptor molecule, acceptor atom, score
      L1  H     8    22       P1  1678  0.10
      P1  H  1722  1730       L1    17  0.86

> <Gold.PLP.Chemscore.Internal.Correction>
   9.000000E+99

