#       Name:                CT1002167954
#       Creating user name   hitesit
#       Creation time:       Sun Apr 16 02:21:27 2023


#       File generated by GOLD software.
#

@<TRIPOS>MOLECULE
CT1002167954|ligand_prepared|mol2|1|dock6
    29    30     1
SMALL
NO_CHARGES


@<TRIPOS>ATOM
      1 C1          -3.7894   1.9106  19.5659 C.3            1 RES1               0.0000
      2 C2          -5.1172   1.4402  18.9379 C.ar           1 RES1               0.0000
      3 C3          -4.0425   3.3178  20.0990 C.2            1 RES1               0.0000
      4 C4          -3.4423   0.8900  20.6442 C.2            1 RES1               0.0000
      5 C5          -2.6112   1.9686  18.5660 C.3            1 RES1               0.0000
      6 C6          -5.5588   1.9745  17.7311 C.ar           1 RES1               0.0000
      7 C7          -5.9086   0.4724  19.5509 C.ar           1 RES1               0.0000
      8 N8          -4.1530   3.4714  21.4495 N.am           1 RES1               0.0000
      9 O9          -4.1823   4.2717  19.3435 O.2            1 RES1               0.0000
     10 N10         -3.4436   1.3088  21.9489 N.am           1 RES1               0.0000
     11 O11         -3.1840  -0.2771  20.3770 O.2            1 RES1               0.0000
     12 C12         -1.3630   2.6314  19.1270 C.3            1 RES1               0.0000
     13 C13         -6.7470   1.5545  17.1565 C.ar           1 RES1               0.0000
     14 C14         -7.0966   0.0540  18.9747 C.ar           1 RES1               0.0000
     15 C15         -3.8132   2.5455  22.4029 C.2            1 RES1               0.0000
     16 C16         -7.5164   0.5939  17.7776 C.ar           1 RES1               0.0000
     17 O17         -3.8407   2.8303  23.5967 O.2            1 RES1               0.0000
     18 H18         -2.3597   0.9465  18.2569 H              1 RES1               0.0000
     19 H19         -2.9325   2.5194  17.6733 H              1 RES1               0.0000
     20 H20         -4.9679   2.7333  17.2290 H              1 RES1               0.0000
     21 H21         -5.5986   0.0346  20.4937 H              1 RES1               0.0000
     22 H22         -4.5227   4.3566  21.7814 H              1 RES1               0.0000
     23 H23         -3.1408   0.6363  22.6464 H              1 RES1               0.0000
     24 H24         -0.5673   2.6459  18.3850 H              1 RES1               0.0000
     25 H25         -1.5705   3.6581  19.4213 H              1 RES1               0.0000
     26 H26         -1.0011   2.0947  20.0015 H              1 RES1               0.0000
     27 H27         -7.0737   1.9835  16.2150 H              1 RES1               0.0000
     28 H28         -7.6993  -0.7018  19.4673 H              1 RES1               0.0000
     29 H29         -8.4470   0.2648  17.3271 H              1 RES1               0.0000
@<TRIPOS>BOND
    1    1    2 1     
    2    1    3 1     
    3    1    4 1     
    4    1    5 1     
    5    2    6 ar    
    6    2    7 ar    
    7    3    8 1     
    8    3    9 2     
    9    4   10 1     
   10    4   11 2     
   11    5   12 1     
   12    5   18 1     
   13    5   19 1     
   14    6   13 ar    
   15    6   20 1     
   16    7   14 ar    
   17    7   21 1     
   18    8   15 1     
   19    8   22 1     
   20   10   15 1     
   21   10   23 1     
   22   12   24 1     
   23   12   25 1     
   24   12   26 1     
   25   13   16 ar    
   26   13   27 1     
   27   14   16 ar    
   28   14   28 1     
   29   15   17 2     
   30   16   29 1     
@<TRIPOS>SUBSTRUCTURE
      1 RES1           1
@<TRIPOS>SET
DONOR_HYDROGENS      STATIC     ATOMS    <user>   **** ""
2 22 23
ATOM$RED        STATIC     ATOMS    COLORGROUP SYSTEM
2 22 23
@<TRIPOS>COMMENT
> <Gold.Version>
2022.3.0

> <Gold.Id.Protein>
unknown|4a9y_clean|pdb

> <Gold.Protein.RotatedTorsions>
[ 1685 1678 1676 1673 ] final -157.36 input   59.97 | X-H torsion
[ 2433 2428 2427 2424 ] final  -82.77 input   60.04 | X-H torsion

> <Gold.Protein.ActiveResidues>
 TRP18   PRO29   VAL30   GLY31   SER32   GLY33   TYR35   GLY36   SER37   VAL38  
 CYS39   ALA40   ARG49   VAL50   ALA51   VAL52   LYS53   LYS54   LEU55   ARG67  
 ARG70   GLU71   LEU72   LEU74   LEU75   MET78   HIS80   ASN82   VAL83   ILE84  
 GLY85   LEU86   LEU87   ASP88   TYR103  LEU104  VAL105  THR106  HIS107  LEU108 
 MET109  GLY110  ALA111  ASP112  ASN114  ASN115  GLY137  LEU138  TYR140  ILE141 
 HIS142  ILE146  ILE147  HIS148  ARG149  ASP150  LEU151  SER154  ASN155  LEU156 
 ALA157  LYS165  ILE166  LEU167  ASP168  PHE169  GLY170  ASP205 

> <Gold.Protein.RotatedAtoms>
   -4.7441   -1.7411   17.7786 H   0  0  0  0  0  0  0  0  0  0  0  0  # atno 1685 bound_to 1678
    6.8521    5.6612   25.0415 H   0  0  0  0  0  0  0  0  0  0  0  0  # atno 2433 bound_to 2428
   -4.8828   -3.2153   18.4532 LP  0  0  0  0  0  0  0  0  0  0  0  0  # atno 5425 bound_to 1678
   -6.2103   -2.2940   18.2172 LP  0  0  0  0  0  0  0  0  0  0  0  0  # atno 5426 bound_to 1678
    5.3470    6.0998   25.4770 LP  0  0  0  0  0  0  0  0  0  0  0  0  # atno 5504 bound_to 2428
    5.5698    5.0232   24.2695 LP  0  0  0  0  0  0  0  0  0  0  0  0  # atno 5505 bound_to 2428

> <Gold.Score>
     Fitness  S(hb_ext) S(vdw_ext)  S(hb_int)    S(int)      intcor
     36.30       1.71      27.48       0.00      -3.20      -0.76

> <Gold.Goldscore.Fitness>
36.2983

> <Gold.Goldscore.Internal.Vdw>
-3.4670

> <Gold.Goldscore.Internal.Torsion>
-0.4961

> <Gold.Goldscore.External.Vdw>
27.4835

> <Gold.Goldscore.Internal.HBond>
0.0000

> <Gold.Goldscore.External.HBond>
1.7130

> <Gold.Goldscore.Internal.Correction>
-0.7585

> <Gold.Goldscore.Hbonds>
donor molecule, donor type, donor heavy atom, donor atom, acceptor molecule, acceptor atom, score
      P1  H   762   773       L1     9  0.29

> <Gold.Goldscore.Internal.Vdw.Weighted>
-3.4670

> <Gold.Goldscore.Internal.Torsion.Weighted>
-0.4961

> <Gold.Goldscore.External.Vdw.Weighted>
37.7898

> <Gold.Goldscore.Internal.HBond.Weighted>
0.0000

> <Gold.Goldscore.External.HBond.Weighted>
1.7130

> <Gold.Goldscore.Internal.Correction.Weighted>
-0.7585

> <Gold.Rescore>
     Score     S(PLP)   S(hbond)     S(cho)   S(metal)  DE(clash)   DE(tors)     intcor
     40.05     -38.74       1.00       0.00       0.00       0.01       0.84       ----

> <Gold.PLP.Fitness>
40.0511

> <Gold.PLP.PLP>
-38.7410

> <Gold.PLP.part.hbond>
-1.0000

> <Gold.PLP.part.metal>
0.0000

> <Gold.PLP.part.buried>
-1.4312

> <Gold.PLP.part.nonpolar>
-37.2288

> <Gold.PLP.part.repulsive>
0.1300

> <Gold.PLP.ligand.clash>
0.0134

> <Gold.PLP.ligand.torsion>
0.8383

> <Gold.PLP.Chemscore.Hbond>
1.0000

> <Gold.PLP.Chemscore.CHOScore>
0.0000

> <Gold.PLP.Chemscore.Metal>
0.0000

> <Gold.Chemscore.Hbonds>
donor molecule, donor type, donor heavy atom, donor atom, acceptor molecule, acceptor atom, score
      P1  H   762   773       L1     9  0.98

> <Gold.PLP.Chemscore.Internal.Correction>
   9.000000E+99

