#       Name:                CT1002167954
#       Creating user name   hitesit
#       Creation time:       Sun Apr 16 02:21:24 2023


#       File generated by GOLD software.
#

@<TRIPOS>MOLECULE
CT1002167954|ligand_prepared|mol2|1|dock4
    29    30     1
SMALL
NO_CHARGES


@<TRIPOS>ATOM
      1 C1          -4.6969   1.0928  19.5643 C.3            1 RES1               0.0000
      2 C2          -3.5729   1.8185  18.7970 C.ar           1 RES1               0.0000
      3 C3          -4.7248  -0.3371  19.0324 C.2            1 RES1               0.0000
      4 C4          -4.3416   1.1996  21.0432 C.2            1 RES1               0.0000
      5 C5          -6.0964   1.7192  19.3627 C.3            1 RES1               0.0000
      6 C6          -2.3302   2.0251  19.3884 C.ar           1 RES1               0.0000
      7 C7          -3.7626   2.2839  17.4985 C.ar           1 RES1               0.0000
      8 N8          -4.2290  -1.3203  19.8370 N.am           1 RES1               0.0000
      9 O9          -5.1389  -0.5927  17.9084 O.2            1 RES1               0.0000
     10 N10         -4.0395   0.0447  21.7160 N.am           1 RES1               0.0000
     11 O11         -4.3044   2.2753  21.6278 O.2            1 RES1               0.0000
     12 C12         -7.2257   0.9080  19.9781 C.3            1 RES1               0.0000
     13 C13         -1.3129   2.6709  18.7054 C.ar           1 RES1               0.0000
     14 C14         -2.7440   2.9297  16.8174 C.ar           1 RES1               0.0000
     15 C15         -3.9372  -1.2069  21.1725 C.2            1 RES1               0.0000
     16 C16         -1.5189   3.1232  17.4195 C.ar           1 RES1               0.0000
     17 O17         -3.6071  -2.1887  21.8315 O.2            1 RES1               0.0000
     18 H18         -6.1009   2.7231  19.8051 H              1 RES1               0.0000
     19 H19         -6.2838   1.8260  18.2871 H              1 RES1               0.0000
     20 H20         -2.1504   1.6783  20.4005 H              1 RES1               0.0000
     21 H21         -4.7185   2.1438  17.0053 H              1 RES1               0.0000
     22 H22         -4.0595  -2.2234  19.4058 H              1 RES1               0.0000
     23 H23         -3.8759   0.1254  22.7145 H              1 RES1               0.0000
     24 H24         -8.1852   1.3917  19.8079 H              1 RES1               0.0000
     25 H25         -7.2665  -0.0884  19.5430 H              1 RES1               0.0000
     26 H26         -7.0847   0.8034  21.0519 H              1 RES1               0.0000
     27 H27         -0.3511   2.8219  19.1842 H              1 RES1               0.0000
     28 H28         -2.9107   3.2845  15.8057 H              1 RES1               0.0000
     29 H29         -0.7217   3.6287  16.8845 H              1 RES1               0.0000
@<TRIPOS>BOND
    1    1    2 1     
    2    1    3 1     
    3    1    4 1     
    4    1    5 1     
    5    2    6 ar    
    6    2    7 ar    
    7    3    8 1     
    8    3    9 2     
    9    4   10 1     
   10    4   11 2     
   11    5   12 1     
   12    5   18 1     
   13    5   19 1     
   14    6   13 ar    
   15    6   20 1     
   16    7   14 ar    
   17    7   21 1     
   18    8   15 1     
   19    8   22 1     
   20   10   15 1     
   21   10   23 1     
   22   12   24 1     
   23   12   25 1     
   24   12   26 1     
   25   13   16 ar    
   26   13   27 1     
   27   14   16 ar    
   28   14   28 1     
   29   15   17 2     
   30   16   29 1     
@<TRIPOS>SUBSTRUCTURE
      1 RES1           1
@<TRIPOS>SET
DONOR_HYDROGENS      STATIC     ATOMS    <user>   **** ""
2 22 23
ATOM$RED        STATIC     ATOMS    COLORGROUP SYSTEM
2 22 23
@<TRIPOS>COMMENT
> <Gold.Version>
2022.3.0

> <Gold.Id.Protein>
unknown|4a9y_clean|pdb

> <Gold.Protein.RotatedTorsions>
[ 1685 1678 1676 1673 ] final   -1.28 input   59.97 | X-H torsion
[ 2433 2428 2427 2424 ] final   48.30 input   60.04 | X-H torsion

> <Gold.Protein.ActiveResidues>
 TRP18   PRO29   VAL30   GLY31   SER32   GLY33   TYR35   GLY36   SER37   VAL38  
 CYS39   ALA40   ARG49   VAL50   ALA51   VAL52   LYS53   LYS54   LEU55   ARG67  
 ARG70   GLU71   LEU72   LEU74   LEU75   MET78   HIS80   ASN82   VAL83   ILE84  
 GLY85   LEU86   LEU87   ASP88   TYR103  LEU104  VAL105  THR106  HIS107  LEU108 
 MET109  GLY110  ALA111  ASP112  ASN114  ASN115  GLY137  LEU138  TYR140  ILE141 
 HIS142  ILE146  ILE147  HIS148  ARG149  ASP150  LEU151  SER154  ASN155  LEU156 
 ALA157  LYS165  ILE166  LEU167  ASP168  PHE169  GLY170  ASP205 

> <Gold.Protein.RotatedAtoms>
   -6.0746   -2.8189   18.4290 H   0  0  0  0  0  0  0  0  0  0  0  0  # atno 1685 bound_to 1678
    5.4125    5.0842   24.3361 H   0  0  0  0  0  0  0  0  0  0  0  0  # atno 2433 bound_to 2428
   -5.2946   -1.5522   17.7697 LP  0  0  0  0  0  0  0  0  0  0  0  0  # atno 5425 bound_to 1678
   -4.4587   -2.8717   18.2459 LP  0  0  0  0  0  0  0  0  0  0  0  0  # atno 5426 bound_to 1678
    6.8663    5.5428   24.9049 LP  0  0  0  0  0  0  0  0  0  0  0  0  # atno 5504 bound_to 2428
    5.5007    6.1614   25.5523 LP  0  0  0  0  0  0  0  0  0  0  0  0  # atno 5505 bound_to 2428

> <Gold.Score>
     Fitness  S(hb_ext) S(vdw_ext)  S(hb_int)    S(int)      intcor
     33.85       1.63      25.92       0.00      -3.42      -0.76

> <Gold.Goldscore.Fitness>
33.8495

> <Gold.Goldscore.Internal.Vdw>
-3.7233

> <Gold.Goldscore.Internal.Torsion>
-0.4513

> <Gold.Goldscore.External.Vdw>
25.9195

> <Gold.Goldscore.Internal.HBond>
0.0000

> <Gold.Goldscore.External.HBond>
1.6263

> <Gold.Goldscore.Internal.Correction>
-0.7585

> <Gold.Goldscore.Hbonds>
donor molecule, donor type, donor heavy atom, donor atom, acceptor molecule, acceptor atom, score
      P1  H  1722  1730       L1    17  0.81

> <Gold.Goldscore.Internal.Vdw.Weighted>
-3.7233

> <Gold.Goldscore.Internal.Torsion.Weighted>
-0.4513

> <Gold.Goldscore.External.Vdw.Weighted>
35.6393

> <Gold.Goldscore.Internal.HBond.Weighted>
0.0000

> <Gold.Goldscore.External.HBond.Weighted>
1.6263

> <Gold.Goldscore.Internal.Correction.Weighted>
-0.7585

> <Gold.Rescore>
     Score     S(PLP)   S(hbond)     S(cho)   S(metal)  DE(clash)   DE(tors)     intcor
     35.72     -38.13       0.00       0.00       0.00       0.00       1.21       ----

> <Gold.PLP.Fitness>
35.7209

> <Gold.PLP.PLP>
-38.1312

> <Gold.PLP.part.hbond>
0.9112

> <Gold.PLP.part.metal>
0.0000

> <Gold.PLP.part.buried>
-2.6590

> <Gold.PLP.part.nonpolar>
-37.2999

> <Gold.PLP.part.repulsive>
0.1039

> <Gold.PLP.ligand.clash>
0.0000

> <Gold.PLP.ligand.torsion>
1.2051

> <Gold.PLP.Chemscore.Hbond>
0.0000

> <Gold.PLP.Chemscore.CHOScore>
0.0000

> <Gold.PLP.Chemscore.Metal>
0.0000

> <Gold.Chemscore.Hbonds>
donor molecule, donor type, donor heavy atom, donor atom, acceptor molecule, acceptor atom, score
      L1  H     8    22       P1  1678  0.16
      P1  H  1722  1730       L1    17  0.71

> <Gold.PLP.Chemscore.Internal.Correction>
   9.000000E+99

