#       Name:                CT1002167954
#       Creating user name   hitesit
#       Creation time:       Sun Apr 16 02:21:28 2023


#       File generated by GOLD software.
#

@<TRIPOS>MOLECULE
CT1002167954|ligand_prepared|mol2|1|dock7
    29    30     1
SMALL
NO_CHARGES


@<TRIPOS>ATOM
      1 C1          -4.5442   1.3172  19.4570 C.3            1 RES1               0.0000
      2 C2          -4.2950   0.3661  20.6454 C.ar           1 RES1               0.0000
      3 C3          -5.2237   2.5554  20.0343 C.2            1 RES1               0.0000
      4 C4          -3.1791   1.5896  18.8351 C.2            1 RES1               0.0000
      5 C5          -5.4582   0.7214  18.3610 C.3            1 RES1               0.0000
      6 C6          -3.8766  -0.9434  20.4293 C.ar           1 RES1               0.0000
      7 C7          -4.4765   0.7840  21.9611 C.ar           1 RES1               0.0000
      8 N8          -4.4799   3.6937  20.1382 N.am           1 RES1               0.0000
      9 O9          -6.3828   2.5227  20.4291 O.2            1 RES1               0.0000
     10 N10         -2.6872   2.8670  18.9002 N.am           1 RES1               0.0000
     11 O11         -2.5175   0.7062  18.3040 O.2            1 RES1               0.0000
     12 C12         -5.7248   1.6697  17.2027 C.3            1 RES1               0.0000
     13 C13         -3.6449  -1.8032  21.4902 C.ar           1 RES1               0.0000
     14 C14         -4.2445  -0.0775  23.0205 C.ar           1 RES1               0.0000
     15 C15         -3.2621   3.9247  19.5506 C.2            1 RES1               0.0000
     16 C16         -3.8283  -1.3708  22.7863 C.ar           1 RES1               0.0000
     17 O17         -2.7321   5.0304  19.6114 O.2            1 RES1               0.0000
     18 H18         -4.9918  -0.1913  17.9699 H              1 RES1               0.0000
     19 H19         -6.4165   0.4401  18.8148 H              1 RES1               0.0000
     20 H20         -3.7293  -1.3022  19.4161 H              1 RES1               0.0000
     21 H21         -4.8045   1.7968  22.1691 H              1 RES1               0.0000
     22 H22         -4.8647   4.4425  20.7053 H              1 RES1               0.0000
     23 H23         -1.8115   3.0460  18.4192 H              1 RES1               0.0000
     24 H24         -6.3709   1.2024  16.4624 H              1 RES1               0.0000
     25 H25         -6.2114   2.5780  17.5520 H              1 RES1               0.0000
     26 H26         -4.7951   1.9504  16.7121 H              1 RES1               0.0000
     27 H27         -3.3188  -2.8205  21.3005 H              1 RES1               0.0000
     28 H28         -4.3906   0.2669  24.0390 H              1 RES1               0.0000
     29 H29         -3.6464  -2.0445  23.6172 H              1 RES1               0.0000
@<TRIPOS>BOND
    1    1    2 1     
    2    1    3 1     
    3    1    4 1     
    4    1    5 1     
    5    2    6 ar    
    6    2    7 ar    
    7    3    8 1     
    8    3    9 2     
    9    4   10 1     
   10    4   11 2     
   11    5   12 1     
   12    5   18 1     
   13    5   19 1     
   14    6   13 ar    
   15    6   20 1     
   16    7   14 ar    
   17    7   21 1     
   18    8   15 1     
   19    8   22 1     
   20   10   15 1     
   21   10   23 1     
   22   12   24 1     
   23   12   25 1     
   24   12   26 1     
   25   13   16 ar    
   26   13   27 1     
   27   14   16 ar    
   28   14   28 1     
   29   15   17 2     
   30   16   29 1     
@<TRIPOS>SUBSTRUCTURE
      1 RES1           1
@<TRIPOS>SET
DONOR_HYDROGENS      STATIC     ATOMS    <user>   **** ""
2 22 23
ATOM$RED        STATIC     ATOMS    COLORGROUP SYSTEM
2 22 23
@<TRIPOS>COMMENT
> <Gold.Version>
2022.3.0

> <Gold.Id.Protein>
unknown|4a9y_clean|pdb

> <Gold.Protein.RotatedTorsions>
[ 1685 1678 1676 1673 ] final   60.68 input   59.97 | X-H torsion
[ 2433 2428 2427 2424 ] final   36.37 input   60.04 | X-H torsion

> <Gold.Protein.ActiveResidues>
 TRP18   PRO29   VAL30   GLY31   SER32   GLY33   TYR35   GLY36   SER37   VAL38  
 CYS39   ALA40   ARG49   VAL50   ALA51   VAL52   LYS53   LYS54   LEU55   ARG67  
 ARG70   GLU71   LEU72   LEU74   LEU75   MET78   HIS80   ASN82   VAL83   ILE84  
 GLY85   LEU86   LEU87   ASP88   TYR103  LEU104  VAL105  THR106  HIS107  LEU108 
 MET109  GLY110  ALA111  ASP112  ASN114  ASN115  GLY137  LEU138  TYR140  ILE141 
 HIS142  ILE146  ILE147  HIS148  ARG149  ASP150  LEU151  SER154  ASN155  LEU156 
 ALA157  LYS165  ILE166  LEU167  ASP168  PHE169  GLY170  ASP205 

> <Gold.Protein.RotatedAtoms>
   -5.2296   -3.2731   18.5205 H   0  0  0  0  0  0  0  0  0  0  0  0  # atno 1685 bound_to 1678
    5.5854    5.0219   24.2722 H   0  0  0  0  0  0  0  0  0  0  0  0  # atno 2433 bound_to 2428
   -6.1118   -1.9833   18.0668 LP  0  0  0  0  0  0  0  0  0  0  0  0  # atno 5425 bound_to 1678
   -4.4924   -1.9833   17.8566 LP  0  0  0  0  0  0  0  0  0  0  0  0  # atno 5426 bound_to 1678
    6.8569    5.6728   25.0513 LP  0  0  0  0  0  0  0  0  0  0  0  0  # atno 5504 bound_to 2428
    5.3359    6.0942   25.4702 LP  0  0  0  0  0  0  0  0  0  0  0  0  # atno 5505 bound_to 2428

> <Gold.Score>
     Fitness  S(hb_ext) S(vdw_ext)  S(hb_int)    S(int)      intcor
     35.84       0.13      27.20       0.00      -1.69      -0.76

> <Gold.Goldscore.Fitness>
35.8371

> <Gold.Goldscore.Internal.Vdw>
-2.0810

> <Gold.Goldscore.Internal.Torsion>
-0.3702

> <Gold.Goldscore.External.Vdw>
27.1969

> <Gold.Goldscore.Internal.HBond>
0.0000

> <Gold.Goldscore.External.HBond>
0.1341

> <Gold.Goldscore.Internal.Correction>
-0.7585

> <Gold.Goldscore.Hbonds>
donor molecule, donor type, donor heavy atom, donor atom, acceptor molecule, acceptor atom, score
      P1  H   762   773       L1    17  0.02

> <Gold.Goldscore.Internal.Vdw.Weighted>
-2.0810

> <Gold.Goldscore.Internal.Torsion.Weighted>
-0.3702

> <Gold.Goldscore.External.Vdw.Weighted>
37.3957

> <Gold.Goldscore.Internal.HBond.Weighted>
0.0000

> <Gold.Goldscore.External.HBond.Weighted>
0.1341

> <Gold.Goldscore.Internal.Correction.Weighted>
-0.7585

> <Gold.Rescore>
     Score     S(PLP)   S(hbond)     S(cho)   S(metal)  DE(clash)   DE(tors)     intcor
     32.59     -32.81       0.40       0.00       0.00       1.25       0.09       ----

> <Gold.PLP.Fitness>
32.5874

> <Gold.PLP.PLP>
-32.8138

> <Gold.PLP.part.hbond>
-0.8836

> <Gold.PLP.part.metal>
0.0000

> <Gold.PLP.part.buried>
5.6342

> <Gold.PLP.part.nonpolar>
-38.0213

> <Gold.PLP.part.repulsive>
0.3428

> <Gold.PLP.ligand.clash>
1.2472

> <Gold.PLP.ligand.torsion>
0.0929

> <Gold.PLP.Chemscore.Hbond>
0.4022

> <Gold.PLP.Chemscore.CHOScore>
0.0000

> <Gold.PLP.Chemscore.Metal>
0.0000

> <Gold.Chemscore.Hbonds>
donor molecule, donor type, donor heavy atom, donor atom, acceptor molecule, acceptor atom, score
      P1  H   762   773       L1    17  0.09

> <Gold.PLP.Chemscore.Internal.Correction>
   9.000000E+99

