#       Name:                CT1002167954
#       Creating user name   hitesit
#       Creation time:       Sun Apr 16 02:22:55 2023


#       File generated by GOLD software.
#

@<TRIPOS>MOLECULE
CT1002167954|ligand_prepared|mol2|1|dock4
    29    30     1
SMALL
NO_CHARGES


@<TRIPOS>ATOM
      1 C1         116.0344 243.6606 323.0020 C.3            1 RES1               0.0000
      2 C2         117.4482 243.4812 322.4123 C.ar           1 RES1               0.0000
      3 C3         115.1131 242.7555 322.1894 C.2            1 RES1               0.0000
      4 C4         116.1358 243.2831 324.4758 C.2            1 RES1               0.0000
      5 C5         115.5006 245.1095 322.9157 C.3            1 RES1               0.0000
      6 C6         118.4199 242.7663 323.1062 C.ar           1 RES1               0.0000
      7 C7         117.7941 244.0214 321.1765 C.ar           1 RES1               0.0000
      8 N8         114.6680 241.6109 322.7825 N.am           1 RES1               0.0000
      9 O9         114.8137 243.0221 321.0321 O.2            1 RES1               0.0000
     10 N10        115.4551 242.1730 324.9025 N.am           1 RES1               0.0000
     11 O11        116.8124 243.9273 325.2678 O.2            1 RES1               0.0000
     12 C12        114.0842 245.2736 323.4440 C.3            1 RES1               0.0000
     13 C13        119.6906 242.5952 322.5824 C.ar           1 RES1               0.0000
     14 C14        119.0655 243.8492 320.6546 C.ar           1 RES1               0.0000
     15 C15        114.7506 241.3023 324.1165 C.2            1 RES1               0.0000
     16 C16        120.0141 243.1360 321.3562 C.ar           1 RES1               0.0000
     17 O17        114.2108 240.2952 324.5654 O.2            1 RES1               0.0000
     18 H18        116.1686 245.7665 323.4862 H              1 RES1               0.0000
     19 H19        115.5263 245.4334 321.8679 H              1 RES1               0.0000
     20 H20        118.1844 242.3355 324.0736 H              1 RES1               0.0000
     21 H21        117.0643 244.5871 320.6074 H              1 RES1               0.0000
     22 H22        114.2335 240.9207 322.1783 H              1 RES1               0.0000
     23 H23        115.4754 241.9777 325.8984 H              1 RES1               0.0000
     24 H24        113.7588 246.3084 323.3601 H              1 RES1               0.0000
     25 H25        113.3888 244.6531 322.8826 H              1 RES1               0.0000
     26 H26        114.0273 244.9842 324.4913 H              1 RES1               0.0000
     27 H27        120.4340 242.0342 323.1391 H              1 RES1               0.0000
     28 H28        119.3159 244.2772 319.6896 H              1 RES1               0.0000
     29 H29        121.0095 243.0014 320.9459 H              1 RES1               0.0000
@<TRIPOS>BOND
    1    1    2 1     
    2    1    3 1     
    3    1    4 1     
    4    1    5 1     
    5    2    6 ar    
    6    2    7 ar    
    7    3    8 1     
    8    3    9 2     
    9    4   10 1     
   10    4   11 2     
   11    5   12 1     
   12    5   18 1     
   13    5   19 1     
   14    6   13 ar    
   15    6   20 1     
   16    7   14 ar    
   17    7   21 1     
   18    8   15 1     
   19    8   22 1     
   20   10   15 1     
   21   10   23 1     
   22   12   24 1     
   23   12   25 1     
   24   12   26 1     
   25   13   16 ar    
   26   13   27 1     
   27   14   16 ar    
   28   14   28 1     
   29   15   17 2     
   30   16   29 1     
@<TRIPOS>SUBSTRUCTURE
      1 RES1           1
@<TRIPOS>SET
DONOR_HYDROGENS      STATIC     ATOMS    <user>   **** ""
2 22 23
ATOM$RED        STATIC     ATOMS    COLORGROUP SYSTEM
2 22 23
@<TRIPOS>COMMENT
> <Gold.Version>
2022.3.0

> <Gold.Id.Protein>
unknown|6ng7_clean|pdb

> <Gold.Protein.RotatedTorsions>
[ 3576 3563 3564 3565 ] final   22.64 input  100.79 | X-H torsion
[ 3599 3592 3593 3594 ] final -166.67 input   89.00 | X-H torsion
[ 8433 8423 8424 8425 ] final   82.79 input   34.47 | X-H torsion
[ 8461 8445 8446 8447 ] final -173.14 input   99.97 | X-H torsion
[ 8999 8992 8993 8994 ] final   71.47 input   33.19 | X-H torsion
[ 9040 9016 9017 9018 ] final   39.77 input   39.09 | X-H torsion
[ 9083 9062 9063 9064 ] final   23.03 input   97.54 | X-H torsion
[ 9091 9073 9072 9070 ] final  -99.82 input   60.01 | X-H torsion
[ 9114 9100 9101 9102 ] final   71.86 input   92.58 | X-H torsion
[ 9186 9177 9178 9179 ] final  -99.92 input  115.65 | X-H torsion
[ 8983 8972 8973 8974 ] final   33.34 input   31.13 | X-H torsion
[ 9134 9130 9131 9132 ] final   35.46 input  123.92 | X-H torsion
[ 11050 11043 11044 11045 ] final -129.47 input   53.30 | X-H torsion
[ 4890 4885 4884 4881 ] final   31.98 input   60.01 | X-H torsion
[ 8987 8977 8976 8973 ] final   41.96 input   59.99 | X-H torsion
[ 8957 8937 8938 8939 ] final   97.68 input   44.56 | X-H torsion
[ 4906 4901 4902 4903 ] final  -98.53 input   21.77 | X-H torsion
[ 8487 8476 8477 8478 ] final -155.23 input   54.71 | X-H torsion
[ 5574 5565 5566 5567 ] final  115.67 input   53.40 | X-H torsion
[ 8328 8319 8318 8316 ] final  123.87 input   60.03 | X-H torsion
[ 5550 5545 5544 5541 ] final  115.26 input   59.98 | X-H torsion
[ 5606 5598 5599 5600 ] final  164.70 input  117.00 | X-H torsion
[ 5644 5636 5637 5638 ] final   31.46 input   61.23 | X-H torsion
[ 9214 9206 9207 9208 ] final  -27.73 input   98.56 | X-H torsion
[ 9346 9338 9339 9340 ] final   47.35 input  104.10 | X-H torsion
[ 9244 9240 9241 9242 ] final   22.05 input   92.42 | X-H torsion
[ 9304 9293 9294 9295 ] final   83.29 input   83.70 | X-H torsion
[ 9160 9153 9151 9148 ] final -107.40 input   60.00 | X-H torsion
[ 9378 9366 9367 9368 ] final -131.48 input   40.32 | X-H torsion
[ 9486 9481 9480 9477 ] final -130.45 input   60.00 | X-H torsion
[ 5688 5677 5678 5679 ] final -106.67 input   32.59 | X-H torsion
[ 8379 8360 8361 8362 ] final  -81.39 input   69.42 | X-H torsion
[ 8491 8481 8480 8477 ] final  126.11 input   60.01 | X-H torsion
[ 8514 8500 8501 8502 ] final  123.76 input   65.89 | X-H torsion
[ 9264 9257 9258 9259 ] final  -93.05 input   80.62 | X-H torsion
[ 9434 9426 9427 9428 ] final  125.69 input  124.27 | X-H torsion
[ 13470 8400 8399 8398 ] final   78.45 input   -0.00 | X-H torsion
[ 13474 8940 8939 8938 ] final   29.47 input   -0.00 | X-H torsion
[ 13477 8995 8994 8993 ] final  -26.04 input    0.00 | X-H torsion
[ 13480 9019 9018 9017 ] final -108.74 input   -0.00 | X-H torsion
[ 13483 9065 9064 9063 ] final   62.81 input   -0.00 | X-H torsion
[ 13488 9103 9102 9101 ] final -114.33 input    0.00 | X-H torsion
[ 13500 8975 8974 8973 ] final -101.15 input    0.00 | X-H torsion
[ 13502 8345 8344 8343 ] final -123.72 input   -0.00 | X-H torsion
[ 13506 11046 11045 11044 ] final  -87.70 input    0.00 | X-H torsion
[ 13510 8363 8362 8361 ] final -125.54 input    0.00 | X-H torsion
[ 13512 8426 8425 8424 ] final  112.07 input   -0.00 | X-H torsion
[ 13516 8448 8447 8446 ] final -133.98 input   -0.00 | X-H torsion
[ 13521 3502 3501 3500 ] final  -66.15 input    0.00 | X-H torsion
[ 13524 4904 4903 4902 ] final -128.67 input    0.00 | X-H torsion
[ 13529 5543 5542 5541 ] final  102.18 input   -0.00 | X-H torsion
[ 13534 9180 9179 9178 ] final  132.38 input    0.00 | X-H torsion
[ 13543 5639 5638 5637 ] final   14.10 input    0.00 | X-H torsion
[ 13548 9150 9149 9148 ] final  110.01 input    0.00 | X-H torsion
[ 13550 9209 9208 9207 ] final -161.51 input    0.00 | X-H torsion
[ 13554 9296 9295 9294 ] final  149.72 input    0.00 | X-H torsion
[ 13560 9260 9259 9258 ] final  130.87 input    0.00 | X-H torsion
[ 13565 9341 9340 9339 ] final  148.25 input    0.00 | X-H torsion
[ 13572 5568 5567 5566 ] final  -95.26 input    0.00 | X-H torsion

> <Gold.Protein.ActiveResidues>
 TRP311  MET341  TRP414  ARG419  CYS420  VAL421  GLY422  LEU429  LEU460  SER462 
 ALA463  ILE464  SER482  GLN483  LEU484  ILE485  ARG486  ASP500  ALA502  ASN503 
 TRP566  TYR567  GLY568  LEU569  PRO570  ALA571  VAL572  SER573  ASN574  MET575 
 PRO588  PHE589  SER590  GLY591  TRP592  TYR593  MET594  GLY595  THR596  GLU597 
 ILE598  GLY599  VAL600  ARG601  ASP602  TYR603  ASP605  SER607  ARG608  ILE653 
 VAL654  TRP683  PRO687  SER691  PHE696  HIS697  TYR711  HEM802  H4B803 

> <Gold.Protein.RotatedAtoms>
  121.8989  247.4592  327.2378 H   0  0  0  0  0  0  0  0  0  0  0  0  # atno 3576 bound_to 3563
  123.6615  246.2028  326.9253 H   0  0  0  0  0  0  0  0  0  0  0  0  # atno 3599 bound_to 3592
  125.4019  244.5874  316.8444 H   0  0  0  0  0  0  0  0  0  0  0  0  # atno 4890 bound_to 4885
  123.2027  246.7417  314.1376 H   0  0  0  0  0  0  0  0  0  0  0  0  # atno 4906 bound_to 4901
  107.3091  242.5075  320.5090 H   0  0  0  0  0  0  0  0  0  0  0  0  # atno 5550 bound_to 5545
  108.3015  242.3841  318.3512 H   0  0  0  0  0  0  0  0  0  0  0  0  # atno 5574 bound_to 5565
  111.3348  242.7460  315.0582 H   0  0  0  0  0  0  0  0  0  0  0  0  # atno 5606 bound_to 5598
  111.4260  239.6403  315.3724 H   0  0  0  0  0  0  0  0  0  0  0  0  # atno 5644 bound_to 5636
  110.3214  236.6272  316.0058 H   0  0  0  0  0  0  0  0  0  0  0  0  # atno 5688 bound_to 5677
  110.5656  236.6838  319.8515 H   0  0  0  0  0  0  0  0  0  0  0  0  # atno 8328 bound_to 8319
  118.5729  235.7951  317.3166 H   0  0  0  0  0  0  0  0  0  0  0  0  # atno 8379 bound_to 8360
  114.8349  240.9249  317.4106 H   0  0  0  0  0  0  0  0  0  0  0  0  # atno 8433 bound_to 8423
  114.6254  244.1627  318.2509 H   0  0  0  0  0  0  0  0  0  0  0  0  # atno 8461 bound_to 8445
  112.2166  246.0759  316.6420 H   0  0  0  0  0  0  0  0  0  0  0  0  # atno 8487 bound_to 8476
  108.5447  244.8082  314.7472 H   0  0  0  0  0  0  0  0  0  0  0  0  # atno 8491 bound_to 8481
  109.3213  247.2925  317.5514 H   0  0  0  0  0  0  0  0  0  0  0  0  # atno 8514 bound_to 8500
  115.0271  248.2694  315.2973 H   0  0  0  0  0  0  0  0  0  0  0  0  # atno 8957 bound_to 8937
  119.2408  246.3415  315.1227 H   0  0  0  0  0  0  0  0  0  0  0  0  # atno 8983 bound_to 8972
  120.3249  243.7427  314.2286 H   0  0  0  0  0  0  0  0  0  0  0  0  # atno 8987 bound_to 8977
  119.7292  243.2884  317.9852 H   0  0  0  0  0  0  0  0  0  0  0  0  # atno 8999 bound_to 8992
  122.7169  242.0043  319.9375 H   0  0  0  0  0  0  0  0  0  0  0  0  # atno 9040 bound_to 9016
  122.6342  238.3587  321.4056 H   0  0  0  0  0  0  0  0  0  0  0  0  # atno 9083 bound_to 9062
  114.5536  238.0892  320.9453 H   0  0  0  0  0  0  0  0  0  0  0  0  # atno 9091 bound_to 9073
  120.6210  239.3535  325.0159 H   0  0  0  0  0  0  0  0  0  0  0  0  # atno 9114 bound_to 9100
  121.9651  236.8873  328.0154 H   0  0  0  0  0  0  0  0  0  0  0  0  # atno 9134 bound_to 9130
  120.7278  238.2165  331.1509 H   0  0  0  0  0  0  0  0  0  0  0  0  # atno 9160 bound_to 9153
  117.8005  237.1611  329.5179 H   0  0  0  0  0  0  0  0  0  0  0  0  # atno 9186 bound_to 9177
  116.2962  235.8697  327.7454 H   0  0  0  0  0  0  0  0  0  0  0  0  # atno 9214 bound_to 9206
  116.2986  234.1137  328.8595 H   0  0  0  0  0  0  0  0  0  0  0  0  # atno 9244 bound_to 9240
  115.4818  232.7300  330.9029 H   0  0  0  0  0  0  0  0  0  0  0  0  # atno 9264 bound_to 9257
  114.1833  235.6821  330.4662 H   0  0  0  0  0  0  0  0  0  0  0  0  # atno 9304 bound_to 9293
  112.7698  234.7051  328.9163 H   0  0  0  0  0  0  0  0  0  0  0  0  # atno 9346 bound_to 9338
  110.9420  232.8581  327.8723 H   0  0  0  0  0  0  0  0  0  0  0  0  # atno 9378 bound_to 9366
  109.6942  234.0522  332.0200 H   0  0  0  0  0  0  0  0  0  0  0  0  # atno 9434 bound_to 9426
  104.1307  238.4977  332.2945 H   0  0  0  0  0  0  0  0  0  0  0  0  # atno 9486 bound_to 9481
  126.1731  236.1620  323.7954 H   0  0  0  0  0  0  0  0  0  0  0  0  # atno 11050 bound_to 11043
  121.5625  248.2402  328.7651 LP  0  0  0  0  0  0  0  0  0  0  0  0  # atno 13467 bound_to 3563
  123.7613  247.8936  326.4892 LP  0  0  0  0  0  0  0  0  0  0  0  0  # atno 13468 bound_to 3592
  118.1661  241.7099  316.8398 LP  0  0  0  0  0  0  0  0  0  0  0  0  # atno 13470 bound_to 8400
  117.8519  242.7919  318.1553 LP  0  0  0  0  0  0  0  0  0  0  0  0  # atno 13471 bound_to 8400
  115.9974  241.8625  318.3139 LP  0  0  0  0  0  0  0  0  0  0  0  0  # atno 13472 bound_to 8423
  114.5676  244.9430  316.6873 LP  0  0  0  0  0  0  0  0  0  0  0  0  # atno 13473 bound_to 8445
  115.4511  245.8613  316.1083 LP  0  0  0  0  0  0  0  0  0  0  0  0  # atno 13474 bound_to 8940
  116.6467  245.1886  317.1657 LP  0  0  0  0  0  0  0  0  0  0  0  0  # atno 13475 bound_to 8940
  120.3684  243.6723  316.4039 LP  0  0  0  0  0  0  0  0  0  0  0  0  # atno 13476 bound_to 8992
  121.1099  241.1121  316.4526 LP  0  0  0  0  0  0  0  0  0  0  0  0  # atno 13477 bound_to 8995
  122.2266  239.9874  317.1512 LP  0  0  0  0  0  0  0  0  0  0  0  0  # atno 13478 bound_to 8995
  122.1056  241.5787  318.3563 LP  0  0  0  0  0  0  0  0  0  0  0  0  # atno 13479 bound_to 9016
  122.5675  240.9304  322.5402 LP  0  0  0  0  0  0  0  0  0  0  0  0  # atno 13480 bound_to 9019
  121.2070  241.4979  321.6309 LP  0  0  0  0  0  0  0  0  0  0  0  0  # atno 13481 bound_to 9019
  121.1398  238.9566  320.7247 LP  0  0  0  0  0  0  0  0  0  0  0  0  # atno 13482 bound_to 9062
  123.7631  238.3141  323.1852 LP  0  0  0  0  0  0  0  0  0  0  0  0  # atno 13483 bound_to 9065
  123.3892  237.1086  324.3713 LP  0  0  0  0  0  0  0  0  0  0  0  0  # atno 13484 bound_to 9065
  114.2068  237.2112  322.2708 LP  0  0  0  0  0  0  0  0  0  0  0  0  # atno 13485 bound_to 9073
  114.5283  236.4646  320.8546 LP  0  0  0  0  0  0  0  0  0  0  0  0  # atno 13486 bound_to 9073
  122.0619  238.7400  324.2379 LP  0  0  0  0  0  0  0  0  0  0  0  0  # atno 13487 bound_to 9100
  119.4224  237.2980  327.5506 LP  0  0  0  0  0  0  0  0  0  0  0  0  # atno 13488 bound_to 9103
  119.5442  237.3587  325.8239 LP  0  0  0  0  0  0  0  0  0  0  0  0  # atno 13489 bound_to 9103
  118.6228  236.8848  328.0015 LP  0  0  0  0  0  0  0  0  0  0  0  0  # atno 13490 bound_to 9177
  117.6077  246.1920  315.7184 LP  0  0  0  0  0  0  0  0  0  0  0  0  # atno 13499 bound_to 8972
  121.7300  244.9565  315.3943 LP  0  0  0  0  0  0  0  0  0  0  0  0  # atno 13500 bound_to 8975
  121.1334  246.1018  316.5486 LP  0  0  0  0  0  0  0  0  0  0  0  0  # atno 13501 bound_to 8975
  119.7789  236.8614  318.3952 LP  0  0  0  0  0  0  0  0  0  0  0  0  # atno 13502 bound_to 8345
  120.9551  235.9418  317.5172 LP  0  0  0  0  0  0  0  0  0  0  0  0  # atno 13503 bound_to 8345
  122.2824  236.4539  326.3536 LP  0  0  0  0  0  0  0  0  0  0  0  0  # atno 13504 bound_to 9130
  124.7921  236.9486  324.5185 LP  0  0  0  0  0  0  0  0  0  0  0  0  # atno 13505 bound_to 11043
  124.2771  237.7407  327.3960 LP  0  0  0  0  0  0  0  0  0  0  0  0  # atno 13506 bound_to 11046
  124.0664  236.1034  326.8718 LP  0  0  0  0  0  0  0  0  0  0  0  0  # atno 13507 bound_to 11046
  124.2696  245.3906  317.6926 LP  0  0  0  0  0  0  0  0  0  0  0  0  # atno 13508 bound_to 4885
  125.7889  245.9803  317.5906 LP  0  0  0  0  0  0  0  0  0  0  0  0  # atno 13509 bound_to 4885
  115.4631  239.1631  316.4370 LP  0  0  0  0  0  0  0  0  0  0  0  0  # atno 13510 bound_to 8363
  115.5001  237.4351  316.5505 LP  0  0  0  0  0  0  0  0  0  0  0  0  # atno 13511 bound_to 8363
  112.2417  242.9876  317.3616 LP  0  0  0  0  0  0  0  0  0  0  0  0  # atno 13512 bound_to 8426
  112.6149  243.2804  315.6957 LP  0  0  0  0  0  0  0  0  0  0  0  0  # atno 13513 bound_to 8426
  119.1114  244.3254  313.3141 LP  0  0  0  0  0  0  0  0  0  0  0  0  # atno 13514 bound_to 8977
  119.4201  242.7221  313.3408 LP  0  0  0  0  0  0  0  0  0  0  0  0  # atno 13515 bound_to 8977
  113.0442  248.1381  316.0134 LP  0  0  0  0  0  0  0  0  0  0  0  0  # atno 13516 bound_to 8448
  114.2001  246.8511  315.9275 LP  0  0  0  0  0  0  0  0  0  0  0  0  # atno 13517 bound_to 8448
  115.2479  247.2669  313.8829 LP  0  0  0  0  0  0  0  0  0  0  0  0  # atno 13518 bound_to 8937
  118.7496  248.4779  329.9554 LP  0  0  0  0  0  0  0  0  0  0  0  0  # atno 13521 bound_to 3502
  118.2417  248.2637  328.3134 LP  0  0  0  0  0  0  0  0  0  0  0  0  # atno 13522 bound_to 3502
  122.1239  245.4259  313.7565 LP  0  0  0  0  0  0  0  0  0  0  0  0  # atno 13523 bound_to 4901
  119.0185  247.1724  313.4834 LP  0  0  0  0  0  0  0  0  0  0  0  0  # atno 13524 bound_to 4904
  120.3843  247.2142  314.5478 LP  0  0  0  0  0  0  0  0  0  0  0  0  # atno 13525 bound_to 4904
  110.7425  246.2905  317.5565 LP  0  0  0  0  0  0  0  0  0  0  0  0  # atno 13526 bound_to 8476
  109.9066  244.8339  319.0033 LP  0  0  0  0  0  0  0  0  0  0  0  0  # atno 13529 bound_to 5543
  109.5572  245.6027  317.4910 LP  0  0  0  0  0  0  0  0  0  0  0  0  # atno 13530 bound_to 5543
  108.2274  243.5582  317.0523 LP  0  0  0  0  0  0  0  0  0  0  0  0  # atno 13531 bound_to 5565
  111.9081  237.4227  320.3992 LP  0  0  0  0  0  0  0  0  0  0  0  0  # atno 13532 bound_to 8319
  111.3828  236.0481  321.1070 LP  0  0  0  0  0  0  0  0  0  0  0  0  # atno 13533 bound_to 8319
  114.0972  236.3705  326.3660 LP  0  0  0  0  0  0  0  0  0  0  0  0  # atno 13534 bound_to 9180
  114.0707  236.9736  327.9894 LP  0  0  0  0  0  0  0  0  0  0  0  0  # atno 13535 bound_to 9180
  106.9172  242.2353  318.9530 LP  0  0  0  0  0  0  0  0  0  0  0  0  # atno 13540 bound_to 5545
  105.7467  242.3337  320.0874 LP  0  0  0  0  0  0  0  0  0  0  0  0  # atno 13541 bound_to 5545
  110.6145  241.2875  315.6845 LP  0  0  0  0  0  0  0  0  0  0  0  0  # atno 13542 bound_to 5598
  111.9042  238.3422  317.0188 LP  0  0  0  0  0  0  0  0  0  0  0  0  # atno 13543 bound_to 5639
  110.8634  237.3389  317.9729 LP  0  0  0  0  0  0  0  0  0  0  0  0  # atno 13544 bound_to 5639
  111.1407  239.5236  313.6490 LP  0  0  0  0  0  0  0  0  0  0  0  0  # atno 13545 bound_to 5636
  117.1244  235.8785  326.2075 LP  0  0  0  0  0  0  0  0  0  0  0  0  # atno 13546 bound_to 9206
  111.6467  236.0496  328.8305 LP  0  0  0  0  0  0  0  0  0  0  0  0  # atno 13547 bound_to 9338
  116.0501  237.0168  330.5600 LP  0  0  0  0  0  0  0  0  0  0  0  0  # atno 13548 bound_to 9150
  116.2057  235.3357  330.1731 LP  0  0  0  0  0  0  0  0  0  0  0  0  # atno 13549 bound_to 9150
  113.8933  232.7613  328.7297 LP  0  0  0  0  0  0  0  0  0  0  0  0  # atno 13550 bound_to 9209
  113.5637  233.0320  327.0510 LP  0  0  0  0  0  0  0  0  0  0  0  0  # atno 13551 bound_to 9209
  116.4332  232.9530  327.5545 LP  0  0  0  0  0  0  0  0  0  0  0  0  # atno 13552 bound_to 9240
  113.3995  234.9108  331.8331 LP  0  0  0  0  0  0  0  0  0  0  0  0  # atno 13553 bound_to 9293
  109.5123  235.2602  329.0048 LP  0  0  0  0  0  0  0  0  0  0  0  0  # atno 13554 bound_to 9296
  109.7883  235.1276  330.7096 LP  0  0  0  0  0  0  0  0  0  0  0  0  # atno 13555 bound_to 9296
  119.2859  238.9105  331.4467 LP  0  0  0  0  0  0  0  0  0  0  0  0  # atno 13558 bound_to 9153
  119.5787  238.2148  329.9987 LP  0  0  0  0  0  0  0  0  0  0  0  0  # atno 13559 bound_to 9153
  111.8865  235.0147  333.1282 LP  0  0  0  0  0  0  0  0  0  0  0  0  # atno 13560 bound_to 9260
  112.3639  233.3600  332.9434 LP  0  0  0  0  0  0  0  0  0  0  0  0  # atno 13561 bound_to 9260
  110.9260  231.3840  326.5518 LP  0  0  0  0  0  0  0  0  0  0  0  0  # atno 13565 bound_to 9341
  110.1353  232.7672  325.8723 LP  0  0  0  0  0  0  0  0  0  0  0  0  # atno 13566 bound_to 9341
  111.7160  233.1231  329.4228 LP  0  0  0  0  0  0  0  0  0  0  0  0  # atno 13567 bound_to 9366
  104.2843  238.2895  330.6881 LP  0  0  0  0  0  0  0  0  0  0  0  0  # atno 13568 bound_to 9481
  104.9248  237.1985  331.7207 LP  0  0  0  0  0  0  0  0  0  0  0  0  # atno 13569 bound_to 9481
  108.6687  240.2667  315.4588 LP  0  0  0  0  0  0  0  0  0  0  0  0  # atno 13572 bound_to 5568
  108.0803  241.8227  314.9765 LP  0  0  0  0  0  0  0  0  0  0  0  0  # atno 13573 bound_to 5568
  108.8119  237.2247  315.3463 LP  0  0  0  0  0  0  0  0  0  0  0  0  # atno 13574 bound_to 5677
  117.6060  235.5105  315.8895 LP  0  0  0  0  0  0  0  0  0  0  0  0  # atno 13575 bound_to 8360
  109.2895  245.1367  316.1569 LP  0  0  0  0  0  0  0  0  0  0  0  0  # atno 13576 bound_to 8481
  109.9413  244.0586  315.1179 LP  0  0  0  0  0  0  0  0  0  0  0  0  # atno 13577 bound_to 8481

> <Gold.Score>
     Fitness  S(hb_ext) S(vdw_ext)  S(hb_int)    S(int)      intcor
     36.63       0.13      28.31       0.00      -2.42      -0.78

> <Gold.Goldscore.Fitness>
36.6304

> <Gold.Goldscore.Internal.Vdw>
-2.8227

> <Gold.Goldscore.Internal.Torsion>
-0.3786

> <Gold.Goldscore.External.Vdw>
28.3078

> <Gold.Goldscore.Internal.HBond>
0.0000

> <Gold.Goldscore.External.HBond>
0.1265

> <Gold.Goldscore.Internal.Correction>
-0.7819

> <Gold.Goldscore.Hbonds>
donor molecule, donor type, donor heavy atom, donor atom, acceptor molecule, acceptor atom, score
      P1  H  8445  8461       L1     9  0.06

> <Gold.Goldscore.Internal.Vdw.Weighted>
-2.8227

> <Gold.Goldscore.Internal.Torsion.Weighted>
-0.3786

> <Gold.Goldscore.External.Vdw.Weighted>
38.9232

> <Gold.Goldscore.Internal.HBond.Weighted>
0.0000

> <Gold.Goldscore.External.HBond.Weighted>
0.1265

> <Gold.Goldscore.Internal.Correction.Weighted>
-0.7819

> <Gold.Rescore>
     Score     S(PLP)   S(hbond)     S(cho)   S(metal)  DE(clash)   DE(tors)     intcor
     35.07     -34.68       0.90       0.00       0.00       1.65       0.33       ----

> <Gold.PLP.Fitness>
35.0745

> <Gold.PLP.PLP>
-34.6799

> <Gold.PLP.part.hbond>
-2.9843

> <Gold.PLP.part.metal>
0.0000

> <Gold.PLP.part.buried>
2.1204

> <Gold.PLP.part.nonpolar>
-36.9274

> <Gold.PLP.part.repulsive>
4.0592

> <Gold.PLP.ligand.clash>
1.6472

> <Gold.PLP.ligand.torsion>
0.3309

> <Gold.PLP.Chemscore.Hbond>
0.9012

> <Gold.PLP.Chemscore.CHOScore>
0.0000

> <Gold.PLP.Chemscore.Metal>
0.0000

> <Gold.PLP.Chemscore.Internal.Correction>
   9.000000E+99

