#       Name:                CT1002167954
#       Creating user name   hitesit
#       Creation time:       Sun Apr 16 02:22:52 2023


#       File generated by GOLD software.
#

@<TRIPOS>MOLECULE
CT1002167954|ligand_prepared|mol2|1|dock1
    29    30     1
SMALL
NO_CHARGES


@<TRIPOS>ATOM
      1 C1         114.6847 242.5284 322.5044 C.3            1 RES1               0.0000
      2 C2         115.8541 243.4789 322.1758 C.ar           1 RES1               0.0000
      3 C3         114.5083 242.5739 324.0193 C.2            1 RES1               0.0000
      4 C4         113.4823 243.0451 321.7222 C.2            1 RES1               0.0000
      5 C5         114.9345 241.0616 322.0827 C.3            1 RES1               0.0000
      6 C6         116.4180 243.4953 320.9037 C.ar           1 RES1               0.0000
      7 C7         116.3769 244.3455 323.1320 C.ar           1 RES1               0.0000
      8 N8         113.4323 243.2531 324.5100 N.am           1 RES1               0.0000
      9 O9         115.3224 242.0553 324.7733 O.2            1 RES1               0.0000
     10 N10        112.4166 243.5337 322.4317 N.am           1 RES1               0.0000
     11 O11        113.4549 243.0490 320.4976 O.2            1 RES1               0.0000
     12 C12        113.9208 240.0798 322.6490 C.3            1 RES1               0.0000
     13 C13        117.4646 244.3492 320.5975 C.ar           1 RES1               0.0000
     14 C14        117.4238 245.1984 322.8239 C.ar           1 RES1               0.0000
     15 C15        112.3497 243.6895 323.7894 C.2            1 RES1               0.0000
     16 C16        117.9679 245.2015 321.5571 C.ar           1 RES1               0.0000
     17 O17        111.3779 244.1875 324.3505 O.2            1 RES1               0.0000
     18 H18        114.9118 241.0003 320.9877 H              1 RES1               0.0000
     19 H19        115.9370 240.7647 322.4145 H              1 RES1               0.0000
     20 H20        116.0367 242.8300 320.1362 H              1 RES1               0.0000
     21 H21        115.9652 244.3596 324.1355 H              1 RES1               0.0000
     22 H22        113.4326 243.4554 325.5047 H              1 RES1               0.0000
     23 H23        111.5972 243.8064 321.8982 H              1 RES1               0.0000
     24 H24        114.1421 239.0658 322.3226 H              1 RES1               0.0000
     25 H25        113.9341 240.0962 323.7368 H              1 RES1               0.0000
     26 H26        112.9149 240.3304 322.3185 H              1 RES1               0.0000
     27 H27        117.8903 244.3468 319.5995 H              1 RES1               0.0000
     28 H28        117.8172 245.8671 323.5824 H              1 RES1               0.0000
     29 H29        118.7876 245.8706 321.3169 H              1 RES1               0.0000
@<TRIPOS>BOND
    1    1    2 1     
    2    1    3 1     
    3    1    4 1     
    4    1    5 1     
    5    2    6 ar    
    6    2    7 ar    
    7    3    8 1     
    8    3    9 2     
    9    4   10 1     
   10    4   11 2     
   11    5   12 1     
   12    5   18 1     
   13    5   19 1     
   14    6   13 ar    
   15    6   20 1     
   16    7   14 ar    
   17    7   21 1     
   18    8   15 1     
   19    8   22 1     
   20   10   15 1     
   21   10   23 1     
   22   12   24 1     
   23   12   25 1     
   24   12   26 1     
   25   13   16 ar    
   26   13   27 1     
   27   14   16 ar    
   28   14   28 1     
   29   15   17 2     
   30   16   29 1     
@<TRIPOS>SUBSTRUCTURE
      1 RES1           1
@<TRIPOS>SET
DONOR_HYDROGENS      STATIC     ATOMS    <user>   **** ""
2 22 23
ATOM$RED        STATIC     ATOMS    COLORGROUP SYSTEM
2 22 23
@<TRIPOS>COMMENT
> <Gold.Version>
2022.3.0

> <Gold.Id.Protein>
unknown|6ng7_clean|pdb

> <Gold.Protein.RotatedTorsions>
[ 3576 3563 3564 3565 ] final  147.72 input  100.79 | X-H torsion
[ 3599 3592 3593 3594 ] final -169.55 input   89.00 | X-H torsion
[ 8433 8423 8424 8425 ] final -112.79 input   34.47 | X-H torsion
[ 8461 8445 8446 8447 ] final  145.58 input   99.97 | X-H torsion
[ 8999 8992 8993 8994 ] final -178.67 input   33.19 | X-H torsion
[ 9040 9016 9017 9018 ] final   36.64 input   39.09 | X-H torsion
[ 9083 9062 9063 9064 ] final -109.93 input   97.54 | X-H torsion
[ 9091 9073 9072 9070 ] final   84.42 input   60.01 | X-H torsion
[ 9114 9100 9101 9102 ] final -103.84 input   92.58 | X-H torsion
[ 9186 9177 9178 9179 ] final -117.21 input  115.65 | X-H torsion
[ 8983 8972 8973 8974 ] final -121.81 input   31.13 | X-H torsion
[ 9134 9130 9131 9132 ] final -133.03 input  123.92 | X-H torsion
[ 11050 11043 11044 11045 ] final    0.90 input   53.30 | X-H torsion
[ 4890 4885 4884 4881 ] final -162.96 input   60.01 | X-H torsion
[ 8987 8977 8976 8973 ] final  157.74 input   59.99 | X-H torsion
[ 8957 8937 8938 8939 ] final   29.62 input   44.56 | X-H torsion
[ 4906 4901 4902 4903 ] final  -10.18 input   21.77 | X-H torsion
[ 8487 8476 8477 8478 ] final  117.02 input   54.71 | X-H torsion
[ 5574 5565 5566 5567 ] final  158.95 input   53.40 | X-H torsion
[ 8328 8319 8318 8316 ] final  -22.51 input   60.03 | X-H torsion
[ 5550 5545 5544 5541 ] final    1.48 input   59.98 | X-H torsion
[ 5606 5598 5599 5600 ] final  112.56 input  117.00 | X-H torsion
[ 5644 5636 5637 5638 ] final  125.00 input   61.23 | X-H torsion
[ 9214 9206 9207 9208 ] final -151.11 input   98.56 | X-H torsion
[ 9346 9338 9339 9340 ] final -112.11 input  104.10 | X-H torsion
[ 9244 9240 9241 9242 ] final   96.51 input   92.42 | X-H torsion
[ 9304 9293 9294 9295 ] final  143.80 input   83.70 | X-H torsion
[ 9160 9153 9151 9148 ] final  168.60 input   60.00 | X-H torsion
[ 9378 9366 9367 9368 ] final   95.45 input   40.32 | X-H torsion
[ 9486 9481 9480 9477 ] final  -25.64 input   60.00 | X-H torsion
[ 5688 5677 5678 5679 ] final  125.27 input   32.59 | X-H torsion
[ 8379 8360 8361 8362 ] final   49.72 input   69.42 | X-H torsion
[ 8491 8481 8480 8477 ] final  178.97 input   60.01 | X-H torsion
[ 8514 8500 8501 8502 ] final    2.56 input   65.89 | X-H torsion
[ 9264 9257 9258 9259 ] final -156.87 input   80.62 | X-H torsion
[ 9434 9426 9427 9428 ] final -127.79 input  124.27 | X-H torsion
[ 13470 8400 8399 8398 ] final -116.12 input   -0.00 | X-H torsion
[ 13474 8940 8939 8938 ] final -174.37 input   -0.00 | X-H torsion
[ 13477 8995 8994 8993 ] final -170.76 input    0.00 | X-H torsion
[ 13480 9019 9018 9017 ] final  -22.24 input   -0.00 | X-H torsion
[ 13483 9065 9064 9063 ] final  -39.06 input   -0.00 | X-H torsion
[ 13488 9103 9102 9101 ] final  -43.29 input    0.00 | X-H torsion
[ 13500 8975 8974 8973 ] final  109.02 input    0.00 | X-H torsion
[ 13502 8345 8344 8343 ] final   56.98 input   -0.00 | X-H torsion
[ 13506 11046 11045 11044 ] final   70.90 input    0.00 | X-H torsion
[ 13510 8363 8362 8361 ] final  -97.71 input    0.00 | X-H torsion
[ 13512 8426 8425 8424 ] final -112.28 input   -0.00 | X-H torsion
[ 13516 8448 8447 8446 ] final   13.38 input   -0.00 | X-H torsion
[ 13521 3502 3501 3500 ] final  124.65 input    0.00 | X-H torsion
[ 13524 4904 4903 4902 ] final   61.23 input    0.00 | X-H torsion
[ 13529 5543 5542 5541 ] final -167.13 input   -0.00 | X-H torsion
[ 13534 9180 9179 9178 ] final  119.00 input    0.00 | X-H torsion
[ 13543 5639 5638 5637 ] final  137.27 input    0.00 | X-H torsion
[ 13548 9150 9149 9148 ] final  -45.62 input    0.00 | X-H torsion
[ 13550 9209 9208 9207 ] final   82.96 input    0.00 | X-H torsion
[ 13554 9296 9295 9294 ] final -132.92 input    0.00 | X-H torsion
[ 13560 9260 9259 9258 ] final  -93.79 input    0.00 | X-H torsion
[ 13565 9341 9340 9339 ] final  -35.84 input    0.00 | X-H torsion
[ 13572 5568 5567 5566 ] final  -30.00 input    0.00 | X-H torsion

> <Gold.Protein.ActiveResidues>
 TRP311  MET341  TRP414  ARG419  CYS420  VAL421  GLY422  LEU429  LEU460  SER462 
 ALA463  ILE464  SER482  GLN483  LEU484  ILE485  ARG486  ASP500  ALA502  ASN503 
 TRP566  TYR567  GLY568  LEU569  PRO570  ALA571  VAL572  SER573  ASN574  MET575 
 PRO588  PHE589  SER590  GLY591  TRP592  TYR593  MET594  GLY595  THR596  GLU597 
 ILE598  GLY599  VAL600  ARG601  ASP602  TYR603  ASP605  SER607  ARG608  ILE653 
 VAL654  TRP683  PRO687  SER691  PHE696  HIS697  TYR711  HEM802  H4B803 

> <Gold.Protein.RotatedAtoms>
  121.3296  247.4709  328.7012 H   0  0  0  0  0  0  0  0  0  0  0  0  # atno 3576 bound_to 3563
  123.6259  246.1992  326.8986 H   0  0  0  0  0  0  0  0  0  0  0  0  # atno 3599 bound_to 3592
  125.1384  246.1116  317.8694 H   0  0  0  0  0  0  0  0  0  0  0  0  # atno 4890 bound_to 4885
  122.0520  246.4681  314.4441 H   0  0  0  0  0  0  0  0  0  0  0  0  # atno 4906 bound_to 4901
  107.0111  242.2501  318.9902 H   0  0  0  0  0  0  0  0  0  0  0  0  # atno 5550 bound_to 5545
  108.5600  242.9628  318.5317 H   0  0  0  0  0  0  0  0  0  0  0  0  # atno 5574 bound_to 5565
  111.8233  242.1851  315.2546 H   0  0  0  0  0  0  0  0  0  0  0  0  # atno 5606 bound_to 5598
  112.1438  239.4757  314.3048 H   0  0  0  0  0  0  0  0  0  0  0  0  # atno 5644 bound_to 5636
  109.1955  237.7462  315.7604 H   0  0  0  0  0  0  0  0  0  0  0  0  # atno 5688 bound_to 5677
  112.0502  237.1816  320.7241 H   0  0  0  0  0  0  0  0  0  0  0  0  # atno 8328 bound_to 8319
  117.2092  235.6726  316.4721 H   0  0  0  0  0  0  0  0  0  0  0  0  # atno 8379 bound_to 8360
  116.1598  241.7553  318.1785 H   0  0  0  0  0  0  0  0  0  0  0  0  # atno 8433 bound_to 8423
  114.9993  244.6630  318.2405 H   0  0  0  0  0  0  0  0  0  0  0  0  # atno 8461 bound_to 8445
  111.2127  245.3913  316.8093 H   0  0  0  0  0  0  0  0  0  0  0  0  # atno 8487 bound_to 8476
  109.1255  244.2601  314.5065 H   0  0  0  0  0  0  0  0  0  0  0  0  # atno 8491 bound_to 8481
  110.1747  248.5575  317.3969 H   0  0  0  0  0  0  0  0  0  0  0  0  # atno 8514 bound_to 8500
  114.9492  247.2831  315.3000 H   0  0  0  0  0  0  0  0  0  0  0  0  # atno 8957 bound_to 8937
  117.7771  246.3404  316.0190 H   0  0  0  0  0  0  0  0  0  0  0  0  # atno 8983 bound_to 8972
  119.4719  242.7056  313.3843 H   0  0  0  0  0  0  0  0  0  0  0  0  # atno 8987 bound_to 8977
  120.2319  244.3493  317.1336 H   0  0  0  0  0  0  0  0  0  0  0  0  # atno 8999 bound_to 8992
  122.6712  242.0074  319.9528 H   0  0  0  0  0  0  0  0  0  0  0  0  # atno 9040 bound_to 9016
  121.5181  239.4681  321.0113 H   0  0  0  0  0  0  0  0  0  0  0  0  # atno 9083 bound_to 9062
  114.2956  236.4585  321.8262 H   0  0  0  0  0  0  0  0  0  0  0  0  # atno 9091 bound_to 9073
  122.0545  238.6698  324.2317 H   0  0  0  0  0  0  0  0  0  0  0  0  # atno 9114 bound_to 9100
  122.1295  236.5268  326.3060 H   0  0  0  0  0  0  0  0  0  0  0  0  # atno 9134 bound_to 9130
  119.7888  238.8182  331.7220 H   0  0  0  0  0  0  0  0  0  0  0  0  # atno 9160 bound_to 9153
  117.9170  237.3979  329.4920 H   0  0  0  0  0  0  0  0  0  0  0  0  # atno 9186 bound_to 9177
  116.4089  236.2936  326.2552 H   0  0  0  0  0  0  0  0  0  0  0  0  # atno 9214 bound_to 9206
  117.2037  233.6772  328.4644 H   0  0  0  0  0  0  0  0  0  0  0  0  # atno 9244 bound_to 9240
  116.3000  233.0283  331.2498 H   0  0  0  0  0  0  0  0  0  0  0  0  # atno 9264 bound_to 9257
  114.1839  236.0822  331.2767 H   0  0  0  0  0  0  0  0  0  0  0  0  # atno 9304 bound_to 9293
  111.4441  235.8676  328.9943 H   0  0  0  0  0  0  0  0  0  0  0  0  # atno 9346 bound_to 9338
  112.1705  232.8572  328.9619 H   0  0  0  0  0  0  0  0  0  0  0  0  # atno 9378 bound_to 9366
  109.9737  233.7255  333.3610 H   0  0  0  0  0  0  0  0  0  0  0  0  # atno 9434 bound_to 9426
  104.8793  237.2625  331.9564 H   0  0  0  0  0  0  0  0  0  0  0  0  # atno 9486 bound_to 9481
  124.8729  236.2491  324.7221 H   0  0  0  0  0  0  0  0  0  0  0  0  # atno 11050 bound_to 11043
  122.1179  248.2288  327.3374 LP  0  0  0  0  0  0  0  0  0  0  0  0  # atno 13467 bound_to 3563
  123.7959  247.8971  326.5151 LP  0  0  0  0  0  0  0  0  0  0  0  0  # atno 13468 bound_to 3592
  117.7413  242.9026  318.0011 LP  0  0  0  0  0  0  0  0  0  0  0  0  # atno 13470 bound_to 8400
  118.2767  241.5992  316.9940 LP  0  0  0  0  0  0  0  0  0  0  0  0  # atno 13471 bound_to 8400
  114.6918  241.0442  317.5573 LP  0  0  0  0  0  0  0  0  0  0  0  0  # atno 13472 bound_to 8423
  114.2037  244.4560  316.6975 LP  0  0  0  0  0  0  0  0  0  0  0  0  # atno 13473 bound_to 8445
  116.6201  244.9359  316.9140 LP  0  0  0  0  0  0  0  0  0  0  0  0  # atno 13474 bound_to 8940
  115.4777  246.1140  316.3600 LP  0  0  0  0  0  0  0  0  0  0  0  0  # atno 13475 bound_to 8940
  119.8791  242.6398  317.2326 LP  0  0  0  0  0  0  0  0  0  0  0  0  # atno 13476 bound_to 8992
  121.7555  239.8969  317.3642 LP  0  0  0  0  0  0  0  0  0  0  0  0  # atno 13477 bound_to 8995
  121.5810  241.2026  316.2396 LP  0  0  0  0  0  0  0  0  0  0  0  0  # atno 13478 bound_to 8995
  122.1503  241.5755  318.3413 LP  0  0  0  0  0  0  0  0  0  0  0  0  # atno 13479 bound_to 9016
  122.4620  241.6139  321.5757 LP  0  0  0  0  0  0  0  0  0  0  0  0  # atno 13480 bound_to 9019
  121.3125  240.8145  322.5954 LP  0  0  0  0  0  0  0  0  0  0  0  0  # atno 13481 bound_to 9019
  122.2286  237.8743  321.1094 LP  0  0  0  0  0  0  0  0  0  0  0  0  # atno 13482 bound_to 9062
  123.2613  237.0707  323.2880 LP  0  0  0  0  0  0  0  0  0  0  0  0  # atno 13483 bound_to 9065
  123.8911  238.3520  324.2686 LP  0  0  0  0  0  0  0  0  0  0  0  0  # atno 13484 bound_to 9065
  114.6498  237.2330  320.4395 LP  0  0  0  0  0  0  0  0  0  0  0  0  # atno 13485 bound_to 9073
  114.3450  238.0849  321.7988 LP  0  0  0  0  0  0  0  0  0  0  0  0  # atno 13486 bound_to 9073
  120.6671  239.4053  325.0010 LP  0  0  0  0  0  0  0  0  0  0  0  0  # atno 13487 bound_to 9100
  119.4800  238.1368  326.9976 LP  0  0  0  0  0  0  0  0  0  0  0  0  # atno 13488 bound_to 9103
  119.4866  236.5198  326.3768 LP  0  0  0  0  0  0  0  0  0  0  0  0  # atno 13489 bound_to 9103
  118.5087  236.6528  328.0269 LP  0  0  0  0  0  0  0  0  0  0  0  0  # atno 13490 bound_to 9177
  119.0502  246.1931  314.8352 LP  0  0  0  0  0  0  0  0  0  0  0  0  # atno 13499 bound_to 8972
  121.4549  245.8726  316.7662 LP  0  0  0  0  0  0  0  0  0  0  0  0  # atno 13500 bound_to 8975
  121.4085  245.1858  315.1768 LP  0  0  0  0  0  0  0  0  0  0  0  0  # atno 13501 bound_to 8975
  120.9549  235.9490  317.5095 LP  0  0  0  0  0  0  0  0  0  0  0  0  # atno 13502 bound_to 8345
  119.7791  236.8541  318.4028 LP  0  0  0  0  0  0  0  0  0  0  0  0  # atno 13503 bound_to 8345
  122.1211  236.8074  328.0297 LP  0  0  0  0  0  0  0  0  0  0  0  0  # atno 13504 bound_to 9130
  126.0692  236.8631  323.6082 LP  0  0  0  0  0  0  0  0  0  0  0  0  # atno 13505 bound_to 11043
  124.0536  236.2583  326.5903 LP  0  0  0  0  0  0  0  0  0  0  0  0  # atno 13506 bound_to 11046
  124.2898  237.5858  327.6775 LP  0  0  0  0  0  0  0  0  0  0  0  0  # atno 13507 bound_to 11046
  125.9518  245.0380  316.9569 LP  0  0  0  0  0  0  0  0  0  0  0  0  # atno 13508 bound_to 4885
  124.3722  244.7971  317.2935 LP  0  0  0  0  0  0  0  0  0  0  0  0  # atno 13509 bound_to 4885
  115.5713  239.0398  316.0540 LP  0  0  0  0  0  0  0  0  0  0  0  0  # atno 13510 bound_to 8363
  115.3919  237.5584  316.9335 LP  0  0  0  0  0  0  0  0  0  0  0  0  # atno 13511 bound_to 8363
  112.3464  243.8022  315.9838 LP  0  0  0  0  0  0  0  0  0  0  0  0  # atno 13512 bound_to 8426
  112.5102  242.4658  317.0735 LP  0  0  0  0  0  0  0  0  0  0  0  0  # atno 13513 bound_to 8426
  120.3163  243.8117  314.2280 LP  0  0  0  0  0  0  0  0  0  0  0  0  # atno 13514 bound_to 8977
  119.0740  244.2799  313.2771 LP  0  0  0  0  0  0  0  0  0  0  0  0  # atno 13515 bound_to 8977
  114.3121  247.1093  316.3246 LP  0  0  0  0  0  0  0  0  0  0  0  0  # atno 13516 bound_to 8448
  112.9322  247.8800  315.6164 LP  0  0  0  0  0  0  0  0  0  0  0  0  # atno 13517 bound_to 8448
  115.3240  248.2307  313.8803 LP  0  0  0  0  0  0  0  0  0  0  0  0  # atno 13518 bound_to 8937
  118.3953  248.2151  328.2884 LP  0  0  0  0  0  0  0  0  0  0  0  0  # atno 13521 bound_to 3502
  118.5959  248.5265  329.9804 LP  0  0  0  0  0  0  0  0  0  0  0  0  # atno 13522 bound_to 3502
  123.2618  245.6965  313.4534 LP  0  0  0  0  0  0  0  0  0  0  0  0  # atno 13523 bound_to 4901
  120.3426  247.3552  314.5748 LP  0  0  0  0  0  0  0  0  0  0  0  0  # atno 13524 bound_to 4904
  119.0602  247.0315  313.4564 LP  0  0  0  0  0  0  0  0  0  0  0  0  # atno 13525 bound_to 4904
  111.7217  246.9582  317.3934 LP  0  0  0  0  0  0  0  0  0  0  0  0  # atno 13526 bound_to 8476
  110.2954  244.7006  317.8417 LP  0  0  0  0  0  0  0  0  0  0  0  0  # atno 13529 bound_to 5543
  109.1683  245.7360  318.6526 LP  0  0  0  0  0  0  0  0  0  0  0  0  # atno 13530 bound_to 5543
  107.9790  243.0021  316.8789 LP  0  0  0  0  0  0  0  0  0  0  0  0  # atno 13531 bound_to 5565
  111.0264  235.9286  320.8976 LP  0  0  0  0  0  0  0  0  0  0  0  0  # atno 13532 bound_to 8319
  110.7695  237.0410  319.7300 LP  0  0  0  0  0  0  0  0  0  0  0  0  # atno 13533 bound_to 8319
  114.1143  236.5660  326.3187 LP  0  0  0  0  0  0  0  0  0  0  0  0  # atno 13534 bound_to 9180
  114.0536  236.7782  328.0367 LP  0  0  0  0  0  0  0  0  0  0  0  0  # atno 13535 bound_to 9180
  105.7273  242.3169  319.9884 LP  0  0  0  0  0  0  0  0  0  0  0  0  # atno 13540 bound_to 5545
  107.2366  242.5112  320.5808 LP  0  0  0  0  0  0  0  0  0  0  0  0  # atno 13541 bound_to 5545
  110.1303  241.8435  315.4897 LP  0  0  0  0  0  0  0  0  0  0  0  0  # atno 13542 bound_to 5598
  110.6433  238.1228  317.8452 LP  0  0  0  0  0  0  0  0  0  0  0  0  # atno 13543 bound_to 5639
  112.1243  237.5583  317.1465 LP  0  0  0  0  0  0  0  0  0  0  0  0  # atno 13544 bound_to 5639
  110.4467  239.6828  314.6814 LP  0  0  0  0  0  0  0  0  0  0  0  0  # atno 13545 bound_to 5636
  117.0140  235.4632  327.6678 LP  0  0  0  0  0  0  0  0  0  0  0  0  # atno 13546 bound_to 9206
  112.9130  234.9393  328.7560 LP  0  0  0  0  0  0  0  0  0  0  0  0  # atno 13547 bound_to 9338
  116.3599  235.3532  330.5041 LP  0  0  0  0  0  0  0  0  0  0  0  0  # atno 13548 bound_to 9150
  115.8960  236.9992  330.2289 LP  0  0  0  0  0  0  0  0  0  0  0  0  # atno 13549 bound_to 9150
  113.8764  232.2223  327.3674 LP  0  0  0  0  0  0  0  0  0  0  0  0  # atno 13550 bound_to 9209
  113.5807  233.5710  328.4132 LP  0  0  0  0  0  0  0  0  0  0  0  0  # atno 13551 bound_to 9209
  115.5619  233.3733  327.9348 LP  0  0  0  0  0  0  0  0  0  0  0  0  # atno 13552 bound_to 9240
  113.3989  234.5286  331.0589 LP  0  0  0  0  0  0  0  0  0  0  0  0  # atno 13553 bound_to 9293
  109.7691  234.3813  329.5823 LP  0  0  0  0  0  0  0  0  0  0  0  0  # atno 13554 bound_to 9296
  109.5315  236.0065  330.1322 LP  0  0  0  0  0  0  0  0  0  0  0  0  # atno 13555 bound_to 9296
  119.1421  238.4946  330.2642 LP  0  0  0  0  0  0  0  0  0  0  0  0  # atno 13558 bound_to 9153
  120.6682  238.0246  330.6061 LP  0  0  0  0  0  0  0  0  0  0  0  0  # atno 13559 bound_to 9153
  111.9544  233.5568  332.4673 LP  0  0  0  0  0  0  0  0  0  0  0  0  # atno 13560 bound_to 9260
  112.2960  234.8179  333.6043 LP  0  0  0  0  0  0  0  0  0  0  0  0  # atno 13561 bound_to 9260
  110.0846  232.7507  325.9035 LP  0  0  0  0  0  0  0  0  0  0  0  0  # atno 13565 bound_to 9341
  110.9767  231.4004  326.5206 LP  0  0  0  0  0  0  0  0  0  0  0  0  # atno 13566 bound_to 9341
  110.5390  233.1239  328.3788 LP  0  0  0  0  0  0  0  0  0  0  0  0  # atno 13567 bound_to 9366
  104.0450  238.6501  332.1180 LP  0  0  0  0  0  0  0  0  0  0  0  0  # atno 13568 bound_to 9481
  104.4101  238.0819  330.6312 LP  0  0  0  0  0  0  0  0  0  0  0  0  # atno 13569 bound_to 9481
  108.2071  240.8329  316.0406 LP  0  0  0  0  0  0  0  0  0  0  0  0  # atno 13572 bound_to 5568
  108.5419  241.2564  314.3948 LP  0  0  0  0  0  0  0  0  0  0  0  0  # atno 13573 bound_to 5568
  109.8940  236.1492  315.5821 LP  0  0  0  0  0  0  0  0  0  0  0  0  # atno 13574 bound_to 5677
  118.9388  235.6302  316.7148 LP  0  0  0  0  0  0  0  0  0  0  0  0  # atno 13575 bound_to 8360
  108.6310  245.2953  315.6612 LP  0  0  0  0  0  0  0  0  0  0  0  0  # atno 13576 bound_to 8481
  110.0154  244.4515  315.8559 LP  0  0  0  0  0  0  0  0  0  0  0  0  # atno 13577 bound_to 8481

> <Gold.Score>
     Fitness  S(hb_ext) S(vdw_ext)  S(hb_int)    S(int)      intcor
     38.18       3.36      26.55       0.00      -1.69      -0.79

> <Gold.Goldscore.Fitness>
38.1781

> <Gold.Goldscore.Internal.Vdw>
-1.8906

> <Gold.Goldscore.Internal.Torsion>
-0.5862

> <Gold.Goldscore.External.Vdw>
26.5536

> <Gold.Goldscore.Internal.HBond>
0.0000

> <Gold.Goldscore.External.HBond>
3.3588

> <Gold.Goldscore.Internal.Correction>
-0.7850

> <Gold.Goldscore.Hbonds>
donor molecule, donor type, donor heavy atom, donor atom, acceptor molecule, acceptor atom, score
      L1  H     8    22       P1 13389  0.56

> <Gold.Goldscore.Internal.Vdw.Weighted>
-1.8906

> <Gold.Goldscore.Internal.Torsion.Weighted>
-0.5862

> <Gold.Goldscore.External.Vdw.Weighted>
36.5112

> <Gold.Goldscore.Internal.HBond.Weighted>
0.0000

> <Gold.Goldscore.External.HBond.Weighted>
3.3588

> <Gold.Goldscore.Internal.Correction.Weighted>
-0.7850

> <Gold.Rescore>
     Score     S(PLP)   S(hbond)     S(cho)   S(metal)  DE(clash)   DE(tors)     intcor
     38.89     -37.95       0.99       0.00       0.00       0.19       0.92       ----

> <Gold.PLP.Fitness>
38.8869

> <Gold.PLP.PLP>
-37.9525

> <Gold.PLP.part.hbond>
-1.0000

> <Gold.PLP.part.metal>
0.0000

> <Gold.PLP.part.buried>
-2.9393

> <Gold.PLP.part.nonpolar>
-41.4827

> <Gold.PLP.part.repulsive>
6.3085

> <Gold.PLP.ligand.clash>
0.1919

> <Gold.PLP.ligand.torsion>
0.9237

> <Gold.PLP.Chemscore.Hbond>
0.9913

> <Gold.PLP.Chemscore.CHOScore>
0.0000

> <Gold.PLP.Chemscore.Metal>
0.0000

> <Gold.Chemscore.Hbonds>
donor molecule, donor type, donor heavy atom, donor atom, acceptor molecule, acceptor atom, score
      L1  H     8    22       P1 13389  1.00

> <Gold.PLP.Chemscore.Internal.Correction>
   9.000000E+99

