#       Name:                CT1002167954
#       Creating user name   hitesit
#       Creation time:       Sun Apr 16 02:22:58 2023


#       File generated by GOLD software.
#

@<TRIPOS>MOLECULE
CT1002167954|ligand_prepared|mol2|1|dock7
    29    30     1
SMALL
NO_CHARGES


@<TRIPOS>ATOM
      1 C1         110.6467 244.8034 323.8041 C.3            1 RES1               0.0000
      2 C2         111.9799 244.0721 323.5463 C.ar           1 RES1               0.0000
      3 C3         110.9349 245.8566 324.8699 C.2            1 RES1               0.0000
      4 C4         110.2097 245.3798 322.4619 C.2            1 RES1               0.0000
      5 C5         109.5172 243.8806 324.3182 C.3            1 RES1               0.0000
      6 C6         113.1203 244.7837 323.1859 C.ar           1 RES1               0.0000
      7 C7         112.0855 242.6890 323.6672 C.ar           1 RES1               0.0000
      8 N8         110.9921 247.1596 324.4714 N.am           1 RES1               0.0000
      9 O9         111.1479 245.5450 326.0351 O.2            1 RES1               0.0000
     10 N10        110.1711 246.7433 322.3307 N.am           1 RES1               0.0000
     11 O11        109.9146 244.6656 321.5116 O.2            1 RES1               0.0000
     12 C12        108.2210 244.6126 324.6285 C.3            1 RES1               0.0000
     13 C13        114.3234 244.1366 322.9576 C.ar           1 RES1               0.0000
     14 C14        113.2895 242.0438 323.4382 C.ar           1 RES1               0.0000
     15 C15        110.5719 247.6592 323.2649 C.2            1 RES1               0.0000
     16 C16        114.4089 242.7664 323.0839 C.ar           1 RES1               0.0000
     17 O17        110.5588 248.8684 323.0532 O.2            1 RES1               0.0000
     18 H18        109.3165 243.1126 323.5611 H              1 RES1               0.0000
     19 H19        109.8623 243.3730 325.2274 H              1 RES1               0.0000
     20 H20        113.0716 245.8623 323.0792 H              1 RES1               0.0000
     21 H21        111.2176 242.1001 323.9437 H              1 RES1               0.0000
     22 H22        111.3837 247.8240 325.1313 H              1 RES1               0.0000
     23 H23        109.8098 247.1094 321.4556 H              1 RES1               0.0000
     24 H24        107.4623 243.9191 324.9853 H              1 RES1               0.0000
     25 H25        108.3783 245.3672 325.3963 H              1 RES1               0.0000
     26 H26        107.8358 245.1084 323.7399 H              1 RES1               0.0000
     27 H27        115.2011 244.7097 322.6777 H              1 RES1               0.0000
     28 H28        113.3521 240.9652 323.5382 H              1 RES1               0.0000
     29 H29        115.3516 242.2597 322.9054 H              1 RES1               0.0000
@<TRIPOS>BOND
    1    1    2 1     
    2    1    3 1     
    3    1    4 1     
    4    1    5 1     
    5    2    6 ar    
    6    2    7 ar    
    7    3    8 1     
    8    3    9 2     
    9    4   10 1     
   10    4   11 2     
   11    5   12 1     
   12    5   18 1     
   13    5   19 1     
   14    6   13 ar    
   15    6   20 1     
   16    7   14 ar    
   17    7   21 1     
   18    8   15 1     
   19    8   22 1     
   20   10   15 1     
   21   10   23 1     
   22   12   24 1     
   23   12   25 1     
   24   12   26 1     
   25   13   16 ar    
   26   13   27 1     
   27   14   16 ar    
   28   14   28 1     
   29   15   17 2     
   30   16   29 1     
@<TRIPOS>SUBSTRUCTURE
      1 RES1           1
@<TRIPOS>SET
DONOR_HYDROGENS      STATIC     ATOMS    <user>   **** ""
2 22 23
ATOM$RED        STATIC     ATOMS    COLORGROUP SYSTEM
2 22 23
@<TRIPOS>COMMENT
> <Gold.Version>
2022.3.0

> <Gold.Id.Protein>
unknown|6ng7_clean|pdb

> <Gold.Protein.RotatedTorsions>
[ 3576 3563 3564 3565 ] final   18.87 input  100.79 | X-H torsion
[ 3599 3592 3593 3594 ] final   12.70 input   89.00 | X-H torsion
[ 8433 8423 8424 8425 ] final  125.55 input   34.47 | X-H torsion
[ 8461 8445 8446 8447 ] final  -29.40 input   99.97 | X-H torsion
[ 8999 8992 8993 8994 ] final   27.11 input   33.19 | X-H torsion
[ 9040 9016 9017 9018 ] final  -17.98 input   39.09 | X-H torsion
[ 9083 9062 9063 9064 ] final   96.54 input   97.54 | X-H torsion
[ 9091 9073 9072 9070 ] final   59.42 input   60.01 | X-H torsion
[ 9114 9100 9101 9102 ] final  107.12 input   92.58 | X-H torsion
[ 9186 9177 9178 9179 ] final -123.19 input  115.65 | X-H torsion
[ 8983 8972 8973 8974 ] final -124.56 input   31.13 | X-H torsion
[ 9134 9130 9131 9132 ] final   69.22 input  123.92 | X-H torsion
[ 11050 11043 11044 11045 ] final -124.82 input   53.30 | X-H torsion
[ 4890 4885 4884 4881 ] final  -62.36 input   60.01 | X-H torsion
[ 8987 8977 8976 8973 ] final  131.81 input   59.99 | X-H torsion
[ 8957 8937 8938 8939 ] final -121.32 input   44.56 | X-H torsion
[ 4906 4901 4902 4903 ] final  -51.31 input   21.77 | X-H torsion
[ 8487 8476 8477 8478 ] final  -69.68 input   54.71 | X-H torsion
[ 5574 5565 5566 5567 ] final  -70.17 input   53.40 | X-H torsion
[ 8328 8319 8318 8316 ] final    2.05 input   60.03 | X-H torsion
[ 5550 5545 5544 5541 ] final   20.26 input   59.98 | X-H torsion
[ 5606 5598 5599 5600 ] final   17.79 input  117.00 | X-H torsion
[ 5644 5636 5637 5638 ] final   70.27 input   61.23 | X-H torsion
[ 9214 9206 9207 9208 ] final  -95.81 input   98.56 | X-H torsion
[ 9346 9338 9339 9340 ] final -140.92 input  104.10 | X-H torsion
[ 9244 9240 9241 9242 ] final  -16.21 input   92.42 | X-H torsion
[ 9304 9293 9294 9295 ] final  -18.91 input   83.70 | X-H torsion
[ 9160 9153 9151 9148 ] final   27.16 input   60.00 | X-H torsion
[ 9378 9366 9367 9368 ] final   74.14 input   40.32 | X-H torsion
[ 9486 9481 9480 9477 ] final  -84.69 input   60.00 | X-H torsion
[ 5688 5677 5678 5679 ] final   73.48 input   32.59 | X-H torsion
[ 8379 8360 8361 8362 ] final -139.40 input   69.42 | X-H torsion
[ 8491 8481 8480 8477 ] final  125.01 input   60.01 | X-H torsion
[ 8514 8500 8501 8502 ] final   69.10 input   65.89 | X-H torsion
[ 9264 9257 9258 9259 ] final  102.23 input   80.62 | X-H torsion
[ 9434 9426 9427 9428 ] final -105.86 input  124.27 | X-H torsion
[ 13470 8400 8399 8398 ] final   26.85 input   -0.00 | X-H torsion
[ 13474 8940 8939 8938 ] final   39.86 input   -0.00 | X-H torsion
[ 13477 8995 8994 8993 ] final  103.00 input    0.00 | X-H torsion
[ 13480 9019 9018 9017 ] final   23.16 input   -0.00 | X-H torsion
[ 13483 9065 9064 9063 ] final  -99.85 input   -0.00 | X-H torsion
[ 13488 9103 9102 9101 ] final -166.18 input    0.00 | X-H torsion
[ 13500 8975 8974 8973 ] final  164.52 input    0.00 | X-H torsion
[ 13502 8345 8344 8343 ] final  -32.42 input   -0.00 | X-H torsion
[ 13506 11046 11045 11044 ] final   10.86 input    0.00 | X-H torsion
[ 13510 8363 8362 8361 ] final  -84.37 input    0.00 | X-H torsion
[ 13512 8426 8425 8424 ] final  -66.13 input   -0.00 | X-H torsion
[ 13516 8448 8447 8446 ] final  -10.00 input   -0.00 | X-H torsion
[ 13521 3502 3501 3500 ] final   72.13 input    0.00 | X-H torsion
[ 13524 4904 4903 4902 ] final  -67.71 input    0.00 | X-H torsion
[ 13529 5543 5542 5541 ] final -102.74 input   -0.00 | X-H torsion
[ 13534 9180 9179 9178 ] final   28.08 input    0.00 | X-H torsion
[ 13543 5639 5638 5637 ] final -108.80 input    0.00 | X-H torsion
[ 13548 9150 9149 9148 ] final   86.47 input    0.00 | X-H torsion
[ 13550 9209 9208 9207 ] final  -73.31 input    0.00 | X-H torsion
[ 13554 9296 9295 9294 ] final  104.88 input    0.00 | X-H torsion
[ 13560 9260 9259 9258 ] final  130.76 input    0.00 | X-H torsion
[ 13565 9341 9340 9339 ] final  -98.74 input    0.00 | X-H torsion
[ 13572 5568 5567 5566 ] final  -71.37 input    0.00 | X-H torsion

> <Gold.Protein.ActiveResidues>
 TRP311  MET341  TRP414  ARG419  CYS420  VAL421  GLY422  LEU429  LEU460  SER462 
 ALA463  ILE464  SER482  GLN483  LEU484  ILE485  ARG486  ASP500  ALA502  ASN503 
 TRP566  TYR567  GLY568  LEU569  PRO570  ALA571  VAL572  SER573  ASN574  MET575 
 PRO588  PHE589  SER590  GLY591  TRP592  TYR593  MET594  GLY595  THR596  GLU597 
 ILE598  GLY599  VAL600  ARG601  ASP602  TYR603  ASP605  SER607  ARG608  ILE653 
 VAL654  TRP683  PRO687  SER691  PHE696  HIS697  TYR711  HEM802  H4B803 

> <Gold.Protein.RotatedAtoms>
  121.9231  247.5091  327.2199 H   0  0  0  0  0  0  0  0  0  0  0  0  # atno 3576 bound_to 3563
  123.7777  247.9153  326.4797 H   0  0  0  0  0  0  0  0  0  0  0  0  # atno 3599 bound_to 3592
  124.2668  245.0367  317.4717 H   0  0  0  0  0  0  0  0  0  0  0  0  # atno 4890 bound_to 4885
  122.5698  246.8015  314.4360 H   0  0  0  0  0  0  0  0  0  0  0  0  # atno 4906 bound_to 4901
  107.2710  242.2919  319.1455 H   0  0  0  0  0  0  0  0  0  0  0  0  # atno 5550 bound_to 5545
  108.2940  243.6307  317.0740 H   0  0  0  0  0  0  0  0  0  0  0  0  # atno 5574 bound_to 5565
  111.1052  241.2124  315.6996 H   0  0  0  0  0  0  0  0  0  0  0  0  # atno 5606 bound_to 5598
  111.9419  239.5680  315.0923 H   0  0  0  0  0  0  0  0  0  0  0  0  # atno 5644 bound_to 5636
  108.7679  237.2300  315.3610 H   0  0  0  0  0  0  0  0  0  0  0  0  # atno 5688 bound_to 5677
  111.9197  237.4047  320.4211 H   0  0  0  0  0  0  0  0  0  0  0  0  # atno 8328 bound_to 8319
  118.9661  235.6036  316.5797 H   0  0  0  0  0  0  0  0  0  0  0  0  # atno 8379 bound_to 8360
  115.4317  240.8223  317.2006 H   0  0  0  0  0  0  0  0  0  0  0  0  # atno 8433 bound_to 8423
  114.2216  244.5235  316.6563 H   0  0  0  0  0  0  0  0  0  0  0  0  # atno 8461 bound_to 8445
  111.8114  246.9666  317.3398 H   0  0  0  0  0  0  0  0  0  0  0  0  # atno 8487 bound_to 8476
  108.5377  244.8200  314.7588 H   0  0  0  0  0  0  0  0  0  0  0  0  # atno 8491 bound_to 8481
  109.8137  247.8237  317.9104 H   0  0  0  0  0  0  0  0  0  0  0  0  # atno 8514 bound_to 8500
  115.3304  247.8216  313.7211 H   0  0  0  0  0  0  0  0  0  0  0  0  # atno 8957 bound_to 8937
  117.7502  246.3247  315.9906 H   0  0  0  0  0  0  0  0  0  0  0  0  # atno 8983 bound_to 8972
  119.7981  242.6779  313.6474 H   0  0  0  0  0  0  0  0  0  0  0  0  # atno 8987 bound_to 8977
  119.7780  242.7476  317.5944 H   0  0  0  0  0  0  0  0  0  0  0  0  # atno 8999 bound_to 8992
  121.8722  241.9571  319.8208 H   0  0  0  0  0  0  0  0  0  0  0  0  # atno 9040 bound_to 9016
  121.8827  237.7869  320.9269 H   0  0  0  0  0  0  0  0  0  0  0  0  # atno 9083 bound_to 9062
  114.3822  236.3269  321.4527 H   0  0  0  0  0  0  0  0  0  0  0  0  # atno 9091 bound_to 9073
  120.9799  239.7525  325.0004 H   0  0  0  0  0  0  0  0  0  0  0  0  # atno 9114 bound_to 9100
  122.4179  236.6484  328.0079 H   0  0  0  0  0  0  0  0  0  0  0  0  # atno 9134 bound_to 9130
  119.3805  238.3220  330.0755 H   0  0  0  0  0  0  0  0  0  0  0  0  # atno 9160 bound_to 9153
  117.9642  237.4730  329.4671 H   0  0  0  0  0  0  0  0  0  0  0  0  # atno 9186 bound_to 9177
  115.9633  236.3358  326.9408 H   0  0  0  0  0  0  0  0  0  0  0  0  # atno 9214 bound_to 9206
  115.7633  233.9817  328.6644 H   0  0  0  0  0  0  0  0  0  0  0  0  # atno 9244 bound_to 9240
  116.2553  234.3013  330.7522 H   0  0  0  0  0  0  0  0  0  0  0  0  # atno 9264 bound_to 9257
  113.4377  234.5478  330.7928 H   0  0  0  0  0  0  0  0  0  0  0  0  # atno 9304 bound_to 9293
  111.6886  236.1163  328.7160 H   0  0  0  0  0  0  0  0  0  0  0  0  # atno 9346 bound_to 9338
  112.0234  232.9642  329.2385 H   0  0  0  0  0  0  0  0  0  0  0  0  # atno 9378 bound_to 9366
  109.8028  233.4671  333.4863 H   0  0  0  0  0  0  0  0  0  0  0  0  # atno 9434 bound_to 9426
  104.4885  237.8978  332.4993 H   0  0  0  0  0  0  0  0  0  0  0  0  # atno 9486 bound_to 9481
  126.1548  236.1032  323.8315 H   0  0  0  0  0  0  0  0  0  0  0  0  # atno 11050 bound_to 11043
  121.5388  248.1916  328.7826 LP  0  0  0  0  0  0  0  0  0  0  0  0  # atno 13467 bound_to 3563
  123.6483  246.2282  326.9225 LP  0  0  0  0  0  0  0  0  0  0  0  0  # atno 13468 bound_to 3592
  118.4667  241.5158  317.5034 LP  0  0  0  0  0  0  0  0  0  0  0  0  # atno 13470 bound_to 8400
  117.5512  242.9860  317.4918 LP  0  0  0  0  0  0  0  0  0  0  0  0  # atno 13471 bound_to 8400
  115.4093  241.9637  318.5209 LP  0  0  0  0  0  0  0  0  0  0  0  0  # atno 13472 bound_to 8423
  114.9606  244.5918  318.2394 LP  0  0  0  0  0  0  0  0  0  0  0  0  # atno 13473 bound_to 8445
  115.4718  245.7301  316.0247 LP  0  0  0  0  0  0  0  0  0  0  0  0  # atno 13474 bound_to 8940
  116.6260  245.3198  317.2492 LP  0  0  0  0  0  0  0  0  0  0  0  0  # atno 13475 bound_to 8940
  120.3209  244.1986  316.7842 LP  0  0  0  0  0  0  0  0  0  0  0  0  # atno 13476 bound_to 8992
  122.5155  240.4561  316.6492 LP  0  0  0  0  0  0  0  0  0  0  0  0  # atno 13477 bound_to 8995
  120.8209  240.6435  316.9545 LP  0  0  0  0  0  0  0  0  0  0  0  0  # atno 13478 bound_to 8995
  122.9306  241.6247  318.4702 LP  0  0  0  0  0  0  0  0  0  0  0  0  # atno 13479 bound_to 9016
  121.8306  241.7146  321.3810 LP  0  0  0  0  0  0  0  0  0  0  0  0  # atno 13480 bound_to 9019
  121.9439  240.7137  322.7900 LP  0  0  0  0  0  0  0  0  0  0  0  0  # atno 13481 bound_to 9019
  121.8729  239.5144  321.1917 LP  0  0  0  0  0  0  0  0  0  0  0  0  # atno 13482 bound_to 9062
  123.3135  236.9786  324.1579 LP  0  0  0  0  0  0  0  0  0  0  0  0  # atno 13483 bound_to 9065
  123.8388  238.4441  323.3987 LP  0  0  0  0  0  0  0  0  0  0  0  0  # atno 13484 bound_to 9065
  114.6419  237.6335  320.5180 LP  0  0  0  0  0  0  0  0  0  0  0  0  # atno 13485 bound_to 9073
  114.2657  237.8170  322.0964 LP  0  0  0  0  0  0  0  0  0  0  0  0  # atno 13486 bound_to 9073
  121.7127  238.3517  324.2530 LP  0  0  0  0  0  0  0  0  0  0  0  0  # atno 13487 bound_to 9100
  119.4320  236.6292  327.1957 LP  0  0  0  0  0  0  0  0  0  0  0  0  # atno 13488 bound_to 9103
  119.5347  238.0275  326.1788 LP  0  0  0  0  0  0  0  0  0  0  0  0  # atno 13489 bound_to 9103
  118.4624  236.5792  328.0512 LP  0  0  0  0  0  0  0  0  0  0  0  0  # atno 13490 bound_to 9177
  119.0767  246.2085  314.8632 LP  0  0  0  0  0  0  0  0  0  0  0  0  # atno 13499 bound_to 8972
  121.9669  245.2716  316.6018 LP  0  0  0  0  0  0  0  0  0  0  0  0  # atno 13500 bound_to 8975
  120.8966  245.7868  315.3412 LP  0  0  0  0  0  0  0  0  0  0  0  0  # atno 13501 bound_to 8975
  120.3896  235.7996  318.5783 LP  0  0  0  0  0  0  0  0  0  0  0  0  # atno 13502 bound_to 8345
  120.3444  237.0036  317.3340 LP  0  0  0  0  0  0  0  0  0  0  0  0  # atno 13503 bound_to 8345
  121.8383  236.6882  326.3609 LP  0  0  0  0  0  0  0  0  0  0  0  0  # atno 13504 bound_to 9130
  124.8100  237.0064  324.4831 LP  0  0  0  0  0  0  0  0  0  0  0  0  # atno 13505 bound_to 11043
  124.1018  237.0671  326.2830 LP  0  0  0  0  0  0  0  0  0  0  0  0  # atno 13506 bound_to 11046
  124.2416  236.7771  327.9848 LP  0  0  0  0  0  0  0  0  0  0  0  0  # atno 13507 bound_to 11046
  125.4428  246.1174  317.7819 LP  0  0  0  0  0  0  0  0  0  0  0  0  # atno 13508 bound_to 4885
  125.7596  244.8009  316.8692 LP  0  0  0  0  0  0  0  0  0  0  0  0  # atno 13509 bound_to 4885
  115.6173  238.9166  315.9019 LP  0  0  0  0  0  0  0  0  0  0  0  0  # atno 13510 bound_to 8363
  115.3460  237.6816  317.0856 LP  0  0  0  0  0  0  0  0  0  0  0  0  # atno 13511 bound_to 8363
  112.6244  243.2550  315.6939 LP  0  0  0  0  0  0  0  0  0  0  0  0  # atno 13512 bound_to 8426
  112.2321  243.0130  317.3635 LP  0  0  0  0  0  0  0  0  0  0  0  0  # atno 13513 bound_to 8426
  120.1457  244.1890  314.1415 LP  0  0  0  0  0  0  0  0  0  0  0  0  # atno 13514 bound_to 8977
  118.9161  243.9305  313.0985 LP  0  0  0  0  0  0  0  0  0  0  0  0  # atno 13515 bound_to 8977
  114.2578  247.3756  316.5465 LP  0  0  0  0  0  0  0  0  0  0  0  0  # atno 13516 bound_to 8448
  112.9866  247.6137  315.3944 LP  0  0  0  0  0  0  0  0  0  0  0  0  # atno 13517 bound_to 8448
  114.9515  247.7044  315.4232 LP  0  0  0  0  0  0  0  0  0  0  0  0  # atno 13518 bound_to 8937
  117.7767  248.4701  328.6619 LP  0  0  0  0  0  0  0  0  0  0  0  0  # atno 13521 bound_to 3502
  119.2146  248.2716  329.6069 LP  0  0  0  0  0  0  0  0  0  0  0  0  # atno 13522 bound_to 3502
  122.7498  245.3668  313.4615 LP  0  0  0  0  0  0  0  0  0  0  0  0  # atno 13523 bound_to 4901
  119.5305  246.4648  313.5796 LP  0  0  0  0  0  0  0  0  0  0  0  0  # atno 13524 bound_to 4904
  119.8723  247.9218  314.4516 LP  0  0  0  0  0  0  0  0  0  0  0  0  # atno 13525 bound_to 4904
  111.1378  245.4218  316.8759 LP  0  0  0  0  0  0  0  0  0  0  0  0  # atno 13526 bound_to 8476
  109.8118  245.3469  317.3945 LP  0  0  0  0  0  0  0  0  0  0  0  0  # atno 13529 bound_to 5543
  109.6520  245.0897  319.0998 LP  0  0  0  0  0  0  0  0  0  0  0  0  # atno 13530 bound_to 5543
  108.2346  242.3604  318.2796 LP  0  0  0  0  0  0  0  0  0  0  0  0  # atno 13531 bound_to 5565
  111.3580  236.0348  321.0966 LP  0  0  0  0  0  0  0  0  0  0  0  0  # atno 13532 bound_to 8319
  110.5693  236.7100  319.8361 LP  0  0  0  0  0  0  0  0  0  0  0  0  # atno 13533 bound_to 8319
  114.1536  237.5307  327.0882 LP  0  0  0  0  0  0  0  0  0  0  0  0  # atno 13534 bound_to 9180
  114.0143  235.8135  327.2673 LP  0  0  0  0  0  0  0  0  0  0  0  0  # atno 13535 bound_to 9180
  105.7355  242.2700  319.6844 LP  0  0  0  0  0  0  0  0  0  0  0  0  # atno 13540 bound_to 5545
  106.9667  242.5161  320.7285 LP  0  0  0  0  0  0  0  0  0  0  0  0  # atno 13541 bound_to 5545
  110.8421  242.8077  315.0486 LP  0  0  0  0  0  0  0  0  0  0  0  0  # atno 13542 bound_to 5598
  111.5584  237.0096  317.6663 LP  0  0  0  0  0  0  0  0  0  0  0  0  # atno 13543 bound_to 5639
  111.2093  238.6715  317.3254 LP  0  0  0  0  0  0  0  0  0  0  0  0  # atno 13544 bound_to 5639
  110.6419  239.5936  313.9199 LP  0  0  0  0  0  0  0  0  0  0  0  0  # atno 13545 bound_to 5636
  117.4507  235.4217  326.9960 LP  0  0  0  0  0  0  0  0  0  0  0  0  # atno 13546 bound_to 9206
  112.6794  234.7017  329.0219 LP  0  0  0  0  0  0  0  0  0  0  0  0  # atno 13547 bound_to 9338
  116.2124  236.8914  330.8475 LP  0  0  0  0  0  0  0  0  0  0  0  0  # atno 13548 bound_to 9150
  116.0434  235.4610  329.8855 LP  0  0  0  0  0  0  0  0  0  0  0  0  # atno 13549 bound_to 9150
  113.4913  233.7040  328.0952 LP  0  0  0  0  0  0  0  0  0  0  0  0  # atno 13550 bound_to 9209
  113.9658  232.0894  327.6854 LP  0  0  0  0  0  0  0  0  0  0  0  0  # atno 13551 bound_to 9209
  116.9487  233.0801  327.7422 LP  0  0  0  0  0  0  0  0  0  0  0  0  # atno 13552 bound_to 9240
  114.1118  235.9944  331.5211 LP  0  0  0  0  0  0  0  0  0  0  0  0  # atno 13553 bound_to 9293
  109.4448  235.8386  329.3168 LP  0  0  0  0  0  0  0  0  0  0  0  0  # atno 13554 bound_to 9296
  109.8558  234.5492  330.3977 LP  0  0  0  0  0  0  0  0  0  0  0  0  # atno 13555 bound_to 9296
  120.7492  238.1231  330.9330 LP  0  0  0  0  0  0  0  0  0  0  0  0  # atno 13558 bound_to 9153
  119.4723  238.8959  331.5955 LP  0  0  0  0  0  0  0  0  0  0  0  0  # atno 13559 bound_to 9153
  111.8874  235.0148  333.1296 LP  0  0  0  0  0  0  0  0  0  0  0  0  # atno 13560 bound_to 9260
  112.3629  233.3599  332.9420 LP  0  0  0  0  0  0  0  0  0  0  0  0  # atno 13561 bound_to 9260
  109.7081  232.1563  326.4705 LP  0  0  0  0  0  0  0  0  0  0  0  0  # atno 13565 bound_to 9341
  111.3533  231.9949  325.9536 LP  0  0  0  0  0  0  0  0  0  0  0  0  # atno 13566 bound_to 9341
  110.6800  233.0214  328.1138 LP  0  0  0  0  0  0  0  0  0  0  0  0  # atno 13567 bound_to 9366
  104.0050  238.7405  331.1941 LP  0  0  0  0  0  0  0  0  0  0  0  0  # atno 13568 bound_to 9481
  104.8437  237.3517  331.0083 LP  0  0  0  0  0  0  0  0  0  0  0  0  # atno 13569 bound_to 9481
  108.5139  240.3841  315.7601 LP  0  0  0  0  0  0  0  0  0  0  0  0  # atno 13572 bound_to 5568
  108.2351  241.7052  314.6753 LP  0  0  0  0  0  0  0  0  0  0  0  0  # atno 13573 bound_to 5568
  110.3049  236.6453  315.9660 LP  0  0  0  0  0  0  0  0  0  0  0  0  # atno 13574 bound_to 5677
  117.2218  235.6977  316.6097 LP  0  0  0  0  0  0  0  0  0  0  0  0  # atno 13575 bound_to 8360
  109.3050  245.1283  316.1609 LP  0  0  0  0  0  0  0  0  0  0  0  0  # atno 13576 bound_to 8481
  109.9329  244.0551  315.1023 LP  0  0  0  0  0  0  0  0  0  0  0  0  # atno 13577 bound_to 8481

> <Gold.Score>
     Fitness  S(hb_ext) S(vdw_ext)  S(hb_int)    S(int)      intcor
     34.31      11.27      16.81       0.00      -0.07      -0.76

> <Gold.Goldscore.Fitness>
34.3138

> <Gold.Goldscore.Internal.Vdw>
-0.4484

> <Gold.Goldscore.Internal.Torsion>
-0.3777

> <Gold.Goldscore.External.Vdw>
16.8111

> <Gold.Goldscore.Internal.HBond>
0.0000

> <Gold.Goldscore.External.HBond>
11.2661

> <Gold.Goldscore.Internal.Correction>
-0.7585

> <Gold.Goldscore.Hbonds>
donor molecule, donor type, donor heavy atom, donor atom, acceptor molecule, acceptor atom, score
      P1  H  5572  5581       L1    11  0.20
      L1  H     8    22       P1 13390  0.81
      L1  H    10    23       P1  8507  1.00

> <Gold.Goldscore.Internal.Vdw.Weighted>
-0.4484

> <Gold.Goldscore.Internal.Torsion.Weighted>
-0.3777

> <Gold.Goldscore.External.Vdw.Weighted>
23.1153

> <Gold.Goldscore.Internal.HBond.Weighted>
0.0000

> <Gold.Goldscore.External.HBond.Weighted>
11.2661

> <Gold.Goldscore.Internal.Correction.Weighted>
-0.7585

> <Gold.Rescore>
     Score     S(PLP)   S(hbond)     S(cho)   S(metal)  DE(clash)   DE(tors)     intcor
     31.76     -26.33       1.84       0.00       0.00       0.00       0.04       ----

> <Gold.PLP.Fitness>
31.7569

> <Gold.PLP.PLP>
-26.3269

> <Gold.PLP.part.hbond>
-2.0000

> <Gold.PLP.part.metal>
0.0000

> <Gold.PLP.part.buried>
-2.1247

> <Gold.PLP.part.nonpolar>
-23.5329

> <Gold.PLP.part.repulsive>
1.3051

> <Gold.PLP.ligand.clash>
0.0000

> <Gold.PLP.ligand.torsion>
0.0385

> <Gold.PLP.Chemscore.Hbond>
1.8357

> <Gold.PLP.Chemscore.CHOScore>
0.0000

> <Gold.PLP.Chemscore.Metal>
0.0000

> <Gold.Chemscore.Hbonds>
donor molecule, donor type, donor heavy atom, donor atom, acceptor molecule, acceptor atom, score
      L1  H     8    22       P1 13390  0.76
      L1  H    10    23       P1  8507  1.00

> <Gold.PLP.Chemscore.Internal.Correction>
   9.000000E+99

