#       Name:                CT1002167954
#       Creating user name   hitesit
#       Creation time:       Sun Apr 16 02:22:56 2023


#       File generated by GOLD software.
#

@<TRIPOS>MOLECULE
CT1002167954|ligand_prepared|mol2|1|dock5
    29    30     1
SMALL
NO_CHARGES


@<TRIPOS>ATOM
      1 C1         114.7229 242.3432 323.2926 C.3            1 RES1               0.0000
      2 C2         116.2363 242.5968 323.1378 C.ar           1 RES1               0.0000
      3 C3         114.1408 242.3503 321.8821 C.2            1 RES1               0.0000
      4 C4         114.5859 241.0077 324.0155 C.2            1 RES1               0.0000
      5 C5         113.9918 243.4175 324.1311 C.3            1 RES1               0.0000
      6 C6         117.1191 241.5345 322.9676 C.ar           1 RES1               0.0000
      7 C7         116.7633 243.8854 323.1605 C.ar           1 RES1               0.0000
      8 N8         113.7753 241.1519 321.3434 N.am           1 RES1               0.0000
      9 O9         114.0408 243.3869 321.2374 O.2            1 RES1               0.0000
     10 N10        114.0206 239.9629 323.3324 N.am           1 RES1               0.0000
     11 O11        114.9775 240.8463 325.1647 O.2            1 RES1               0.0000
     12 C12        112.5582 243.0512 324.4813 C.3            1 RES1               0.0000
     13 C13        118.4791 241.7526 322.8223 C.ar           1 RES1               0.0000
     14 C14        118.1238 244.1012 323.0153 C.ar           1 RES1               0.0000
     15 C15        113.6372 239.9660 322.0189 C.2            1 RES1               0.0000
     16 C16        118.9823 243.0359 322.8456 C.ar           1 RES1               0.0000
     17 O17        113.1870 238.9703 321.4594 O.2            1 RES1               0.0000
     18 H18        114.5515 243.5814 325.0602 H              1 RES1               0.0000
     19 H19        113.9884 244.3607 323.5709 H              1 RES1               0.0000
     20 H20        116.7418 240.5175 322.9491 H              1 RES1               0.0000
     21 H21        116.1069 244.7386 323.2939 H              1 RES1               0.0000
     22 H22        113.5874 241.1360 320.3461 H              1 RES1               0.0000
     23 H23        113.8717 239.1033 323.8512 H              1 RES1               0.0000
     24 H24        112.0916 243.8385 325.0696 H              1 RES1               0.0000
     25 H25        111.9662 242.9054 323.5802 H              1 RES1               0.0000
     26 H26        112.5258 242.1308 325.0607 H              1 RES1               0.0000
     27 H27        119.1507 240.9107 322.6903 H              1 RES1               0.0000
     28 H28        118.5155 245.1128 323.0349 H              1 RES1               0.0000
     29 H29        120.0477 243.2065 322.7313 H              1 RES1               0.0000
@<TRIPOS>BOND
    1    1    2 1     
    2    1    3 1     
    3    1    4 1     
    4    1    5 1     
    5    2    6 ar    
    6    2    7 ar    
    7    3    8 1     
    8    3    9 2     
    9    4   10 1     
   10    4   11 2     
   11    5   12 1     
   12    5   18 1     
   13    5   19 1     
   14    6   13 ar    
   15    6   20 1     
   16    7   14 ar    
   17    7   21 1     
   18    8   15 1     
   19    8   22 1     
   20   10   15 1     
   21   10   23 1     
   22   12   24 1     
   23   12   25 1     
   24   12   26 1     
   25   13   16 ar    
   26   13   27 1     
   27   14   16 ar    
   28   14   28 1     
   29   15   17 2     
   30   16   29 1     
@<TRIPOS>SUBSTRUCTURE
      1 RES1           1
@<TRIPOS>SET
DONOR_HYDROGENS      STATIC     ATOMS    <user>   **** ""
2 22 23
ATOM$RED        STATIC     ATOMS    COLORGROUP SYSTEM
2 22 23
@<TRIPOS>COMMENT
> <Gold.Version>
2022.3.0

> <Gold.Id.Protein>
unknown|6ng7_clean|pdb

> <Gold.Protein.RotatedTorsions>
[ 3576 3563 3564 3565 ] final -152.10 input  100.79 | X-H torsion
[ 3599 3592 3593 3594 ] final  -82.27 input   89.00 | X-H torsion
[ 8433 8423 8424 8425 ] final    4.81 input   34.47 | X-H torsion
[ 8461 8445 8446 8447 ] final   18.32 input   99.97 | X-H torsion
[ 8999 8992 8993 8994 ] final -102.42 input   33.19 | X-H torsion
[ 9040 9016 9017 9018 ] final  101.94 input   39.09 | X-H torsion
[ 9083 9062 9063 9064 ] final  172.91 input   97.54 | X-H torsion
[ 9091 9073 9072 9070 ] final  -18.47 input   60.01 | X-H torsion
[ 9114 9100 9101 9102 ] final   34.94 input   92.58 | X-H torsion
[ 9186 9177 9178 9179 ] final  116.28 input  115.65 | X-H torsion
[ 8983 8972 8973 8974 ] final -170.73 input   31.13 | X-H torsion
[ 9134 9130 9131 9132 ] final  -72.63 input  123.92 | X-H torsion
[ 11050 11043 11044 11045 ] final -121.13 input   53.30 | X-H torsion
[ 4890 4885 4884 4881 ] final   32.90 input   60.01 | X-H torsion
[ 8987 8977 8976 8973 ] final -174.41 input   59.99 | X-H torsion
[ 8957 8937 8938 8939 ] final -169.07 input   44.56 | X-H torsion
[ 4906 4901 4902 4903 ] final    7.63 input   21.77 | X-H torsion
[ 8487 8476 8477 8478 ] final   91.29 input   54.71 | X-H torsion
[ 5574 5565 5566 5567 ] final  157.26 input   53.40 | X-H torsion
[ 8328 8319 8318 8316 ] final   -8.33 input   60.03 | X-H torsion
[ 5550 5545 5544 5541 ] final  -89.47 input   59.98 | X-H torsion
[ 5606 5598 5599 5600 ] final  103.60 input  117.00 | X-H torsion
[ 5644 5636 5637 5638 ] final  -50.47 input   61.23 | X-H torsion
[ 9214 9206 9207 9208 ] final  148.19 input   98.56 | X-H torsion
[ 9346 9338 9339 9340 ] final   -3.48 input  104.10 | X-H torsion
[ 9244 9240 9241 9242 ] final   92.50 input   92.42 | X-H torsion
[ 9304 9293 9294 9295 ] final   36.12 input   83.70 | X-H torsion
[ 9160 9153 9151 9148 ] final   44.33 input   60.00 | X-H torsion
[ 9378 9366 9367 9368 ] final  177.90 input   40.32 | X-H torsion
[ 9486 9481 9480 9477 ] final   -7.09 input   60.00 | X-H torsion
[ 5688 5677 5678 5679 ] final   -1.67 input   32.59 | X-H torsion
[ 8379 8360 8361 8362 ] final -114.98 input   69.42 | X-H torsion
[ 8491 8481 8480 8477 ] final -149.80 input   60.01 | X-H torsion
[ 8514 8500 8501 8502 ] final -176.32 input   65.89 | X-H torsion
[ 9264 9257 9258 9259 ] final -136.30 input   80.62 | X-H torsion
[ 9434 9426 9427 9428 ] final  -22.09 input  124.27 | X-H torsion
[ 13470 8400 8399 8398 ] final   34.91 input   -0.00 | X-H torsion
[ 13474 8940 8939 8938 ] final   23.71 input   -0.00 | X-H torsion
[ 13477 8995 8994 8993 ] final  -54.99 input    0.00 | X-H torsion
[ 13480 9019 9018 9017 ] final   51.64 input   -0.00 | X-H torsion
[ 13483 9065 9064 9063 ] final    3.27 input   -0.00 | X-H torsion
[ 13488 9103 9102 9101 ] final  177.34 input    0.00 | X-H torsion
[ 13500 8975 8974 8973 ] final   19.08 input    0.00 | X-H torsion
[ 13502 8345 8344 8343 ] final  117.86 input   -0.00 | X-H torsion
[ 13506 11046 11045 11044 ] final  -29.81 input    0.00 | X-H torsion
[ 13510 8363 8362 8361 ] final  172.22 input    0.00 | X-H torsion
[ 13512 8426 8425 8424 ] final  -24.35 input   -0.00 | X-H torsion
[ 13516 8448 8447 8446 ] final -175.76 input   -0.00 | X-H torsion
[ 13521 3502 3501 3500 ] final  -47.38 input    0.00 | X-H torsion
[ 13524 4904 4903 4902 ] final -167.70 input    0.00 | X-H torsion
[ 13529 5543 5542 5541 ] final  -97.55 input   -0.00 | X-H torsion
[ 13534 9180 9179 9178 ] final   38.30 input    0.00 | X-H torsion
[ 13543 5639 5638 5637 ] final    5.86 input    0.00 | X-H torsion
[ 13548 9150 9149 9148 ] final   70.27 input    0.00 | X-H torsion
[ 13550 9209 9208 9207 ] final   17.80 input    0.00 | X-H torsion
[ 13554 9296 9295 9294 ] final -126.11 input    0.00 | X-H torsion
[ 13560 9260 9259 9258 ] final  -55.35 input    0.00 | X-H torsion
[ 13565 9341 9340 9339 ] final -163.61 input    0.00 | X-H torsion
[ 13572 5568 5567 5566 ] final -162.54 input    0.00 | X-H torsion

> <Gold.Protein.ActiveResidues>
 TRP311  MET341  TRP414  ARG419  CYS420  VAL421  GLY422  LEU429  LEU460  SER462 
 ALA463  ILE464  SER482  GLN483  LEU484  ILE485  ARG486  ASP500  ALA502  ASN503 
 TRP566  TYR567  GLY568  LEU569  PRO570  ALA571  VAL572  SER573  ASN574  MET575 
 PRO588  PHE589  SER590  GLY591  TRP592  TYR593  MET594  GLY595  THR596  GLU597 
 ILE598  GLY599  VAL600  ARG601  ASP602  TYR603  ASP605  SER607  ARG608  ILE653 
 VAL654  TRP683  PRO687  SER691  PHE696  HIS697  TYR711  HEM802  H4B803 

> <Gold.Protein.RotatedAtoms>
  121.5995  248.3143  328.7557 H   0  0  0  0  0  0  0  0  0  0  0  0  # atno 3576 bound_to 3563
  124.4162  247.0678  327.2431 H   0  0  0  0  0  0  0  0  0  0  0  0  # atno 3599 bound_to 3592
  125.4159  244.5929  316.8435 H   0  0  0  0  0  0  0  0  0  0  0  0  # atno 4890 bound_to 4885
  121.9105  246.2495  314.3677 H   0  0  0  0  0  0  0  0  0  0  0  0  # atno 4906 bound_to 4901
  105.7877  242.2513  319.5254 H   0  0  0  0  0  0  0  0  0  0  0  0  # atno 5550 bound_to 5545
  108.5521  242.9378  318.5335 H   0  0  0  0  0  0  0  0  0  0  0  0  # atno 5574 bound_to 5565
  111.8445  242.0596  315.3045 H   0  0  0  0  0  0  0  0  0  0  0  0  # atno 5606 bound_to 5598
  110.4348  239.6703  314.7574 H   0  0  0  0  0  0  0  0  0  0  0  0  # atno 5644 bound_to 5636
  109.1838  236.2281  315.2600 H   0  0  0  0  0  0  0  0  0  0  0  0  # atno 5688 bound_to 5677
  111.9908  237.3236  320.5518 H   0  0  0  0  0  0  0  0  0  0  0  0  # atno 8328 bound_to 8319
  118.8977  235.6899  316.9368 H   0  0  0  0  0  0  0  0  0  0  0  0  # atno 8379 bound_to 8360
  114.6634  241.6234  318.2511 H   0  0  0  0  0  0  0  0  0  0  0  0  # atno 8433 bound_to 8423
  114.6735  245.0732  316.7418 H   0  0  0  0  0  0  0  0  0  0  0  0  # atno 8461 bound_to 8445
  110.9088  245.5045  317.0330 H   0  0  0  0  0  0  0  0  0  0  0  0  # atno 8487 bound_to 8476
  109.5564  244.0684  314.6850 H   0  0  0  0  0  0  0  0  0  0  0  0  # atno 8491 bound_to 8481
  109.0955  247.3517  316.7038 H   0  0  0  0  0  0  0  0  0  0  0  0  # atno 8514 bound_to 8500
  115.3078  248.4531  314.0570 H   0  0  0  0  0  0  0  0  0  0  0  0  # atno 8957 bound_to 8937
  117.5626  246.0714  315.3778 H   0  0  0  0  0  0  0  0  0  0  0  0  # atno 8983 bound_to 8972
  119.1562  242.9343  313.1580 H   0  0  0  0  0  0  0  0  0  0  0  0  # atno 8987 bound_to 8977
  120.3801  243.5836  316.3665 H   0  0  0  0  0  0  0  0  0  0  0  0  # atno 8999 bound_to 8992
  123.2844  241.8314  319.2436 H   0  0  0  0  0  0  0  0  0  0  0  0  # atno 9040 bound_to 9016
  121.1108  238.5096  320.6469 H   0  0  0  0  0  0  0  0  0  0  0  0  # atno 9083 bound_to 9062
  114.6319  236.9589  320.4916 H   0  0  0  0  0  0  0  0  0  0  0  0  # atno 9091 bound_to 9073
  120.5343  238.8161  324.8798 H   0  0  0  0  0  0  0  0  0  0  0  0  # atno 9114 bound_to 9100
  121.4467  236.9463  326.6865 H   0  0  0  0  0  0  0  0  0  0  0  0  # atno 9134 bound_to 9130
  119.1860  238.4583  330.2229 H   0  0  0  0  0  0  0  0  0  0  0  0  # atno 9160 bound_to 9153
  118.7453  237.3922  328.1512 H   0  0  0  0  0  0  0  0  0  0  0  0  # atno 9186 bound_to 9177
  117.1772  235.8429  326.2182 H   0  0  0  0  0  0  0  0  0  0  0  0  # atno 9214 bound_to 9206
  117.1805  233.7172  328.5062 H   0  0  0  0  0  0  0  0  0  0  0  0  # atno 9244 bound_to 9240
  116.0607  232.8300  331.1895 H   0  0  0  0  0  0  0  0  0  0  0  0  # atno 9264 bound_to 9257
  113.8700  235.0575  330.3026 H   0  0  0  0  0  0  0  0  0  0  0  0  # atno 9304 bound_to 9293
  112.1229  234.6217  329.3251 H   0  0  0  0  0  0  0  0  0  0  0  0  # atno 9346 bound_to 9338
  111.6883  232.6907  327.8982 H   0  0  0  0  0  0  0  0  0  0  0  0  # atno 9378 bound_to 9366
  109.0033  232.8110  332.9323 H   0  0  0  0  0  0  0  0  0  0  0  0  # atno 9434 bound_to 9426
  104.9233  237.1969  331.6650 H   0  0  0  0  0  0  0  0  0  0  0  0  # atno 9486 bound_to 9481
  126.1371  236.0586  323.8616 H   0  0  0  0  0  0  0  0  0  0  0  0  # atno 11050 bound_to 11043
  121.8545  247.4059  327.2842 LP  0  0  0  0  0  0  0  0  0  0  0  0  # atno 13467 bound_to 3563
  123.0274  247.0524  326.1801 LP  0  0  0  0  0  0  0  0  0  0  0  0  # atno 13468 bound_to 3592
  118.4395  241.5079  317.3850 LP  0  0  0  0  0  0  0  0  0  0  0  0  # atno 13470 bound_to 8400
  117.5785  242.9939  317.6102 LP  0  0  0  0  0  0  0  0  0  0  0  0  # atno 13471 bound_to 8400
  116.1664  241.1742  317.4857 LP  0  0  0  0  0  0  0  0  0  0  0  0  # atno 13472 bound_to 8423
  114.5208  244.0568  318.1562 LP  0  0  0  0  0  0  0  0  0  0  0  0  # atno 13473 bound_to 8445
  115.4481  245.9294  316.1622 LP  0  0  0  0  0  0  0  0  0  0  0  0  # atno 13474 bound_to 8940
  116.6498  245.1205  317.1117 LP  0  0  0  0  0  0  0  0  0  0  0  0  # atno 13475 bound_to 8940
  119.7349  243.3850  317.9792 LP  0  0  0  0  0  0  0  0  0  0  0  0  # atno 13476 bound_to 8992
  120.8708  240.8795  316.7284 LP  0  0  0  0  0  0  0  0  0  0  0  0  # atno 13477 bound_to 8995
  122.4656  240.2200  316.8753 LP  0  0  0  0  0  0  0  0  0  0  0  0  # atno 13478 bound_to 8995
  121.5512  241.7475  319.0341 LP  0  0  0  0  0  0  0  0  0  0  0  0  # atno 13479 bound_to 9016
  121.4259  241.6218  321.4764 LP  0  0  0  0  0  0  0  0  0  0  0  0  # atno 13480 bound_to 9019
  122.3486  240.8066  322.6947 LP  0  0  0  0  0  0  0  0  0  0  0  0  # atno 13481 bound_to 9019
  122.6259  238.8094  321.4648 LP  0  0  0  0  0  0  0  0  0  0  0  0  # atno 13482 bound_to 9062
  123.4274  237.5617  322.9384 LP  0  0  0  0  0  0  0  0  0  0  0  0  # atno 13483 bound_to 9065
  123.7249  237.8610  324.6182 LP  0  0  0  0  0  0  0  0  0  0  0  0  # atno 13484 bound_to 9065
  114.4094  238.1807  321.5433 LP  0  0  0  0  0  0  0  0  0  0  0  0  # atno 13485 bound_to 9073
  114.2468  236.6333  322.0389 LP  0  0  0  0  0  0  0  0  0  0  0  0  # atno 13486 bound_to 9073
  122.1463  239.2630  324.3704 LP  0  0  0  0  0  0  0  0  0  0  0  0  # atno 13487 bound_to 9100
  119.4446  236.5130  326.9766 LP  0  0  0  0  0  0  0  0  0  0  0  0  # atno 13488 bound_to 9103
  119.5220  238.1436  326.3978 LP  0  0  0  0  0  0  0  0  0  0  0  0  # atno 13489 bound_to 9103
  117.6972  236.6584  329.3406 LP  0  0  0  0  0  0  0  0  0  0  0  0  # atno 13490 bound_to 9177
  119.2616  246.4582  315.4671 LP  0  0  0  0  0  0  0  0  0  0  0  0  # atno 13499 bound_to 8972
  120.7983  246.0782  315.7537 LP  0  0  0  0  0  0  0  0  0  0  0  0  # atno 13500 bound_to 8975
  122.0651  244.9802  316.1892 LP  0  0  0  0  0  0  0  0  0  0  0  0  # atno 13501 bound_to 8975
  120.6387  236.7032  317.1912 LP  0  0  0  0  0  0  0  0  0  0  0  0  # atno 13502 bound_to 8345
  120.0953  236.0999  318.7211 LP  0  0  0  0  0  0  0  0  0  0  0  0  # atno 13503 bound_to 8345
  122.7906  236.3961  327.6567 LP  0  0  0  0  0  0  0  0  0  0  0  0  # atno 13504 bound_to 9130
  124.8274  237.0503  324.4535 LP  0  0  0  0  0  0  0  0  0  0  0  0  # atno 13505 bound_to 11043
  124.1813  237.5858  326.5777 LP  0  0  0  0  0  0  0  0  0  0  0  0  # atno 13506 bound_to 11046
  124.1622  236.2583  327.6901 LP  0  0  0  0  0  0  0  0  0  0  0  0  # atno 13507 bound_to 11046
  124.2661  245.3777  317.6857 LP  0  0  0  0  0  0  0  0  0  0  0  0  # atno 13508 bound_to 4885
  125.7783  245.9878  317.5985 LP  0  0  0  0  0  0  0  0  0  0  0  0  # atno 13509 bound_to 4885
  115.2720  238.7457  317.2055 LP  0  0  0  0  0  0  0  0  0  0  0  0  # atno 13510 bound_to 8363
  115.6913  237.8525  315.7820 LP  0  0  0  0  0  0  0  0  0  0  0  0  # atno 13511 bound_to 8363
  112.7758  242.6843  315.8752 LP  0  0  0  0  0  0  0  0  0  0  0  0  # atno 13512 bound_to 8426
  112.0808  243.5837  317.1822 LP  0  0  0  0  0  0  0  0  0  0  0  0  # atno 13513 bound_to 8426
  120.3432  243.3606  314.1864 LP  0  0  0  0  0  0  0  0  0  0  0  0  # atno 13514 bound_to 8977
  119.3650  244.5008  313.5464 LP  0  0  0  0  0  0  0  0  0  0  0  0  # atno 13515 bound_to 8977
  112.9400  247.7812  315.5204 LP  0  0  0  0  0  0  0  0  0  0  0  0  # atno 13516 bound_to 8448
  114.3043  247.2081  316.4206 LP  0  0  0  0  0  0  0  0  0  0  0  0  # atno 13517 bound_to 8448
  114.9736  247.0874  315.0950 LP  0  0  0  0  0  0  0  0  0  0  0  0  # atno 13518 bound_to 8937
  118.4801  248.5589  329.9796 LP  0  0  0  0  0  0  0  0  0  0  0  0  # atno 13521 bound_to 3502
  118.5112  248.1828  328.2892 LP  0  0  0  0  0  0  0  0  0  0  0  0  # atno 13522 bound_to 3502
  123.4017  245.9127  313.5290 LP  0  0  0  0  0  0  0  0  0  0  0  0  # atno 13523 bound_to 4901
  119.0553  247.6944  313.7303 LP  0  0  0  0  0  0  0  0  0  0  0  0  # atno 13524 bound_to 4904
  120.3475  246.6922  314.3009 LP  0  0  0  0  0  0  0  0  0  0  0  0  # atno 13525 bound_to 4904
  112.0182  246.8478  317.1751 LP  0  0  0  0  0  0  0  0  0  0  0  0  # atno 13526 bound_to 8476
  109.7584  245.4038  317.4016 LP  0  0  0  0  0  0  0  0  0  0  0  0  # atno 13529 bound_to 5543
  109.7054  245.0328  319.0926 LP  0  0  0  0  0  0  0  0  0  0  0  0  # atno 13530 bound_to 5543
  107.9866  243.0261  316.8772 LP  0  0  0  0  0  0  0  0  0  0  0  0  # atno 13531 bound_to 5565
  111.2159  235.9731  321.0250 LP  0  0  0  0  0  0  0  0  0  0  0  0  # atno 13532 bound_to 8319
  110.6398  236.8534  319.7760 LP  0  0  0  0  0  0  0  0  0  0  0  0  # atno 13533 bound_to 8319
  114.1581  237.5007  326.9369 LP  0  0  0  0  0  0  0  0  0  0  0  0  # atno 13534 bound_to 9180
  114.0098  235.8435  327.4185 LP  0  0  0  0  0  0  0  0  0  0  0  0  # atno 13535 bound_to 9180
  106.8032  242.5116  320.7704 LP  0  0  0  0  0  0  0  0  0  0  0  0  # atno 13540 bound_to 5545
  107.3922  242.3153  319.2600 LP  0  0  0  0  0  0  0  0  0  0  0  0  # atno 13541 bound_to 5545
  110.1092  241.9679  315.4403 LP  0  0  0  0  0  0  0  0  0  0  0  0  # atno 13542 bound_to 5598
  111.9769  238.2417  317.0086 LP  0  0  0  0  0  0  0  0  0  0  0  0  # atno 13543 bound_to 5639
  110.7908  237.4394  317.9831 LP  0  0  0  0  0  0  0  0  0  0  0  0  # atno 13544 bound_to 5639
  112.0993  239.4946  314.2438 LP  0  0  0  0  0  0  0  0  0  0  0  0  # atno 13545 bound_to 5636
  116.2611  235.9048  327.7041 LP  0  0  0  0  0  0  0  0  0  0  0  0  # atno 13546 bound_to 9206
  112.2646  236.1293  328.4400 LP  0  0  0  0  0  0  0  0  0  0  0  0  # atno 13547 bound_to 9338
  116.3176  236.7338  331.0014 LP  0  0  0  0  0  0  0  0  0  0  0  0  # atno 13548 bound_to 9150
  115.9382  235.6186  329.7316 LP  0  0  0  0  0  0  0  0  0  0  0  0  # atno 13549 bound_to 9150
  113.5608  233.0419  327.0532 LP  0  0  0  0  0  0  0  0  0  0  0  0  # atno 13550 bound_to 9209
  113.8963  232.7515  328.7275 LP  0  0  0  0  0  0  0  0  0  0  0  0  # atno 13551 bound_to 9209
  115.5842  233.3347  327.8945 LP  0  0  0  0  0  0  0  0  0  0  0  0  # atno 13552 bound_to 9240
  113.6988  235.5076  331.9894 LP  0  0  0  0  0  0  0  0  0  0  0  0  # atno 13553 bound_to 9293
  109.7882  234.3574  329.6806 LP  0  0  0  0  0  0  0  0  0  0  0  0  # atno 13554 bound_to 9296
  109.5124  236.0304  330.0339 LP  0  0  0  0  0  0  0  0  0  0  0  0  # atno 13555 bound_to 9296
  120.6938  238.0399  330.6698 LP  0  0  0  0  0  0  0  0  0  0  0  0  # atno 13558 bound_to 9153
  119.7236  238.8418  331.7102 LP  0  0  0  0  0  0  0  0  0  0  0  0  # atno 13559 bound_to 9153
  112.3099  233.3584  332.8664 LP  0  0  0  0  0  0  0  0  0  0  0  0  # atno 13560 bound_to 9260
  111.9404  235.0163  333.2052 LP  0  0  0  0  0  0  0  0  0  0  0  0  # atno 13561 bound_to 9260
  110.2539  231.4606  326.7554 LP  0  0  0  0  0  0  0  0  0  0  0  0  # atno 13565 bound_to 9341
  110.8074  232.6905  325.6687 LP  0  0  0  0  0  0  0  0  0  0  0  0  # atno 13566 bound_to 9341
  111.0010  233.2834  329.3980 LP  0  0  0  0  0  0  0  0  0  0  0  0  # atno 13567 bound_to 9366
  104.1531  238.4649  332.3335 LP  0  0  0  0  0  0  0  0  0  0  0  0  # atno 13568 bound_to 9481
  104.2577  238.3331  330.7092 LP  0  0  0  0  0  0  0  0  0  0  0  0  # atno 13569 bound_to 9481
  108.7832  240.6285  314.5776 LP  0  0  0  0  0  0  0  0  0  0  0  0  # atno 13572 bound_to 5568
  107.9658  241.4609  315.8578 LP  0  0  0  0  0  0  0  0  0  0  0  0  # atno 13573 bound_to 5568
  109.9052  237.6083  316.0631 LP  0  0  0  0  0  0  0  0  0  0  0  0  # atno 13574 bound_to 5677
  117.2886  235.6133  316.2607 LP  0  0  0  0  0  0  0  0  0  0  0  0  # atno 13575 bound_to 8360
  108.4546  245.1457  315.2094 LP  0  0  0  0  0  0  0  0  0  0  0  0  # atno 13576 bound_to 8481
  109.7581  244.7940  316.1281 LP  0  0  0  0  0  0  0  0  0  0  0  0  # atno 13577 bound_to 8481

> <Gold.Score>
     Fitness  S(hb_ext) S(vdw_ext)  S(hb_int)    S(int)      intcor
     44.31       3.36      30.11       0.00      -0.44      -0.76

> <Gold.Goldscore.Fitness>
44.3146

> <Gold.Goldscore.Internal.Vdw>
-0.6866

> <Gold.Goldscore.Internal.Torsion>
-0.5148

> <Gold.Goldscore.External.Vdw>
30.1053

> <Gold.Goldscore.Internal.HBond>
0.0000

> <Gold.Goldscore.External.HBond>
3.3627

> <Gold.Goldscore.Internal.Correction>
-0.7585

> <Gold.Goldscore.Hbonds>
donor molecule, donor type, donor heavy atom, donor atom, acceptor molecule, acceptor atom, score
      P1  H  8319  8328       L1    17  1.00
      L1  H    10    23       P1  9345  0.23

> <Gold.Goldscore.Internal.Vdw.Weighted>
-0.6866

> <Gold.Goldscore.Internal.Torsion.Weighted>
-0.5148

> <Gold.Goldscore.External.Vdw.Weighted>
41.3948

> <Gold.Goldscore.Internal.HBond.Weighted>
0.0000

> <Gold.Goldscore.External.HBond.Weighted>
3.3627

> <Gold.Goldscore.Internal.Correction.Weighted>
-0.7585

> <Gold.Rescore>
     Score     S(PLP)   S(hbond)     S(cho)   S(metal)  DE(clash)   DE(tors)     intcor
     40.34     -40.14       0.82       0.00       0.00       0.00       1.12       ----

> <Gold.PLP.Fitness>
40.3381

> <Gold.PLP.PLP>
-40.1353

> <Gold.PLP.part.hbond>
-2.0000

> <Gold.PLP.part.metal>
0.0000

> <Gold.PLP.part.buried>
-5.5446

> <Gold.PLP.part.nonpolar>
-34.2904

> <Gold.PLP.part.repulsive>
0.6292

> <Gold.PLP.ligand.clash>
0.0000

> <Gold.PLP.ligand.torsion>
1.1216

> <Gold.PLP.Chemscore.Hbond>
0.8154

> <Gold.PLP.Chemscore.CHOScore>
0.0000

> <Gold.PLP.Chemscore.Metal>
0.0000

> <Gold.Chemscore.Hbonds>
donor molecule, donor type, donor heavy atom, donor atom, acceptor molecule, acceptor atom, score
      P1  H  8319  8328       L1    17  0.68

> <Gold.PLP.Chemscore.Internal.Correction>
   9.000000E+99

