#       Name:                CT1002167954
#       Creating user name   hitesit
#       Creation time:       Sun Apr 16 02:22:57 2023


#       File generated by GOLD software.
#

@<TRIPOS>MOLECULE
CT1002167954|ligand_prepared|mol2|1|dock6
    29    30     1
SMALL
NO_CHARGES


@<TRIPOS>ATOM
      1 C1         114.6998 242.7162 322.1783 C.3            1 RES1               0.0000
      2 C2         115.8604 243.6344 321.7444 C.ar           1 RES1               0.0000
      3 C3         114.5470 242.9018 323.6852 C.2            1 RES1               0.0000
      4 C4         113.4834 243.1556 321.3709 C.2            1 RES1               0.0000
      5 C5         114.9480 241.2171 321.8908 C.3            1 RES1               0.0000
      6 C6         116.3754 243.5636 320.4534 C.ar           1 RES1               0.0000
      7 C7         116.4238 244.5575 322.6214 C.ar           1 RES1               0.0000
      8 N8         113.4765 243.6215 324.1278 N.am           1 RES1               0.0000
      9 O9         115.3747 242.4571 324.4709 O.2            1 RES1               0.0000
     10 N10        112.4272 243.7057 322.0489 N.am           1 RES1               0.0000
     11 O11        113.4367 243.0456 320.1519 O.2            1 RES1               0.0000
     12 C12        113.8331 240.3061 322.3799 C.3            1 RES1               0.0000
     13 C13        117.4139 244.3878 320.0527 C.ar           1 RES1               0.0000
     14 C14        117.4625 245.3807 322.2187 C.ar           1 RES1               0.0000
     15 C15        112.3812 243.9868 323.3872 C.2            1 RES1               0.0000
     16 C16        117.9578 245.2971 320.9347 C.ar           1 RES1               0.0000
     17 O17        111.4166 244.5328 323.9151 O.2            1 RES1               0.0000
     18 H18        115.0669 241.0801 320.8089 H              1 RES1               0.0000
     19 H19        115.8867 240.9159 322.3720 H              1 RES1               0.0000
     20 H20        115.9617 242.8526 319.7461 H              1 RES1               0.0000
     21 H21        116.0509 244.6400 323.6366 H              1 RES1               0.0000
     22 H22        113.4918 243.9153 325.0993 H              1 RES1               0.0000
     23 H23        111.5986 243.9261 321.5056 H              1 RES1               0.0000
     24 H24        114.0574 239.2660 322.1531 H              1 RES1               0.0000
     25 H25        113.7041 240.3980 323.4563 H              1 RES1               0.0000
     26 H26        112.8892 240.5612 321.9025 H              1 RES1               0.0000
     27 H27        117.8010 244.3172 319.0416 H              1 RES1               0.0000
     28 H28        117.8879 246.0944 322.9164 H              1 RES1               0.0000
     29 H29        118.7710 245.9429 320.6205 H              1 RES1               0.0000
@<TRIPOS>BOND
    1    1    2 1     
    2    1    3 1     
    3    1    4 1     
    4    1    5 1     
    5    2    6 ar    
    6    2    7 ar    
    7    3    8 1     
    8    3    9 2     
    9    4   10 1     
   10    4   11 2     
   11    5   12 1     
   12    5   18 1     
   13    5   19 1     
   14    6   13 ar    
   15    6   20 1     
   16    7   14 ar    
   17    7   21 1     
   18    8   15 1     
   19    8   22 1     
   20   10   15 1     
   21   10   23 1     
   22   12   24 1     
   23   12   25 1     
   24   12   26 1     
   25   13   16 ar    
   26   13   27 1     
   27   14   16 ar    
   28   14   28 1     
   29   15   17 2     
   30   16   29 1     
@<TRIPOS>SUBSTRUCTURE
      1 RES1           1
@<TRIPOS>SET
DONOR_HYDROGENS      STATIC     ATOMS    <user>   **** ""
2 22 23
ATOM$RED        STATIC     ATOMS    COLORGROUP SYSTEM
2 22 23
@<TRIPOS>COMMENT
> <Gold.Version>
2022.3.0

> <Gold.Id.Protein>
unknown|6ng7_clean|pdb

> <Gold.Protein.RotatedTorsions>
[ 3576 3563 3564 3565 ] final  -49.52 input  100.79 | X-H torsion
[ 3599 3592 3593 3594 ] final   21.35 input   89.00 | X-H torsion
[ 8433 8423 8424 8425 ] final  146.21 input   34.47 | X-H torsion
[ 8461 8445 8446 8447 ] final -112.02 input   99.97 | X-H torsion
[ 8999 8992 8993 8994 ] final   10.75 input   33.19 | X-H torsion
[ 9040 9016 9017 9018 ] final  -13.74 input   39.09 | X-H torsion
[ 9083 9062 9063 9064 ] final -124.29 input   97.54 | X-H torsion
[ 9091 9073 9072 9070 ] final   59.45 input   60.01 | X-H torsion
[ 9114 9100 9101 9102 ] final   25.10 input   92.58 | X-H torsion
[ 9186 9177 9178 9179 ] final   98.35 input  115.65 | X-H torsion
[ 8983 8972 8973 8974 ] final  -40.91 input   31.13 | X-H torsion
[ 9134 9130 9131 9132 ] final   65.88 input  123.92 | X-H torsion
[ 11050 11043 11044 11045 ] final  -48.74 input   53.30 | X-H torsion
[ 4890 4885 4884 4881 ] final    9.29 input   60.01 | X-H torsion
[ 8987 8977 8976 8973 ] final  100.06 input   59.99 | X-H torsion
[ 8957 8937 8938 8939 ] final  -50.69 input   44.56 | X-H torsion
[ 4906 4901 4902 4903 ] final   64.82 input   21.77 | X-H torsion
[ 8487 8476 8477 8478 ] final  -80.48 input   54.71 | X-H torsion
[ 5574 5565 5566 5567 ] final -122.12 input   53.40 | X-H torsion
[ 8328 8319 8318 8316 ] final  -19.73 input   60.03 | X-H torsion
[ 5550 5545 5544 5541 ] final  -53.24 input   59.98 | X-H torsion
[ 5606 5598 5599 5600 ] final  -61.73 input  117.00 | X-H torsion
[ 5644 5636 5637 5638 ] final  139.60 input   61.23 | X-H torsion
[ 9214 9206 9207 9208 ] final  -73.87 input   98.56 | X-H torsion
[ 9346 9338 9339 9340 ] final  160.08 input  104.10 | X-H torsion
[ 9244 9240 9241 9242 ] final   67.59 input   92.42 | X-H torsion
[ 9304 9293 9294 9295 ] final   77.24 input   83.70 | X-H torsion
[ 9160 9153 9151 9148 ] final  -76.03 input   60.00 | X-H torsion
[ 9378 9366 9367 9368 ] final  176.18 input   40.32 | X-H torsion
[ 9486 9481 9480 9477 ] final  165.76 input   60.00 | X-H torsion
[ 5688 5677 5678 5679 ] final  146.87 input   32.59 | X-H torsion
[ 8379 8360 8361 8362 ] final  170.63 input   69.42 | X-H torsion
[ 8491 8481 8480 8477 ] final   93.17 input   60.01 | X-H torsion
[ 8514 8500 8501 8502 ] final  110.20 input   65.89 | X-H torsion
[ 9264 9257 9258 9259 ] final  -85.37 input   80.62 | X-H torsion
[ 9434 9426 9427 9428 ] final  -81.29 input  124.27 | X-H torsion
[ 13470 8400 8399 8398 ] final  107.49 input   -0.00 | X-H torsion
[ 13474 8940 8939 8938 ] final  -11.07 input   -0.00 | X-H torsion
[ 13477 8995 8994 8993 ] final -101.41 input    0.00 | X-H torsion
[ 13480 9019 9018 9017 ] final   52.28 input   -0.00 | X-H torsion
[ 13483 9065 9064 9063 ] final   11.44 input   -0.00 | X-H torsion
[ 13488 9103 9102 9101 ] final  153.28 input    0.00 | X-H torsion
[ 13500 8975 8974 8973 ] final   95.58 input    0.00 | X-H torsion
[ 13502 8345 8344 8343 ] final  -36.69 input   -0.00 | X-H torsion
[ 13506 11046 11045 11044 ] final -165.99 input    0.00 | X-H torsion
[ 13510 8363 8362 8361 ] final  110.95 input    0.00 | X-H torsion
[ 13512 8426 8425 8424 ] final  128.93 input   -0.00 | X-H torsion
[ 13516 8448 8447 8446 ] final  -10.24 input   -0.00 | X-H torsion
[ 13521 3502 3501 3500 ] final -149.42 input    0.00 | X-H torsion
[ 13524 4904 4903 4902 ] final -127.48 input    0.00 | X-H torsion
[ 13529 5543 5542 5541 ] final -125.36 input   -0.00 | X-H torsion
[ 13534 9180 9179 9178 ] final -133.84 input    0.00 | X-H torsion
[ 13543 5639 5638 5637 ] final -168.97 input    0.00 | X-H torsion
[ 13548 9150 9149 9148 ] final   52.09 input    0.00 | X-H torsion
[ 13550 9209 9208 9207 ] final   93.54 input    0.00 | X-H torsion
[ 13554 9296 9295 9294 ] final -154.02 input    0.00 | X-H torsion
[ 13560 9260 9259 9258 ] final  -49.31 input    0.00 | X-H torsion
[ 13565 9341 9340 9339 ] final -148.26 input    0.00 | X-H torsion
[ 13572 5568 5567 5566 ] final   64.54 input    0.00 | X-H torsion

> <Gold.Protein.ActiveResidues>
 TRP311  MET341  TRP414  ARG419  CYS420  VAL421  GLY422  LEU429  LEU460  SER462 
 ALA463  ILE464  SER482  GLN483  LEU484  ILE485  ARG486  ASP500  ALA502  ASN503 
 TRP566  TYR567  GLY568  LEU569  PRO570  ALA571  VAL572  SER573  ASN574  MET575 
 PRO588  PHE589  SER590  GLY591  TRP592  TYR593  MET594  GLY595  THR596  GLU597 
 ILE598  GLY599  VAL600  ARG601  ASP602  TYR603  ASP605  SER607  ARG608  ILE653 
 VAL654  TRP683  PRO687  SER691  PHE696  HIS697  TYR711  HEM802  H4B803 

> <Gold.Protein.RotatedAtoms>
  122.1389  248.4412  327.4910 H   0  0  0  0  0  0  0  0  0  0  0  0  # atno 3576 bound_to 3563
  123.6704  247.8929  326.4030 H   0  0  0  0  0  0  0  0  0  0  0  0  # atno 3599 bound_to 3592
  125.0469  244.5136  316.9079 H   0  0  0  0  0  0  0  0  0  0  0  0  # atno 4890 bound_to 4885
  121.9651  245.5470  313.9117 H   0  0  0  0  0  0  0  0  0  0  0  0  # atno 4906 bound_to 4901
  106.1558  242.2059  319.0764 H   0  0  0  0  0  0  0  0  0  0  0  0  # atno 5550 bound_to 5545
  108.5924  243.8094  317.7751 H   0  0  0  0  0  0  0  0  0  0  0  0  # atno 5574 bound_to 5565
  110.1483  241.7699  315.5357 H   0  0  0  0  0  0  0  0  0  0  0  0  # atno 5606 bound_to 5598
  112.0656  239.4626  314.0931 H   0  0  0  0  0  0  0  0  0  0  0  0  # atno 5644 bound_to 5636
  109.4826  237.7843  315.9283 H   0  0  0  0  0  0  0  0  0  0  0  0  # atno 5688 bound_to 5677
  112.0422  237.2120  320.6913 H   0  0  0  0  0  0  0  0  0  0  0  0  # atno 8328 bound_to 8319
  118.6319  235.4702  315.9258 H   0  0  0  0  0  0  0  0  0  0  0  0  # atno 8379 bound_to 8360
  115.7396  240.8846  317.2266 H   0  0  0  0  0  0  0  0  0  0  0  0  # atno 8433 bound_to 8423
  114.1006  243.8365  317.5953 H   0  0  0  0  0  0  0  0  0  0  0  0  # atno 8461 bound_to 8445
  111.9409  246.9206  317.2457 H   0  0  0  0  0  0  0  0  0  0  0  0  # atno 8487 bound_to 8476
  108.4560  245.1222  315.1665 H   0  0  0  0  0  0  0  0  0  0  0  0  # atno 8491 bound_to 8481
  109.4336  247.3838  317.7007 H   0  0  0  0  0  0  0  0  0  0  0  0  # atno 8514 bound_to 8500
  115.1534  246.9523  314.2285 H   0  0  0  0  0  0  0  0  0  0  0  0  # atno 8957 bound_to 8937
  118.8850  246.6012  316.0878 H   0  0  0  0  0  0  0  0  0  0  0  0  # atno 8983 bound_to 8972
  120.1425  242.8935  313.9597 H   0  0  0  0  0  0  0  0  0  0  0  0  # atno 8987 bound_to 8977
  119.8413  242.6438  317.3736 H   0  0  0  0  0  0  0  0  0  0  0  0  # atno 8999 bound_to 8992
  121.9257  241.9677  319.8570 H   0  0  0  0  0  0  0  0  0  0  0  0  # atno 9040 bound_to 9016
  121.3548  239.3587  320.9097 H   0  0  0  0  0  0  0  0  0  0  0  0  # atno 9083 bound_to 9062
  114.3821  236.3269  321.4532 H   0  0  0  0  0  0  0  0  0  0  0  0  # atno 9091 bound_to 9073
  120.5684  238.6792  324.8229 H   0  0  0  0  0  0  0  0  0  0  0  0  # atno 9114 bound_to 9100
  122.3752  236.6731  328.0220 H   0  0  0  0  0  0  0  0  0  0  0  0  # atno 9134 bound_to 9130
  120.6892  238.0423  330.6773 H   0  0  0  0  0  0  0  0  0  0  0  0  # atno 9160 bound_to 9153
  118.7133  237.1455  328.0338 H   0  0  0  0  0  0  0  0  0  0  0  0  # atno 9186 bound_to 9177
  115.9622  236.2311  327.2599 H   0  0  0  0  0  0  0  0  0  0  0  0  # atno 9214 bound_to 9206
  116.9527  233.9365  328.7258 H   0  0  0  0  0  0  0  0  0  0  0  0  # atno 9244 bound_to 9240
  115.3872  232.7616  330.8383 H   0  0  0  0  0  0  0  0  0  0  0  0  # atno 9264 bound_to 9257
  114.1551  235.6079  330.4146 H   0  0  0  0  0  0  0  0  0  0  0  0  # atno 9304 bound_to 9293
  112.4745  236.0418  328.3196 H   0  0  0  0  0  0  0  0  0  0  0  0  # atno 9346 bound_to 9338
  111.7122  232.6884  327.9105 H   0  0  0  0  0  0  0  0  0  0  0  0  # atno 9378 bound_to 9366
  109.5580  233.1844  333.4857 H   0  0  0  0  0  0  0  0  0  0  0  0  # atno 9434 bound_to 9426
  103.9764  238.7784  331.3586 H   0  0  0  0  0  0  0  0  0  0  0  0  # atno 9486 bound_to 9481
  125.3927  235.7615  324.5250 H   0  0  0  0  0  0  0  0  0  0  0  0  # atno 11050 bound_to 11043
  121.3283  247.2821  328.5181 LP  0  0  0  0  0  0  0  0  0  0  0  0  # atno 13467 bound_to 3563
  123.7526  246.2499  326.9971 LP  0  0  0  0  0  0  0  0  0  0  0  0  # atno 13468 bound_to 3592
  117.9232  242.0251  316.6659 LP  0  0  0  0  0  0  0  0  0  0  0  0  # atno 13470 bound_to 8400
  118.0947  242.4767  318.3292 LP  0  0  0  0  0  0  0  0  0  0  0  0  # atno 13471 bound_to 8400
  115.1059  241.9022  318.4952 LP  0  0  0  0  0  0  0  0  0  0  0  0  # atno 13472 bound_to 8423
  115.0785  245.2605  317.3255 LP  0  0  0  0  0  0  0  0  0  0  0  0  # atno 13473 bound_to 8445
  115.5554  246.2332  316.5676 LP  0  0  0  0  0  0  0  0  0  0  0  0  # atno 13474 bound_to 8940
  116.5425  244.8167  316.7064 LP  0  0  0  0  0  0  0  0  0  0  0  0  # atno 13475 bound_to 8940
  120.2593  244.2996  316.9991 LP  0  0  0  0  0  0  0  0  0  0  0  0  # atno 13476 bound_to 8992
  120.9097  240.3673  317.1779 LP  0  0  0  0  0  0  0  0  0  0  0  0  # atno 13477 bound_to 8995
  122.4267  240.7323  316.4259 LP  0  0  0  0  0  0  0  0  0  0  0  0  # atno 13478 bound_to 8995
  122.8784  241.6144  318.4349 LP  0  0  0  0  0  0  0  0  0  0  0  0  # atno 13479 bound_to 9016
  121.4177  241.6184  321.4805 LP  0  0  0  0  0  0  0  0  0  0  0  0  # atno 13480 bound_to 9019
  122.3568  240.8100  322.6906 LP  0  0  0  0  0  0  0  0  0  0  0  0  # atno 13481 bound_to 9019
  122.3879  237.9810  321.2085 LP  0  0  0  0  0  0  0  0  0  0  0  0  # atno 13482 bound_to 9062
  123.4722  237.6753  322.9193 LP  0  0  0  0  0  0  0  0  0  0  0  0  # atno 13483 bound_to 9065
  123.6801  237.7474  324.6373 LP  0  0  0  0  0  0  0  0  0  0  0  0  # atno 13484 bound_to 9065
  114.6420  237.6330  320.5178 LP  0  0  0  0  0  0  0  0  0  0  0  0  # atno 13485 bound_to 9073
  114.2658  237.8174  322.0961 LP  0  0  0  0  0  0  0  0  0  0  0  0  # atno 13486 bound_to 9073
  122.1131  239.3961  324.4257 LP  0  0  0  0  0  0  0  0  0  0  0  0  # atno 13487 bound_to 9100
  119.4685  236.4651  326.6196 LP  0  0  0  0  0  0  0  0  0  0  0  0  # atno 13488 bound_to 9103
  119.4982  238.1916  326.7548 LP  0  0  0  0  0  0  0  0  0  0  0  0  # atno 13489 bound_to 9103
  117.7284  236.9001  329.4556 LP  0  0  0  0  0  0  0  0  0  0  0  0  # atno 13490 bound_to 9177
  117.9584  245.9360  314.7675 LP  0  0  0  0  0  0  0  0  0  0  0  0  # atno 13499 bound_to 8972
  121.3071  245.9907  316.6936 LP  0  0  0  0  0  0  0  0  0  0  0  0  # atno 13500 bound_to 8975
  121.5564  245.0677  315.2494 LP  0  0  0  0  0  0  0  0  0  0  0  0  # atno 13501 bound_to 8975
  120.3457  235.8345  318.6103 LP  0  0  0  0  0  0  0  0  0  0  0  0  # atno 13502 bound_to 8345
  120.3882  236.9687  317.3020 LP  0  0  0  0  0  0  0  0  0  0  0  0  # atno 13503 bound_to 8345
  121.8802  236.6640  326.3472 LP  0  0  0  0  0  0  0  0  0  0  0  0  # atno 13504 bound_to 9130
  125.5586  237.3421  323.8018 LP  0  0  0  0  0  0  0  0  0  0  0  0  # atno 13505 bound_to 11043
  124.2468  236.8241  327.9911 LP  0  0  0  0  0  0  0  0  0  0  0  0  # atno 13506 bound_to 11046
  124.0966  237.0201  326.2767 LP  0  0  0  0  0  0  0  0  0  0  0  0  # atno 13507 bound_to 11046
  124.4237  245.6966  317.8347 LP  0  0  0  0  0  0  0  0  0  0  0  0  # atno 13508 bound_to 4885
  125.9925  245.7487  317.3846 LP  0  0  0  0  0  0  0  0  0  0  0  0  # atno 13509 bound_to 4885
  115.3024  237.8638  317.2207 LP  0  0  0  0  0  0  0  0  0  0  0  0  # atno 13510 bound_to 8363
  115.6609  238.7344  315.7668 LP  0  0  0  0  0  0  0  0  0  0  0  0  # atno 13511 bound_to 8363
  112.1604  243.2277  317.3469 LP  0  0  0  0  0  0  0  0  0  0  0  0  # atno 13512 bound_to 8426
  112.6962  243.0403  315.7105 LP  0  0  0  0  0  0  0  0  0  0  0  0  # atno 13513 bound_to 8426
  119.7983  244.4829  313.8985 LP  0  0  0  0  0  0  0  0  0  0  0  0  # atno 13514 bound_to 8977
  118.9169  243.4196  313.0272 LP  0  0  0  0  0  0  0  0  0  0  0  0  # atno 13515 bound_to 8977
  114.2566  247.3786  316.5484 LP  0  0  0  0  0  0  0  0  0  0  0  0  # atno 13516 bound_to 8448
  112.9877  247.6107  315.3925 LP  0  0  0  0  0  0  0  0  0  0  0  0  # atno 13517 bound_to 8448
  115.1245  248.5539  314.9274 LP  0  0  0  0  0  0  0  0  0  0  0  0  # atno 13518 bound_to 8937
  119.3155  248.1159  329.0212 LP  0  0  0  0  0  0  0  0  0  0  0  0  # atno 13521 bound_to 3502
  117.6758  248.6258  329.2477 LP  0  0  0  0  0  0  0  0  0  0  0  0  # atno 13522 bound_to 3502
  123.3477  246.6073  313.9799 LP  0  0  0  0  0  0  0  0  0  0  0  0  # atno 13523 bound_to 4901
  119.0224  247.1553  313.4793 LP  0  0  0  0  0  0  0  0  0  0  0  0  # atno 13524 bound_to 4904
  120.3803  247.2313  314.5519 LP  0  0  0  0  0  0  0  0  0  0  0  0  # atno 13525 bound_to 4904
  111.0115  245.4666  316.9677 LP  0  0  0  0  0  0  0  0  0  0  0  0  # atno 13526 bound_to 8476
  110.0313  245.0925  317.4443 LP  0  0  0  0  0  0  0  0  0  0  0  0  # atno 13529 bound_to 5543
  109.4325  245.3441  319.0500 LP  0  0  0  0  0  0  0  0  0  0  0  0  # atno 13530 bound_to 5543
  107.9479  242.1886  317.6060 LP  0  0  0  0  0  0  0  0  0  0  0  0  # atno 13531 bound_to 5565
  111.0627  235.9336  320.9250 LP  0  0  0  0  0  0  0  0  0  0  0  0  # atno 13532 bound_to 8319
  110.7413  237.0053  319.7356 LP  0  0  0  0  0  0  0  0  0  0  0  0  # atno 13533 bound_to 8319
  114.0080  235.8846  327.5299 LP  0  0  0  0  0  0  0  0  0  0  0  0  # atno 13534 bound_to 9180
  114.1599  237.4596  326.8255 LP  0  0  0  0  0  0  0  0  0  0  0  0  # atno 13535 bound_to 9180
  106.2259  242.4590  320.6826 LP  0  0  0  0  0  0  0  0  0  0  0  0  # atno 13540 bound_to 5545
  107.5989  242.4136  319.7998 LP  0  0  0  0  0  0  0  0  0  0  0  0  # atno 13541 bound_to 5545
  111.7907  242.2550  315.2112 LP  0  0  0  0  0  0  0  0  0  0  0  0  # atno 13542 bound_to 5598
  110.8351  237.3751  317.9778 LP  0  0  0  0  0  0  0  0  0  0  0  0  # atno 13543 bound_to 5639
  111.9325  238.3059  317.0139 LP  0  0  0  0  0  0  0  0  0  0  0  0  # atno 13544 bound_to 5639
  110.5223  239.6955  314.8861 LP  0  0  0  0  0  0  0  0  0  0  0  0  # atno 13545 bound_to 5636
  117.4518  235.5243  326.6832 LP  0  0  0  0  0  0  0  0  0  0  0  0  # atno 13546 bound_to 9206
  111.9288  234.7728  329.4005 LP  0  0  0  0  0  0  0  0  0  0  0  0  # atno 13547 bound_to 9338
  116.4173  236.5049  331.1136 LP  0  0  0  0  0  0  0  0  0  0  0  0  # atno 13548 bound_to 9150
  115.8385  235.8475  329.6194 LP  0  0  0  0  0  0  0  0  0  0  0  0  # atno 13549 bound_to 9150
  113.9204  232.1471  327.5013 LP  0  0  0  0  0  0  0  0  0  0  0  0  # atno 13550 bound_to 9209
  113.5367  233.6462  328.2794 LP  0  0  0  0  0  0  0  0  0  0  0  0  # atno 13551 bound_to 9209
  115.8035  233.1237  327.6831 LP  0  0  0  0  0  0  0  0  0  0  0  0  # atno 13552 bound_to 9240
  113.4264  234.9818  331.8824 LP  0  0  0  0  0  0  0  0  0  0  0  0  # atno 13553 bound_to 9293
  109.7007  234.5259  329.3084 LP  0  0  0  0  0  0  0  0  0  0  0  0  # atno 13554 bound_to 9296
  109.6000  235.8619  330.4061 LP  0  0  0  0  0  0  0  0  0  0  0  0  # atno 13555 bound_to 9296
  119.7181  238.8433  331.7085 LP  0  0  0  0  0  0  0  0  0  0  0  0  # atno 13558 bound_to 9153
  119.1854  238.4573  330.2139 LP  0  0  0  0  0  0  0  0  0  0  0  0  # atno 13559 bound_to 9153
  112.3623  233.3598  332.9411 LP  0  0  0  0  0  0  0  0  0  0  0  0  # atno 13560 bound_to 9260
  111.8880  235.0149  333.1304 LP  0  0  0  0  0  0  0  0  0  0  0  0  # atno 13561 bound_to 9260
  110.0576  231.5825  326.7441 LP  0  0  0  0  0  0  0  0  0  0  0  0  # atno 13565 bound_to 9341
  111.0037  232.5686  325.6800 LP  0  0  0  0  0  0  0  0  0  0  0  0  # atno 13566 bound_to 9341
  110.9781  233.2856  329.3862 LP  0  0  0  0  0  0  0  0  0  0  0  0  # atno 13567 bound_to 9366
  104.7862  237.4506  330.8802 LP  0  0  0  0  0  0  0  0  0  0  0  0  # atno 13568 bound_to 9481
  104.5783  237.7548  332.4711 LP  0  0  0  0  0  0  0  0  0  0  0  0  # atno 13569 bound_to 9481
  107.9879  241.8181  315.2660 LP  0  0  0  0  0  0  0  0  0  0  0  0  # atno 13572 bound_to 5568
  108.7611  240.2712  315.1694 LP  0  0  0  0  0  0  0  0  0  0  0  0  # atno 13573 bound_to 5568
  109.6181  236.1126  315.4208 LP  0  0  0  0  0  0  0  0  0  0  0  0  # atno 13574 bound_to 5677
  117.5484  235.8281  317.2488 LP  0  0  0  0  0  0  0  0  0  0  0  0  # atno 13575 bound_to 8360
  109.7245  244.8262  316.1428 LP  0  0  0  0  0  0  0  0  0  0  0  0  # atno 13576 bound_to 8481
  109.5956  244.0531  314.7102 LP  0  0  0  0  0  0  0  0  0  0  0  0  # atno 13577 bound_to 8481

> <Gold.Score>
     Fitness  S(hb_ext) S(vdw_ext)  S(hb_int)    S(int)      intcor
     38.56       2.76      27.29       0.00      -1.72      -0.76

> <Gold.Goldscore.Fitness>
38.5637

> <Gold.Goldscore.Internal.Vdw>
-2.0976

> <Gold.Goldscore.Internal.Torsion>
-0.3816

> <Gold.Goldscore.External.Vdw>
27.2917

> <Gold.Goldscore.Internal.HBond>
0.0000

> <Gold.Goldscore.External.HBond>
2.7583

> <Gold.Goldscore.Internal.Correction>
-0.7585

> <Gold.Goldscore.Hbonds>
donor molecule, donor type, donor heavy atom, donor atom, acceptor molecule, acceptor atom, score
      L1  H     8    22       P1 13389  0.46

> <Gold.Goldscore.Internal.Vdw.Weighted>
-2.0976

> <Gold.Goldscore.Internal.Torsion.Weighted>
-0.3816

> <Gold.Goldscore.External.Vdw.Weighted>
37.5261

> <Gold.Goldscore.Internal.HBond.Weighted>
0.0000

> <Gold.Goldscore.External.HBond.Weighted>
2.7583

> <Gold.Goldscore.Internal.Correction.Weighted>
-0.7585

> <Gold.Rescore>
     Score     S(PLP)   S(hbond)     S(cho)   S(metal)  DE(clash)   DE(tors)     intcor
     33.74     -33.03       0.84       0.00       0.00       0.97       0.43       ----

> <Gold.PLP.Fitness>
33.7433

> <Gold.PLP.PLP>
-33.0321

> <Gold.PLP.part.hbond>
-1.3751

> <Gold.PLP.part.metal>
0.0000

> <Gold.PLP.part.buried>
2.1959

> <Gold.PLP.part.nonpolar>
-38.9183

> <Gold.PLP.part.repulsive>
4.9703

> <Gold.PLP.ligand.clash>
0.9694

> <Gold.PLP.ligand.torsion>
0.4272

> <Gold.PLP.Chemscore.Hbond>
0.8450

> <Gold.PLP.Chemscore.CHOScore>
0.0000

> <Gold.PLP.Chemscore.Metal>
0.0000

> <Gold.Chemscore.Hbonds>
donor molecule, donor type, donor heavy atom, donor atom, acceptor molecule, acceptor atom, score
      L1  H     8    22       P1 13389  0.80

> <Gold.PLP.Chemscore.Internal.Correction>
   9.000000E+99

