#       Name:                CT1002167954
#       Creating user name   hitesit
#       Creation time:       Sun Apr 16 02:22:59 2023


#       File generated by GOLD software.
#

@<TRIPOS>MOLECULE
CT1002167954|ligand_prepared|mol2|1|dock8
    29    30     1
SMALL
NO_CHARGES


@<TRIPOS>ATOM
      1 C1         115.7025 242.7887 322.7340 C.3            1 RES1               0.0000
      2 C2         114.7977 243.9641 323.1566 C.ar           1 RES1               0.0000
      3 C3         115.1585 241.5525 323.4441 C.2            1 RES1               0.0000
      4 C4         115.6259 242.7167 321.2130 C.2            1 RES1               0.0000
      5 C5         117.1866 242.9691 323.1296 C.3            1 RES1               0.0000
      6 C6         113.5232 243.7304 323.6641 C.ar           1 RES1               0.0000
      7 C7         115.2239 245.2851 323.0474 C.ar           1 RES1               0.0000
      8 N8         114.4779 240.6405 322.6925 N.am           1 RES1               0.0000
      9 O9         115.2904 241.3996 324.6521 O.2            1 RES1               0.0000
     10 N10        115.0465 241.6094 320.6510 N.am           1 RES1               0.0000
     11 O11        116.0470 243.6165 320.4965 O.2            1 RES1               0.0000
     12 C12        118.0361 241.7281 322.9053 C.3            1 RES1               0.0000
     13 C13        112.7054 244.7790 324.0513 C.ar           1 RES1               0.0000
     14 C14        114.4044 246.3323 323.4350 C.ar           1 RES1               0.0000
     15 C15        114.4414 240.5822 321.3225 C.2            1 RES1               0.0000
     16 C16        113.1455 246.0805 323.9375 C.ar           1 RES1               0.0000
     17 O17        113.8937 239.6472 320.7454 O.2            1 RES1               0.0000
     18 H18        117.6094 243.7965 322.5466 H              1 RES1               0.0000
     19 H19        117.2383 243.2454 324.1900 H              1 RES1               0.0000
     20 H20        113.1587 242.7129 323.7588 H              1 RES1               0.0000
     21 H21        116.2100 245.5071 322.6538 H              1 RES1               0.0000
     22 H22        113.9469 239.9368 323.1956 H              1 RES1               0.0000
     23 H23        115.0684 241.5448 319.6382 H              1 RES1               0.0000
     24 H24        119.0681 241.9088 323.1989 H              1 RES1               0.0000
     25 H25        117.6590 240.8916 323.4900 H              1 RES1               0.0000
     26 H26        118.0278 241.4395 321.8563 H              1 RES1               0.0000
     27 H27        111.7150 244.5755 324.4449 H              1 RES1               0.0000
     28 H28        114.7547 247.3551 323.3430 H              1 RES1               0.0000
     29 H29        112.5048 246.9018 324.2412 H              1 RES1               0.0000
@<TRIPOS>BOND
    1    1    2 1     
    2    1    3 1     
    3    1    4 1     
    4    1    5 1     
    5    2    6 ar    
    6    2    7 ar    
    7    3    8 1     
    8    3    9 2     
    9    4   10 1     
   10    4   11 2     
   11    5   12 1     
   12    5   18 1     
   13    5   19 1     
   14    6   13 ar    
   15    6   20 1     
   16    7   14 ar    
   17    7   21 1     
   18    8   15 1     
   19    8   22 1     
   20   10   15 1     
   21   10   23 1     
   22   12   24 1     
   23   12   25 1     
   24   12   26 1     
   25   13   16 ar    
   26   13   27 1     
   27   14   16 ar    
   28   14   28 1     
   29   15   17 2     
   30   16   29 1     
@<TRIPOS>SUBSTRUCTURE
      1 RES1           1
@<TRIPOS>SET
DONOR_HYDROGENS      STATIC     ATOMS    <user>   **** ""
2 22 23
ATOM$RED        STATIC     ATOMS    COLORGROUP SYSTEM
2 22 23
@<TRIPOS>COMMENT
> <Gold.Version>
2022.3.0

> <Gold.Id.Protein>
unknown|6ng7_clean|pdb

> <Gold.Protein.RotatedTorsions>
[ 3576 3563 3564 3565 ] final  160.49 input  100.79 | X-H torsion
[ 3599 3592 3593 3594 ] final    0.58 input   89.00 | X-H torsion
[ 8433 8423 8424 8425 ] final  140.86 input   34.47 | X-H torsion
[ 8461 8445 8446 8447 ] final   50.03 input   99.97 | X-H torsion
[ 8999 8992 8993 8994 ] final   30.06 input   33.19 | X-H torsion
[ 9040 9016 9017 9018 ] final -102.76 input   39.09 | X-H torsion
[ 9083 9062 9063 9064 ] final   -6.61 input   97.54 | X-H torsion
[ 9091 9073 9072 9070 ] final -116.96 input   60.01 | X-H torsion
[ 9114 9100 9101 9102 ] final  118.09 input   92.58 | X-H torsion
[ 9186 9177 9178 9179 ] final  145.69 input  115.65 | X-H torsion
[ 8983 8972 8973 8974 ] final  164.70 input   31.13 | X-H torsion
[ 9134 9130 9131 9132 ] final -119.81 input  123.92 | X-H torsion
[ 11050 11043 11044 11045 ] final -178.49 input   53.30 | X-H torsion
[ 4890 4885 4884 4881 ] final  168.11 input   60.01 | X-H torsion
[ 8987 8977 8976 8973 ] final  -27.27 input   59.99 | X-H torsion
[ 8957 8937 8938 8939 ] final   30.14 input   44.56 | X-H torsion
[ 4906 4901 4902 4903 ] final   55.17 input   21.77 | X-H torsion
[ 8487 8476 8477 8478 ] final  105.97 input   54.71 | X-H torsion
[ 5574 5565 5566 5567 ] final  169.10 input   53.40 | X-H torsion
[ 8328 8319 8318 8316 ] final   -3.37 input   60.03 | X-H torsion
[ 5550 5545 5544 5541 ] final -145.31 input   59.98 | X-H torsion
[ 5606 5598 5599 5600 ] final   52.07 input  117.00 | X-H torsion
[ 5644 5636 5637 5638 ] final -129.79 input   61.23 | X-H torsion
[ 9214 9206 9207 9208 ] final   90.00 input   98.56 | X-H torsion
[ 9346 9338 9339 9340 ] final  -95.87 input  104.10 | X-H torsion
[ 9244 9240 9241 9242 ] final  155.51 input   92.42 | X-H torsion
[ 9304 9293 9294 9295 ] final   57.32 input   83.70 | X-H torsion
[ 9160 9153 9151 9148 ] final -116.11 input   60.00 | X-H torsion
[ 9378 9366 9367 9368 ] final   80.77 input   40.32 | X-H torsion
[ 9486 9481 9480 9477 ] final -113.22 input   60.00 | X-H torsion
[ 5688 5677 5678 5679 ] final  104.40 input   32.59 | X-H torsion
[ 8379 8360 8361 8362 ] final  -38.79 input   69.42 | X-H torsion
[ 8491 8481 8480 8477 ] final -167.99 input   60.01 | X-H torsion
[ 8514 8500 8501 8502 ] final  100.83 input   65.89 | X-H torsion
[ 9264 9257 9258 9259 ] final -133.82 input   80.62 | X-H torsion
[ 9434 9426 9427 9428 ] final   53.79 input  124.27 | X-H torsion
[ 13470 8400 8399 8398 ] final -104.48 input   -0.00 | X-H torsion
[ 13474 8940 8939 8938 ] final  -50.93 input   -0.00 | X-H torsion
[ 13477 8995 8994 8993 ] final   48.51 input    0.00 | X-H torsion
[ 13480 9019 9018 9017 ] final   68.90 input   -0.00 | X-H torsion
[ 13483 9065 9064 9063 ] final  115.63 input   -0.00 | X-H torsion
[ 13488 9103 9102 9101 ] final   35.73 input    0.00 | X-H torsion
[ 13500 8975 8974 8973 ] final  -42.09 input    0.00 | X-H torsion
[ 13502 8345 8344 8343 ] final  -26.66 input   -0.00 | X-H torsion
[ 13506 11046 11045 11044 ] final  -11.19 input    0.00 | X-H torsion
[ 13510 8363 8362 8361 ] final   85.69 input    0.00 | X-H torsion
[ 13512 8426 8425 8424 ] final -123.58 input   -0.00 | X-H torsion
[ 13516 8448 8447 8446 ] final  147.55 input   -0.00 | X-H torsion
[ 13521 3502 3501 3500 ] final -149.99 input    0.00 | X-H torsion
[ 13524 4904 4903 4902 ] final    4.12 input    0.00 | X-H torsion
[ 13529 5543 5542 5541 ] final -148.89 input   -0.00 | X-H torsion
[ 13534 9180 9179 9178 ] final   69.65 input    0.00 | X-H torsion
[ 13543 5639 5638 5637 ] final   94.83 input    0.00 | X-H torsion
[ 13548 9150 9149 9148 ] final  -49.28 input    0.00 | X-H torsion
[ 13550 9209 9208 9207 ] final  113.04 input    0.00 | X-H torsion
[ 13554 9296 9295 9294 ] final  128.62 input    0.00 | X-H torsion
[ 13560 9260 9259 9258 ] final   55.37 input    0.00 | X-H torsion
[ 13565 9341 9340 9339 ] final -160.35 input    0.00 | X-H torsion
[ 13572 5568 5567 5566 ] final   66.10 input    0.00 | X-H torsion

> <Gold.Protein.ActiveResidues>
 TRP311  MET341  TRP414  ARG419  CYS420  VAL421  GLY422  LEU429  LEU460  SER462 
 ALA463  ILE464  SER482  GLN483  LEU484  ILE485  ARG486  ASP500  ALA502  ASN503 
 TRP566  TYR567  GLY568  LEU569  PRO570  ALA571  VAL572  SER573  ASN574  MET575 
 PRO588  PHE589  SER590  GLY591  TRP592  TYR593  MET594  GLY595  THR596  GLU597 
 ILE598  GLY599  VAL600  ARG601  ASP602  TYR603  ASP605  SER607  ARG608  ILE653 
 VAL654  TRP683  PRO687  SER691  PHE696  HIS697  TYR711  HEM802  H4B803 

> <Gold.Protein.RotatedAtoms>
  121.3568  247.6463  328.7863 H   0  0  0  0  0  0  0  0  0  0  0  0  # atno 3576 bound_to 3563
  123.9250  247.9138  326.5951 H   0  0  0  0  0  0  0  0  0  0  0  0  # atno 3599 bound_to 3592
  125.5782  246.0794  317.7142 H   0  0  0  0  0  0  0  0  0  0  0  0  # atno 4890 bound_to 4885
  121.9004  245.6461  313.9996 H   0  0  0  0  0  0  0  0  0  0  0  0  # atno 4906 bound_to 4901
  105.8903  242.3925  320.3850 H   0  0  0  0  0  0  0  0  0  0  0  0  # atno 5550 bound_to 5545
  108.6023  243.1129  318.5056 H   0  0  0  0  0  0  0  0  0  0  0  0  # atno 5574 bound_to 5565
  111.5688  241.4095  315.5882 H   0  0  0  0  0  0  0  0  0  0  0  0  # atno 5606 bound_to 5598
  110.8607  239.5338  313.7131 H   0  0  0  0  0  0  0  0  0  0  0  0  # atno 5644 bound_to 5636
  108.9642  237.6001  315.5876 H   0  0  0  0  0  0  0  0  0  0  0  0  # atno 5688 bound_to 5677
  111.9596  237.3650  320.4895 H   0  0  0  0  0  0  0  0  0  0  0  0  # atno 8328 bound_to 8319
  117.9468  235.8578  317.4429 H   0  0  0  0  0  0  0  0  0  0  0  0  # atno 8379 bound_to 8360
  115.6623  240.8617  317.2116 H   0  0  0  0  0  0  0  0  0  0  0  0  # atno 8433 bound_to 8423
  114.9634  245.2684  317.0770 H   0  0  0  0  0  0  0  0  0  0  0  0  # atno 8461 bound_to 8445
  111.0721  245.4212  316.9007 H   0  0  0  0  0  0  0  0  0  0  0  0  # atno 8487 bound_to 8476
  109.3080  244.1614  314.5531 H   0  0  0  0  0  0  0  0  0  0  0  0  # atno 8491 bound_to 8481
  109.5181  247.4657  317.7832 H   0  0  0  0  0  0  0  0  0  0  0  0  # atno 8514 bound_to 8500
  114.9488  247.2899  315.3044 H   0  0  0  0  0  0  0  0  0  0  0  0  # atno 8957 bound_to 8937
  117.6834  245.9784  315.0364 H   0  0  0  0  0  0  0  0  0  0  0  0  # atno 8983 bound_to 8972
  119.7040  244.5082  313.8282 H   0  0  0  0  0  0  0  0  0  0  0  0  # atno 8987 bound_to 8977
  119.7688  242.7730  317.6313 H   0  0  0  0  0  0  0  0  0  0  0  0  # atno 8999 bound_to 8992
  121.6585  241.6530  318.6881 H   0  0  0  0  0  0  0  0  0  0  0  0  # atno 9040 bound_to 9016
  122.6424  238.8048  321.4820 H   0  0  0  0  0  0  0  0  0  0  0  0  # atno 9083 bound_to 9062
  114.4938  238.1784  321.2028 H   0  0  0  0  0  0  0  0  0  0  0  0  # atno 9091 bound_to 9073
  121.1275  239.8280  324.9659 H   0  0  0  0  0  0  0  0  0  0  0  0  # atno 9114 bound_to 9100
  121.9504  236.6220  326.3133 H   0  0  0  0  0  0  0  0  0  0  0  0  # atno 9134 bound_to 9130
  120.6924  238.2795  331.2734 H   0  0  0  0  0  0  0  0  0  0  0  0  # atno 9160 bound_to 9153
  118.6869  237.7092  328.4624 H   0  0  0  0  0  0  0  0  0  0  0  0  # atno 9186 bound_to 9177
  117.4768  235.4339  326.9103 H   0  0  0  0  0  0  0  0  0  0  0  0  # atno 9214 bound_to 9206
  117.0574  233.1006  327.8174 H   0  0  0  0  0  0  0  0  0  0  0  0  # atno 9244 bound_to 9240
  116.0287  232.8120  331.1784 H   0  0  0  0  0  0  0  0  0  0  0  0  # atno 9264 bound_to 9257
  114.0339  235.3437  330.3059 H   0  0  0  0  0  0  0  0  0  0  0  0  # atno 9304 bound_to 9293
  111.3851  235.6691  329.1404 H   0  0  0  0  0  0  0  0  0  0  0  0  # atno 9346 bound_to 9338
  112.0805  232.9300  329.1592 H   0  0  0  0  0  0  0  0  0  0  0  0  # atno 9378 bound_to 9366
  109.0066  233.2853  331.9615 H   0  0  0  0  0  0  0  0  0  0  0  0  # atno 9434 bound_to 9426
  104.2535  238.2899  332.4373 H   0  0  0  0  0  0  0  0  0  0  0  0  # atno 9486 bound_to 9481
  126.0821  236.8592  323.5956 H   0  0  0  0  0  0  0  0  0  0  0  0  # atno 11050 bound_to 11043
  122.0914  248.0577  327.2543 LP  0  0  0  0  0  0  0  0  0  0  0  0  # atno 13467 bound_to 3563
  123.5050  246.2296  326.8103 LP  0  0  0  0  0  0  0  0  0  0  0  0  # atno 13468 bound_to 3592
  117.8285  242.8172  318.1274 LP  0  0  0  0  0  0  0  0  0  0  0  0  # atno 13470 bound_to 8400
  118.1894  241.6846  316.8677 LP  0  0  0  0  0  0  0  0  0  0  0  0  # atno 13471 bound_to 8400
  115.1820  241.9248  318.5099 LP  0  0  0  0  0  0  0  0  0  0  0  0  # atno 13472 bound_to 8423
  114.2387  243.8667  317.8300 LP  0  0  0  0  0  0  0  0  0  0  0  0  # atno 13473 bound_to 8445
  115.8896  246.2677  317.0529 LP  0  0  0  0  0  0  0  0  0  0  0  0  # atno 13474 bound_to 8940
  116.2082  244.7822  316.2210 LP  0  0  0  0  0  0  0  0  0  0  0  0  # atno 13475 bound_to 8940
  120.3298  244.1738  316.7483 LP  0  0  0  0  0  0  0  0  0  0  0  0  # atno 13476 bound_to 8992
  122.1346  241.0229  316.2463 LP  0  0  0  0  0  0  0  0  0  0  0  0  # atno 13477 bound_to 8995
  121.2018  240.0767  317.3574 LP  0  0  0  0  0  0  0  0  0  0  0  0  # atno 13478 bound_to 8995
  123.1394  241.9218  319.5767 LP  0  0  0  0  0  0  0  0  0  0  0  0  # atno 13479 bound_to 9016
  121.2295  241.5149  321.6091 LP  0  0  0  0  0  0  0  0  0  0  0  0  # atno 13480 bound_to 9019
  122.5450  240.9135  322.5620 LP  0  0  0  0  0  0  0  0  0  0  0  0  # atno 13481 bound_to 9019
  121.1317  238.5214  320.6501 LP  0  0  0  0  0  0  0  0  0  0  0  0  # atno 13482 bound_to 9062
  123.9142  238.4963  323.9184 LP  0  0  0  0  0  0  0  0  0  0  0  0  # atno 13483 bound_to 9065
  123.2382  236.9264  323.6382 LP  0  0  0  0  0  0  0  0  0  0  0  0  # atno 13484 bound_to 9065
  114.2126  236.9358  322.2153 LP  0  0  0  0  0  0  0  0  0  0  0  0  # atno 13485 bound_to 9073
  114.5827  236.6501  320.6507 LP  0  0  0  0  0  0  0  0  0  0  0  0  # atno 13486 bound_to 9073
  121.5691  238.2783  324.2866 LP  0  0  0  0  0  0  0  0  0  0  0  0  # atno 13487 bound_to 9100
  119.5448  237.7864  325.9548 LP  0  0  0  0  0  0  0  0  0  0  0  0  # atno 13488 bound_to 9103
  119.4219  236.8702  327.4196 LP  0  0  0  0  0  0  0  0  0  0  0  0  # atno 13489 bound_to 9103
  117.7543  236.3478  329.0357 LP  0  0  0  0  0  0  0  0  0  0  0  0  # atno 13490 bound_to 9177
  119.1425  246.5498  315.8035 LP  0  0  0  0  0  0  0  0  0  0  0  0  # atno 13499 bound_to 8972
  121.1053  245.4936  315.1701 LP  0  0  0  0  0  0  0  0  0  0  0  0  # atno 13500 bound_to 8975
  121.7581  245.5648  316.7729 LP  0  0  0  0  0  0  0  0  0  0  0  0  # atno 13501 bound_to 8975
  120.4484  235.7578  318.5297 LP  0  0  0  0  0  0  0  0  0  0  0  0  # atno 13502 bound_to 8345
  120.2855  237.0454  317.3827 LP  0  0  0  0  0  0  0  0  0  0  0  0  # atno 13503 bound_to 8345
  122.2968  236.7141  328.0226 LP  0  0  0  0  0  0  0  0  0  0  0  0  # atno 13504 bound_to 9130
  124.8814  236.2638  324.7149 LP  0  0  0  0  0  0  0  0  0  0  0  0  # atno 13505 bound_to 11043
  124.1430  237.3755  326.3966 LP  0  0  0  0  0  0  0  0  0  0  0  0  # atno 13506 bound_to 11046
  124.2005  236.4687  327.8712 LP  0  0  0  0  0  0  0  0  0  0  0  0  # atno 13507 bound_to 11046
  125.6382  244.7044  316.8468 LP  0  0  0  0  0  0  0  0  0  0  0  0  # atno 13508 bound_to 4885
  124.2427  245.1632  317.5600 LP  0  0  0  0  0  0  0  0  0  0  0  0  # atno 13509 bound_to 4885
  115.3796  237.5863  316.9749 LP  0  0  0  0  0  0  0  0  0  0  0  0  # atno 13510 bound_to 8363
  115.5836  239.0119  316.0126 LP  0  0  0  0  0  0  0  0  0  0  0  0  # atno 13511 bound_to 8363
  112.2792  243.8822  316.1187 LP  0  0  0  0  0  0  0  0  0  0  0  0  # atno 13512 bound_to 8426
  112.5773  242.3858  316.9386 LP  0  0  0  0  0  0  0  0  0  0  0  0  # atno 13513 bound_to 8426
  118.9483  243.3037  313.0366 LP  0  0  0  0  0  0  0  0  0  0  0  0  # atno 13514 bound_to 8977
  120.2083  242.9730  314.0214 LP  0  0  0  0  0  0  0  0  0  0  0  0  # atno 13515 bound_to 8977
  113.1374  247.3389  315.2700 LP  0  0  0  0  0  0  0  0  0  0  0  0  # atno 13516 bound_to 8448
  114.1069  247.6504  316.6710 LP  0  0  0  0  0  0  0  0  0  0  0  0  # atno 13517 bound_to 8448
  115.3244  248.2241  313.8760 LP  0  0  0  0  0  0  0  0  0  0  0  0  # atno 13518 bound_to 8937
  119.3139  248.1145  329.0128 LP  0  0  0  0  0  0  0  0  0  0  0  0  # atno 13521 bound_to 3502
  117.6774  248.6271  329.2560 LP  0  0  0  0  0  0  0  0  0  0  0  0  # atno 13522 bound_to 3502
  123.4117  246.5093  313.8930 LP  0  0  0  0  0  0  0  0  0  0  0  0  # atno 13523 bound_to 4901
  120.3000  246.6046  314.2279 LP  0  0  0  0  0  0  0  0  0  0  0  0  # atno 13524 bound_to 4904
  119.1027  247.7820  313.8033 LP  0  0  0  0  0  0  0  0  0  0  0  0  # atno 13525 bound_to 4904
  111.8589  246.9290  317.3042 LP  0  0  0  0  0  0  0  0  0  0  0  0  # atno 13526 bound_to 8476
  110.2103  244.8490  317.6269 LP  0  0  0  0  0  0  0  0  0  0  0  0  # atno 13529 bound_to 5543
  109.2535  245.5877  318.8674 LP  0  0  0  0  0  0  0  0  0  0  0  0  # atno 13530 bound_to 5543
  107.9383  242.8578  316.9040 LP  0  0  0  0  0  0  0  0  0  0  0  0  # atno 13531 bound_to 5565
  111.2837  235.9997  321.0617 LP  0  0  0  0  0  0  0  0  0  0  0  0  # atno 13532 bound_to 8319
  110.6034  236.7852  319.8020 LP  0  0  0  0  0  0  0  0  0  0  0  0  # atno 13533 bound_to 8319
  114.1569  237.2531  326.5397 LP  0  0  0  0  0  0  0  0  0  0  0  0  # atno 13534 bound_to 9180
  114.0110  236.0911  327.8157 LP  0  0  0  0  0  0  0  0  0  0  0  0  # atno 13535 bound_to 9180
  107.5093  242.4766  320.2414 LP  0  0  0  0  0  0  0  0  0  0  0  0  # atno 13540 bound_to 5545
  106.5828  242.2082  318.9237 LP  0  0  0  0  0  0  0  0  0  0  0  0  # atno 13541 bound_to 5545
  110.3825  242.6123  315.1590 LP  0  0  0  0  0  0  0  0  0  0  0  0  # atno 13542 bound_to 5598
  110.9303  238.5778  317.5232 LP  0  0  0  0  0  0  0  0  0  0  0  0  # atno 13543 bound_to 5639
  111.8374  237.1033  317.4685 LP  0  0  0  0  0  0  0  0  0  0  0  0  # atno 13544 bound_to 5639
  111.6874  239.6266  315.2535 LP  0  0  0  0  0  0  0  0  0  0  0  0  # atno 13545 bound_to 5636
  115.9675  236.3055  327.0258 LP  0  0  0  0  0  0  0  0  0  0  0  0  # atno 13546 bound_to 9206
  112.9694  235.1288  328.6165 LP  0  0  0  0  0  0  0  0  0  0  0  0  # atno 13547 bound_to 9338
  116.3387  235.3409  330.4545 LP  0  0  0  0  0  0  0  0  0  0  0  0  # atno 13548 bound_to 9150
  115.9171  237.0116  330.2785 LP  0  0  0  0  0  0  0  0  0  0  0  0  # atno 13549 bound_to 9150
  113.9834  232.0765  327.7789 LP  0  0  0  0  0  0  0  0  0  0  0  0  # atno 13550 bound_to 9209
  113.4737  233.7168  328.0018 LP  0  0  0  0  0  0  0  0  0  0  0  0  # atno 13551 bound_to 9209
  115.7027  233.9284  328.5577 LP  0  0  0  0  0  0  0  0  0  0  0  0  # atno 13552 bound_to 9240
  113.5422  235.2341  331.9863 LP  0  0  0  0  0  0  0  0  0  0  0  0  # atno 13553 bound_to 9293
  109.4666  235.5609  329.0946 LP  0  0  0  0  0  0  0  0  0  0  0  0  # atno 13554 bound_to 9296
  109.8340  234.8269  330.6198 LP  0  0  0  0  0  0  0  0  0  0  0  0  # atno 13555 bound_to 9296
  119.1915  238.9050  331.3391 LP  0  0  0  0  0  0  0  0  0  0  0  0  # atno 13558 bound_to 9153
  119.7087  238.1568  329.9829 LP  0  0  0  0  0  0  0  0  0  0  0  0  # atno 13559 bound_to 9153
  112.5345  234.4524  333.7514 LP  0  0  0  0  0  0  0  0  0  0  0  0  # atno 13560 bound_to 9260
  111.7158  233.9222  332.3201 LP  0  0  0  0  0  0  0  0  0  0  0  0  # atno 13561 bound_to 9260
  110.2100  231.4831  326.7563 LP  0  0  0  0  0  0  0  0  0  0  0  0  # atno 13565 bound_to 9341
  110.8513  232.6680  325.6678 LP  0  0  0  0  0  0  0  0  0  0  0  0  # atno 13566 bound_to 9341
  110.6252  233.0542  328.1898 LP  0  0  0  0  0  0  0  0  0  0  0  0  # atno 13567 bound_to 9366
  104.1558  238.4994  330.8267 LP  0  0  0  0  0  0  0  0  0  0  0  0  # atno 13568 bound_to 9481
  104.9295  237.1979  331.4382 LP  0  0  0  0  0  0  0  0  0  0  0  0  # atno 13569 bound_to 9481
  107.9935  241.8219  315.2434 LP  0  0  0  0  0  0  0  0  0  0  0  0  # atno 13572 bound_to 5568
  108.7555  240.2674  315.1920 LP  0  0  0  0  0  0  0  0  0  0  0  0  # atno 13573 bound_to 5568
  110.1163  236.2896  315.7482 LP  0  0  0  0  0  0  0  0  0  0  0  0  # atno 13574 bound_to 5677
  118.2180  235.4492  315.7661 LP  0  0  0  0  0  0  0  0  0  0  0  0  # atno 13575 bound_to 8360
  108.5309  245.2536  315.4766 LP  0  0  0  0  0  0  0  0  0  0  0  0  # atno 13576 bound_to 8481
  109.9317  244.5925  315.9936 LP  0  0  0  0  0  0  0  0  0  0  0  0  # atno 13577 bound_to 8481

> <Gold.Score>
     Fitness  S(hb_ext) S(vdw_ext)  S(hb_int)    S(int)      intcor
     38.70       7.37      23.65       0.00      -1.18      -0.76

> <Gold.Goldscore.Fitness>
38.7001

> <Gold.Goldscore.Internal.Vdw>
-1.4485

> <Gold.Goldscore.Internal.Torsion>
-0.4927

> <Gold.Goldscore.External.Vdw>
23.6480

> <Gold.Goldscore.Internal.HBond>
0.0000

> <Gold.Goldscore.External.HBond>
7.3668

> <Gold.Goldscore.Internal.Correction>
-0.7585

> <Gold.Goldscore.Hbonds>
donor molecule, donor type, donor heavy atom, donor atom, acceptor molecule, acceptor atom, score
      P1  H  9073  9091       L1    17  0.42
      P1  H  8319  8328       L1    17  0.28
      L1  H    10    23       P1  8423  0.99

> <Gold.Goldscore.Internal.Vdw.Weighted>
-1.4485

> <Gold.Goldscore.Internal.Torsion.Weighted>
-0.4927

> <Gold.Goldscore.External.Vdw.Weighted>
32.5160

> <Gold.Goldscore.Internal.HBond.Weighted>
0.0000

> <Gold.Goldscore.External.HBond.Weighted>
7.3668

> <Gold.Goldscore.Internal.Correction.Weighted>
-0.7585

> <Gold.Rescore>
     Score     S(PLP)   S(hbond)     S(cho)   S(metal)  DE(clash)   DE(tors)     intcor
     17.89     -14.31       1.94       0.00       0.00       0.00       1.13       ----

> <Gold.PLP.Fitness>
17.8869

> <Gold.PLP.PLP>
-14.3128

> <Gold.PLP.part.hbond>
-2.4636

> <Gold.PLP.part.metal>
0.0000

> <Gold.PLP.part.buried>
8.3630

> <Gold.PLP.part.nonpolar>
-29.6114

> <Gold.PLP.part.repulsive>
8.8933

> <Gold.PLP.ligand.clash>
0.0000

> <Gold.PLP.ligand.torsion>
1.1267

> <Gold.PLP.Chemscore.Hbond>
1.9425

> <Gold.PLP.Chemscore.CHOScore>
0.0000

> <Gold.PLP.Chemscore.Metal>
0.0000

> <Gold.Chemscore.Hbonds>
donor molecule, donor type, donor heavy atom, donor atom, acceptor molecule, acceptor atom, score
      L1  H    10    23       P1  8423  0.91
      P1  H  9073  9091       L1    17  1.00

> <Gold.PLP.Chemscore.Internal.Correction>
   9.000000E+99

