#       Name:                GA Fitting Points
#       Creating user name   hitesit
#       Creation time:       Sun Apr 16 02:21:14 2023


#       Fitting Points Used by GA Software.
#

@<TRIPOS>MOLECULE
GA Fitting Points
 19117    0    0
SMALL
NO_CHARGES


@<TRIPOS>ATOM
      1 ****        -7.0000   9.5000  32.5000 Du        
      2 ****        -7.0000   9.7500  32.0000 Du        
      3 ****        -7.0000   9.7500  32.2500 Du        
      4 ****        -7.0000   9.7500  32.5000 Du        
      5 ****        -7.0000  10.0000  32.0000 Du        
      6 ****        -6.7500   9.7500  32.0000 Du        
      7 ****        -6.7500   9.7500  32.2500 Du        
      8 ****        -6.7500   9.7500  32.5000 Du        
      9 ****        -6.7500  10.0000  32.0000 Du        
     10 ****        -6.7500  10.0000  32.2500 Du        
     11 ****        -6.5000   9.7500  31.7500 Du        
     12 ****        -6.5000   9.7500  32.0000 Du        
     13 ****        -6.5000   9.7500  32.2500 Du        
     14 ****        -6.5000   9.7500  32.5000 Du        
     15 ****        -6.5000  10.0000  31.5000 Du        
     16 ****        -6.5000  10.0000  31.7500 Du        
     17 ****        -6.5000  10.0000  32.0000 Du        
     18 ****        -6.5000  10.0000  32.2500 Du        
     19 ****        -6.5000  10.0000  32.5000 Du        
     20 ****        -6.5000  10.2500  31.7500 Du        
     21 ****        -6.5000  10.2500  32.0000 Du        
     22 ****        -6.5000  10.2500  32.2500 Du        
     23 ****        -6.2500   9.7500  31.5000 Du        
     24 ****        -6.2500   9.7500  31.7500 Du        
     25 ****        -6.2500   9.7500  32.0000 Du        
     26 ****        -6.2500   9.7500  32.2500 Du        
     27 ****        -6.2500  10.0000  31.7500 Du        
     28 ****        -6.2500  10.0000  32.0000 Du        
     29 ****        -6.2500  10.0000  32.2500 Du        
     30 ****        -6.2500  10.2500  31.7500 Du        
     31 ****        -6.2500  10.2500  32.0000 Du        
     32 ****        -6.2500  10.2500  32.2500 Du        
     33 ****        -6.0000  10.0000  31.7500 Du        
     34 ****        -6.0000  10.0000  32.0000 Du        
     35 ****        -6.0000  10.2500  31.7500 Du        
     36 ****        -6.0000  10.2500  32.0000 Du        
     37 ****        -4.7500   1.0000  35.0000 Du        
     38 ****        -4.7500   1.0000  35.2500 Du        
     39 ****        -4.7500   1.0000  35.5000 Du        
     40 ****        -4.7500   1.2500  35.0000 Du        
     41 ****        -4.7500   1.2500  35.2500 Du        
     42 ****        -4.7500   1.2500  35.5000 Du        
     43 ****        -4.7500   8.2500  29.7500 Du        
     44 ****        -4.7500   8.2500  30.0000 Du        
     45 ****        -4.7500   8.2500  30.2500 Du        
     46 ****        -4.7500   8.5000  29.7500 Du        
     47 ****        -4.7500   8.5000  30.0000 Du        
     48 ****        -4.7500   8.7500  29.7500 Du        
     49 ****        -4.7500   8.7500  30.0000 Du        
     50 ****        -4.7500   8.7500  30.2500 Du        
     51 ****        -4.7500   9.0000  30.0000 Du        
     52 ****        -4.7500   9.0000  30.2500 Du        
     53 ****        -4.5000   1.0000  35.0000 Du        
     54 ****        -4.5000   1.0000  35.2500 Du        
     55 ****        -4.5000   1.0000  35.5000 Du        
     56 ****        -4.5000   1.2500  35.0000 Du        
     57 ****        -4.5000   1.2500  35.2500 Du        
     58 ****        -4.5000   1.2500  35.5000 Du        
     59 ****        -4.5000   7.7500  29.0000 Du        
     60 ****        -4.5000   8.0000  29.2500 Du        
     61 ****        -4.5000   8.0000  29.5000 Du        
     62 ****        -4.5000   8.0000  29.7500 Du        
     63 ****        -4.5000   8.0000  30.0000 Du        
     64 ****        -4.5000   8.2500  29.5000 Du        
     65 ****        -4.5000   8.2500  29.7500 Du        
     66 ****        -4.5000   8.2500  30.0000 Du        
     67 ****        -4.5000   8.2500  30.2500 Du        
     68 ****        -4.5000   8.2500  30.5000 Du        
     69 ****        -4.5000   8.5000  29.5000 Du        
     70 ****        -4.5000   8.5000  29.7500 Du        
     71 ****        -4.5000   8.5000  30.0000 Du        
     72 ****        -4.5000   8.5000  30.2500 Du        
     73 ****        -4.5000   8.5000  30.5000 Du        
     74 ****        -4.5000   8.7500  29.5000 Du        
     75 ****        -4.5000   8.7500  29.7500 Du        
     76 ****        -4.5000   8.7500  30.0000 Du        
     77 ****        -4.5000   8.7500  30.2500 Du        
     78 ****        -4.5000   8.7500  30.5000 Du        
     79 ****        -4.5000   8.7500  30.7500 Du        
     80 ****        -4.5000   9.0000  29.5000 Du        
     81 ****        -4.5000   9.0000  29.7500 Du        
     82 ****        -4.5000   9.0000  30.0000 Du        
     83 ****        -4.5000   9.0000  30.2500 Du        
     84 ****        -4.5000   9.0000  30.5000 Du        
     85 ****        -4.5000  16.7500  33.0000 Du        
     86 ****        -4.2500   0.5000  35.5000 Du        
     87 ****        -4.2500   0.7500  35.5000 Du        
     88 ****        -4.2500   1.0000  34.7500 Du        
     89 ****        -4.2500   1.0000  35.0000 Du        
     90 ****        -4.2500   1.0000  35.2500 Du        
     91 ****        -4.2500   1.0000  35.5000 Du        
     92 ****        -4.2500   1.2500  35.2500 Du        
     93 ****        -4.2500   1.2500  35.5000 Du        
     94 ****        -4.2500   1.5000  35.5000 Du        
     95 ****        -4.2500   7.2500  28.7500 Du        
     96 ****        -4.2500   7.2500  29.0000 Du        
     97 ****        -4.2500   7.5000  28.7500 Du        
     98 ****        -4.2500   7.5000  29.0000 Du        
     99 ****        -4.2500   7.7500  29.0000 Du        
    100 ****        -4.2500   7.7500  29.2500 Du        
    101 ****        -4.2500   7.7500  29.5000 Du        
    102 ****        -4.2500   8.0000  29.0000 Du        
    103 ****        -4.2500   8.0000  29.2500 Du        
    104 ****        -4.2500   8.0000  29.5000 Du        
    105 ****        -4.2500   8.0000  29.7500 Du        
    106 ****        -4.2500   8.0000  30.0000 Du        
    107 ****        -4.2500   8.0000  30.2500 Du        
    108 ****        -4.2500   8.2500  29.2500 Du        
    109 ****        -4.2500   8.2500  29.5000 Du        
    110 ****        -4.2500   8.2500  29.7500 Du        
    111 ****        -4.2500   8.2500  30.0000 Du        
    112 ****        -4.2500   8.2500  30.2500 Du        
    113 ****        -4.2500   8.2500  30.5000 Du        
    114 ****        -4.2500   8.5000  29.5000 Du        
    115 ****        -4.2500   8.5000  29.7500 Du        
    116 ****        -4.2500   8.5000  30.0000 Du        
    117 ****        -4.2500   8.5000  30.2500 Du        
    118 ****        -4.2500   8.5000  30.5000 Du        
    119 ****        -4.2500   8.7500  29.5000 Du        
    120 ****        -4.2500   8.7500  29.7500 Du        
    121 ****        -4.2500   8.7500  30.0000 Du        
    122 ****        -4.2500   8.7500  30.2500 Du        
    123 ****        -4.2500   8.7500  30.5000 Du        
    124 ****        -4.2500   9.0000  29.7500 Du        
    125 ****        -4.2500   9.0000  30.0000 Du        
    126 ****        -4.2500   9.0000  30.2500 Du        
    127 ****        -4.2500   9.2500  30.0000 Du        
    128 ****        -4.2500  15.7500  32.7500 Du        
    129 ****        -4.2500  16.0000  32.5000 Du        
    130 ****        -4.2500  16.0000  32.7500 Du        
    131 ****        -4.2500  16.0000  33.0000 Du        
    132 ****        -4.2500  16.2500  32.5000 Du        
    133 ****        -4.2500  16.2500  32.7500 Du        
    134 ****        -4.2500  16.2500  33.0000 Du        
    135 ****        -4.2500  16.2500  33.2500 Du        
    136 ****        -4.2500  16.5000  32.5000 Du        
    137 ****        -4.2500  16.5000  32.7500 Du        
    138 ****        -4.2500  16.5000  33.0000 Du        
    139 ****        -4.2500  16.5000  33.2500 Du        
    140 ****        -4.2500  16.7500  32.7500 Du        
    141 ****        -4.2500  16.7500  33.0000 Du        
    142 ****        -4.2500  16.7500  33.2500 Du        
    143 ****        -4.2500  16.7500  33.5000 Du        
    144 ****        -4.2500  17.0000  33.0000 Du        
    145 ****        -4.2500  17.0000  33.2500 Du        
    146 ****        -4.2500  17.0000  33.5000 Du        
    147 ****        -4.2500  17.0000  33.7500 Du        
    148 ****        -4.2500  17.2500  33.0000 Du        
    149 ****        -4.2500  17.2500  33.2500 Du        
    150 ****        -4.2500  17.2500  33.5000 Du        
    151 ****        -4.2500  17.2500  33.7500 Du        
    152 ****        -4.2500  17.5000  33.0000 Du        
    153 ****        -4.2500  17.5000  33.2500 Du        
    154 ****        -4.2500  17.5000  33.5000 Du        
    155 ****        -4.2500  17.5000  33.7500 Du        
    156 ****        -4.2500  17.7500  33.5000 Du        
    157 ****        -4.2500  17.7500  33.7500 Du        
    158 ****        -4.2500  18.0000  33.5000 Du        
    159 ****        -4.2500  18.0000  33.7500 Du        
    160 ****        -4.0000   0.5000  35.5000 Du        
    161 ****        -4.0000   0.7500  35.5000 Du        
    162 ****        -4.0000   1.0000  35.0000 Du        
    163 ****        -4.0000   1.0000  35.2500 Du        
    164 ****        -4.0000   1.0000  35.5000 Du        
    165 ****        -4.0000   1.2500  35.2500 Du        
    166 ****        -4.0000   1.2500  35.5000 Du        
    167 ****        -4.0000   7.0000  28.5000 Du        
    168 ****        -4.0000   7.0000  28.7500 Du        
    169 ****        -4.0000   7.2500  28.5000 Du        
    170 ****        -4.0000   7.2500  28.7500 Du        
    171 ****        -4.0000   7.2500  29.0000 Du        
    172 ****        -4.0000   7.5000  28.7500 Du        
    173 ****        -4.0000   7.5000  29.0000 Du        
    174 ****        -4.0000   7.5000  29.2500 Du        
    175 ****        -4.0000   7.7500  29.0000 Du        
    176 ****        -4.0000   7.7500  29.2500 Du        
    177 ****        -4.0000   7.7500  29.5000 Du        
    178 ****        -4.0000   7.7500  29.7500 Du        
    179 ****        -4.0000   8.0000  29.2500 Du        
    180 ****        -4.0000   8.0000  29.5000 Du        
    181 ****        -4.0000   8.0000  29.7500 Du        
    182 ****        -4.0000   8.0000  30.0000 Du        
    183 ****        -4.0000   8.0000  30.2500 Du        
    184 ****        -4.0000   8.2500  29.2500 Du        
    185 ****        -4.0000   8.2500  29.5000 Du        
    186 ****        -4.0000   8.2500  29.7500 Du        
    187 ****        -4.0000   8.2500  30.0000 Du        
    188 ****        -4.0000   8.2500  30.2500 Du        
    189 ****        -4.0000   8.2500  30.5000 Du        
    190 ****        -4.0000   8.5000  29.5000 Du        
    191 ****        -4.0000   8.5000  29.7500 Du        
    192 ****        -4.0000   8.5000  30.0000 Du        
    193 ****        -4.0000   8.5000  30.2500 Du        
    194 ****        -4.0000   8.5000  30.5000 Du        
    195 ****        -4.0000   8.7500  29.5000 Du        
    196 ****        -4.0000   8.7500  29.7500 Du        
    197 ****        -4.0000   8.7500  30.0000 Du        
    198 ****        -4.0000   8.7500  30.2500 Du        
    199 ****        -4.0000   8.7500  30.5000 Du        
    200 ****        -4.0000   9.0000  29.7500 Du        
    201 ****        -4.0000   9.0000  30.0000 Du        
    202 ****        -4.0000   9.0000  30.2500 Du        
    203 ****        -4.0000  16.0000  32.5000 Du        
    204 ****        -4.0000  16.0000  33.0000 Du        
    205 ****        -4.0000  16.2500  32.5000 Du        
    206 ****        -4.0000  16.2500  32.7500 Du        
    207 ****        -4.0000  16.2500  33.0000 Du        
    208 ****        -4.0000  16.5000  32.5000 Du        
    209 ****        -4.0000  16.5000  32.7500 Du        
    210 ****        -4.0000  16.5000  33.0000 Du        
    211 ****        -4.0000  16.5000  33.2500 Du        
    212 ****        -4.0000  16.5000  33.5000 Du        
    213 ****        -4.0000  16.7500  32.5000 Du        
    214 ****        -4.0000  16.7500  32.7500 Du        
    215 ****        -4.0000  16.7500  33.0000 Du        
    216 ****        -4.0000  16.7500  33.2500 Du        
    217 ****        -4.0000  16.7500  33.5000 Du        
    218 ****        -4.0000  16.7500  33.7500 Du        
    219 ****        -4.0000  17.0000  32.5000 Du        
    220 ****        -4.0000  17.0000  32.7500 Du        
    221 ****        -4.0000  17.0000  33.0000 Du        
    222 ****        -4.0000  17.0000  33.2500 Du        
    223 ****        -4.0000  17.0000  33.5000 Du        
    224 ****        -4.0000  17.0000  33.7500 Du        
    225 ****        -4.0000  17.2500  32.7500 Du        
    226 ****        -4.0000  17.2500  33.0000 Du        
    227 ****        -4.0000  17.2500  33.2500 Du        
    228 ****        -4.0000  17.2500  33.5000 Du        
    229 ****        -4.0000  17.2500  33.7500 Du        
    230 ****        -4.0000  17.2500  34.0000 Du        
    231 ****        -4.0000  17.5000  33.0000 Du        
    232 ****        -4.0000  17.5000  33.2500 Du        
    233 ****        -4.0000  17.5000  33.5000 Du        
    234 ****        -4.0000  17.5000  33.7500 Du        
    235 ****        -4.0000  17.5000  34.0000 Du        
    236 ****        -4.0000  17.7500  33.0000 Du        
    237 ****        -4.0000  17.7500  33.2500 Du        
    238 ****        -4.0000  17.7500  33.5000 Du        
    239 ****        -4.0000  17.7500  33.7500 Du        
    240 ****        -4.0000  17.7500  34.0000 Du        
    241 ****        -4.0000  18.0000  33.2500 Du        
    242 ****        -4.0000  18.0000  33.5000 Du        
    243 ****        -4.0000  18.0000  33.7500 Du        
    244 ****        -4.0000  18.0000  34.0000 Du        
    245 ****        -4.0000  18.2500  33.5000 Du        
    246 ****        -4.0000  18.2500  33.7500 Du        
    247 ****        -3.7500   0.5000  35.0000 Du        
    248 ****        -3.7500   0.5000  35.2500 Du        
    249 ****        -3.7500   0.5000  35.5000 Du        
    250 ****        -3.7500   0.7500  35.0000 Du        
    251 ****        -3.7500   0.7500  35.2500 Du        
    252 ****        -3.7500   0.7500  35.5000 Du        
    253 ****        -3.7500   1.0000  35.0000 Du        
    254 ****        -3.7500   1.0000  35.2500 Du        
    255 ****        -3.7500   1.0000  35.5000 Du        
    256 ****        -3.7500   1.0000  35.7500 Du        
    257 ****        -3.7500   1.2500  35.5000 Du        
    258 ****        -3.7500   6.7500  28.5000 Du        
    259 ****        -3.7500   6.7500  28.7500 Du        
    260 ****        -3.7500   7.0000  28.5000 Du        
    261 ****        -3.7500   7.0000  28.7500 Du        
    262 ****        -3.7500   7.0000  29.0000 Du        
    263 ****        -3.7500   7.2500  28.5000 Du        
    264 ****        -3.7500   7.2500  28.7500 Du        
    265 ****        -3.7500   7.2500  29.0000 Du        
    266 ****        -3.7500   7.2500  29.2500 Du        
    267 ****        -3.7500   7.5000  28.7500 Du        
    268 ****        -3.7500   7.5000  29.0000 Du        
    269 ****        -3.7500   7.5000  29.2500 Du        
    270 ****        -3.7500   7.5000  29.5000 Du        
    271 ****        -3.7500   7.7500  29.0000 Du        
    272 ****        -3.7500   7.7500  29.2500 Du        
    273 ****        -3.7500   7.7500  29.5000 Du        
    274 ****        -3.7500   7.7500  29.7500 Du        
    275 ****        -3.7500   8.0000  29.2500 Du        
    276 ****        -3.7500   8.0000  29.5000 Du        
    277 ****        -3.7500   8.0000  29.7500 Du        
    278 ****        -3.7500   8.0000  30.0000 Du        
    279 ****        -3.7500   8.0000  30.2500 Du        
    280 ****        -3.7500   8.2500  29.5000 Du        
    281 ****        -3.7500   8.2500  29.7500 Du        
    282 ****        -3.7500   8.2500  30.0000 Du        
    283 ****        -3.7500   8.2500  30.2500 Du        
    284 ****        -3.7500   8.2500  30.5000 Du        
    285 ****        -3.7500   8.5000  29.5000 Du        
    286 ****        -3.7500   8.5000  29.7500 Du        
    287 ****        -3.7500   8.5000  30.0000 Du        
    288 ****        -3.7500   8.5000  30.2500 Du        
    289 ****        -3.7500   8.5000  30.5000 Du        
    290 ****        -3.7500   8.7500  29.7500 Du        
    291 ****        -3.7500   8.7500  30.0000 Du        
    292 ****        -3.7500   8.7500  30.2500 Du        
    293 ****        -3.7500   8.7500  30.5000 Du        
    294 ****        -3.7500   9.0000  30.0000 Du        
    295 ****        -3.7500   9.0000  30.2500 Du        
    296 ****        -3.7500  16.5000  32.5000 Du        
    297 ****        -3.7500  16.5000  32.7500 Du        
    298 ****        -3.7500  16.7500  32.2500 Du        
    299 ****        -3.7500  16.7500  32.5000 Du        
    300 ****        -3.7500  16.7500  32.7500 Du        
    301 ****        -3.7500  16.7500  33.0000 Du        
    302 ****        -3.7500  16.7500  33.2500 Du        
    303 ****        -3.7500  16.7500  33.5000 Du        
    304 ****        -3.7500  16.7500  33.7500 Du        
    305 ****        -3.7500  17.0000  32.2500 Du        
    306 ****        -3.7500  17.0000  32.5000 Du        
    307 ****        -3.7500  17.0000  32.7500 Du        
    308 ****        -3.7500  17.0000  33.0000 Du        
    309 ****        -3.7500  17.0000  33.2500 Du        
    310 ****        -3.7500  17.0000  33.5000 Du        
    311 ****        -3.7500  17.0000  33.7500 Du        
    312 ****        -3.7500  17.0000  34.0000 Du        
    313 ****        -3.7500  17.2500  32.5000 Du        
    314 ****        -3.7500  17.2500  32.7500 Du        
    315 ****        -3.7500  17.2500  33.0000 Du        
    316 ****        -3.7500  17.2500  33.2500 Du        
    317 ****        -3.7500  17.2500  33.5000 Du        
    318 ****        -3.7500  17.2500  33.7500 Du        
    319 ****        -3.7500  17.2500  34.0000 Du        
    320 ****        -3.7500  17.5000  32.7500 Du        
    321 ****        -3.7500  17.5000  33.0000 Du        
    322 ****        -3.7500  17.5000  33.2500 Du        
    323 ****        -3.7500  17.5000  33.5000 Du        
    324 ****        -3.7500  17.5000  33.7500 Du        
    325 ****        -3.7500  17.5000  34.0000 Du        
    326 ****        -3.7500  17.7500  33.0000 Du        
    327 ****        -3.7500  17.7500  33.2500 Du        
    328 ****        -3.7500  17.7500  33.5000 Du        
    329 ****        -3.7500  17.7500  33.7500 Du        
    330 ****        -3.7500  17.7500  34.0000 Du        
    331 ****        -3.7500  17.7500  34.2500 Du        
    332 ****        -3.7500  18.0000  33.0000 Du        
    333 ****        -3.7500  18.0000  33.2500 Du        
    334 ****        -3.7500  18.0000  33.5000 Du        
    335 ****        -3.7500  18.0000  33.7500 Du        
    336 ****        -3.7500  18.0000  34.0000 Du        
    337 ****        -3.7500  18.2500  33.2500 Du        
    338 ****        -3.7500  18.2500  33.5000 Du        
    339 ****        -3.7500  18.2500  33.7500 Du        
    340 ****        -3.7500  18.2500  34.0000 Du        
    341 ****        -3.5000   0.5000  35.0000 Du        
    342 ****        -3.5000   0.5000  35.2500 Du        
    343 ****        -3.5000   0.5000  35.5000 Du        
    344 ****        -3.5000   0.7500  35.0000 Du        
    345 ****        -3.5000   0.7500  35.2500 Du        
    346 ****        -3.5000   0.7500  35.5000 Du        
    347 ****        -3.5000   1.0000  35.2500 Du        
    348 ****        -3.5000   1.0000  35.5000 Du        
    349 ****        -3.5000   1.0000  35.7500 Du        
    350 ****        -3.5000   1.2500  35.5000 Du        
    351 ****        -3.5000   1.2500  35.7500 Du        
    352 ****        -3.5000   1.5000  35.7500 Du        
    353 ****        -3.5000   2.7500  36.5000 Du        
    354 ****        -3.5000   3.0000  36.5000 Du        
    355 ****        -3.5000   6.5000  28.5000 Du        
    356 ****        -3.5000   6.5000  28.7500 Du        
    357 ****        -3.5000   6.7500  28.5000 Du        
    358 ****        -3.5000   6.7500  28.7500 Du        
    359 ****        -3.5000   6.7500  29.0000 Du        
    360 ****        -3.5000   7.0000  28.5000 Du        
    361 ****        -3.5000   7.0000  28.7500 Du        
    362 ****        -3.5000   7.0000  29.0000 Du        
    363 ****        -3.5000   7.2500  28.7500 Du        
    364 ****        -3.5000   7.2500  29.0000 Du        
    365 ****        -3.5000   7.2500  29.2500 Du        
    366 ****        -3.5000   7.5000  28.7500 Du        
    367 ****        -3.5000   7.5000  29.0000 Du        
    368 ****        -3.5000   7.5000  29.2500 Du        
    369 ****        -3.5000   7.5000  29.5000 Du        
    370 ****        -3.5000   7.7500  29.0000 Du        
    371 ****        -3.5000   7.7500  29.2500 Du        
    372 ****        -3.5000   7.7500  29.5000 Du        
    373 ****        -3.5000   7.7500  29.7500 Du        
    374 ****        -3.5000   8.0000  29.2500 Du        
    375 ****        -3.5000   8.0000  29.5000 Du        
    376 ****        -3.5000   8.0000  29.7500 Du        
    377 ****        -3.5000   8.0000  30.0000 Du        
    378 ****        -3.5000   8.0000  30.2500 Du        
    379 ****        -3.5000   8.2500  29.5000 Du        
    380 ****        -3.5000   8.2500  29.7500 Du        
    381 ****        -3.5000   8.2500  30.0000 Du        
    382 ****        -3.5000   8.2500  30.2500 Du        
    383 ****        -3.5000   8.2500  30.5000 Du        
    384 ****        -3.5000   8.5000  29.5000 Du        
    385 ****        -3.5000   8.5000  29.7500 Du        
    386 ****        -3.5000   8.5000  30.0000 Du        
    387 ****        -3.5000   8.5000  30.2500 Du        
    388 ****        -3.5000   8.5000  30.5000 Du        
    389 ****        -3.5000   8.7500  29.7500 Du        
    390 ****        -3.5000   8.7500  30.0000 Du        
    391 ****        -3.5000   8.7500  30.2500 Du        
    392 ****        -3.5000   8.7500  30.5000 Du        
    393 ****        -3.5000   9.0000  30.0000 Du        
    394 ****        -3.5000  15.0000  28.0000 Du        
    395 ****        -3.5000  15.0000  28.2500 Du        
    396 ****        -3.5000  15.2500  28.2500 Du        
    397 ****        -3.5000  15.5000  28.0000 Du        
    398 ****        -3.5000  15.5000  28.2500 Du        
    399 ****        -3.5000  15.5000  28.5000 Du        
    400 ****        -3.5000  15.5000  28.7500 Du        
    401 ****        -3.5000  15.5000  29.0000 Du        
    402 ****        -3.5000  15.7500  28.0000 Du        
    403 ****        -3.5000  15.7500  28.2500 Du        
    404 ****        -3.5000  15.7500  28.5000 Du        
    405 ****        -3.5000  15.7500  28.7500 Du        
    406 ****        -3.5000  15.7500  29.0000 Du        
    407 ****        -3.5000  15.7500  29.2500 Du        
    408 ****        -3.5000  16.0000  27.7500 Du        
    409 ****        -3.5000  16.0000  28.0000 Du        
    410 ****        -3.5000  16.0000  28.2500 Du        
    411 ****        -3.5000  16.0000  28.5000 Du        
    412 ****        -3.5000  16.0000  28.7500 Du        
    413 ****        -3.5000  16.0000  29.0000 Du        
    414 ****        -3.5000  16.2500  28.7500 Du        
    415 ****        -3.5000  16.2500  31.7500 Du        
    416 ****        -3.5000  16.5000  31.5000 Du        
    417 ****        -3.5000  16.5000  31.7500 Du        
    418 ****        -3.5000  16.5000  32.0000 Du        
    419 ****        -3.5000  16.7500  31.5000 Du        
    420 ****        -3.5000  16.7500  31.7500 Du        
    421 ****        -3.5000  16.7500  32.0000 Du        
    422 ****        -3.5000  16.7500  32.2500 Du        
    423 ****        -3.5000  16.7500  32.5000 Du        
    424 ****        -3.5000  16.7500  32.7500 Du        
    425 ****        -3.5000  17.0000  31.5000 Du        
    426 ****        -3.5000  17.0000  31.7500 Du        
    427 ****        -3.5000  17.0000  32.0000 Du        
    428 ****        -3.5000  17.0000  32.2500 Du        
    429 ****        -3.5000  17.0000  32.5000 Du        
    430 ****        -3.5000  17.0000  32.7500 Du        
    431 ****        -3.5000  17.0000  33.0000 Du        
    432 ****        -3.5000  17.0000  33.2500 Du        
    433 ****        -3.5000  17.0000  33.5000 Du        
    434 ****        -3.5000  17.0000  33.7500 Du        
    435 ****        -3.5000  17.0000  34.0000 Du        
    436 ****        -3.5000  17.2500  31.5000 Du        
    437 ****        -3.5000  17.2500  31.7500 Du        
    438 ****        -3.5000  17.2500  32.0000 Du        
    439 ****        -3.5000  17.2500  32.2500 Du        
    440 ****        -3.5000  17.2500  32.5000 Du        
    441 ****        -3.5000  17.2500  32.7500 Du        
    442 ****        -3.5000  17.2500  33.0000 Du        
    443 ****        -3.5000  17.2500  33.2500 Du        
    444 ****        -3.5000  17.2500  33.5000 Du        
    445 ****        -3.5000  17.2500  33.7500 Du        
    446 ****        -3.5000  17.2500  34.0000 Du        
    447 ****        -3.5000  17.2500  34.2500 Du        
    448 ****        -3.5000  17.5000  32.0000 Du        
    449 ****        -3.5000  17.5000  32.2500 Du        
    450 ****        -3.5000  17.5000  32.5000 Du        
    451 ****        -3.5000  17.5000  32.7500 Du        
    452 ****        -3.5000  17.5000  33.0000 Du        
    453 ****        -3.5000  17.5000  33.2500 Du        
    454 ****        -3.5000  17.5000  33.5000 Du        
    455 ****        -3.5000  17.5000  33.7500 Du        
    456 ****        -3.5000  17.5000  34.0000 Du        
    457 ****        -3.5000  17.5000  34.2500 Du        
    458 ****        -3.5000  17.7500  32.0000 Du        
    459 ****        -3.5000  17.7500  32.2500 Du        
    460 ****        -3.5000  17.7500  32.5000 Du        
    461 ****        -3.5000  17.7500  32.7500 Du        
    462 ****        -3.5000  17.7500  33.0000 Du        
    463 ****        -3.5000  17.7500  33.2500 Du        
    464 ****        -3.5000  17.7500  33.5000 Du        
    465 ****        -3.5000  17.7500  33.7500 Du        
    466 ****        -3.5000  17.7500  34.0000 Du        
    467 ****        -3.5000  17.7500  34.2500 Du        
    468 ****        -3.5000  18.0000  32.5000 Du        
    469 ****        -3.5000  18.0000  32.7500 Du        
    470 ****        -3.5000  18.0000  33.0000 Du        
    471 ****        -3.5000  18.0000  33.2500 Du        
    472 ****        -3.5000  18.0000  33.5000 Du        
    473 ****        -3.5000  18.0000  33.7500 Du        
    474 ****        -3.5000  18.0000  34.0000 Du        
    475 ****        -3.5000  18.0000  34.2500 Du        
    476 ****        -3.5000  18.2500  32.7500 Du        
    477 ****        -3.5000  18.2500  33.0000 Du        
    478 ****        -3.5000  18.2500  33.2500 Du        
    479 ****        -3.5000  18.2500  33.5000 Du        
    480 ****        -3.5000  18.2500  33.7500 Du        
    481 ****        -3.5000  18.2500  34.0000 Du        
    482 ****        -3.5000  18.5000  33.2500 Du        
    483 ****        -3.5000  18.5000  33.5000 Du        
    484 ****        -3.5000  18.5000  33.7500 Du        
    485 ****        -3.2500   0.5000  35.0000 Du        
    486 ****        -3.2500   0.5000  35.2500 Du        
    487 ****        -3.2500   0.5000  35.5000 Du        
    488 ****        -3.2500   0.7500  35.0000 Du        
    489 ****        -3.2500   0.7500  35.2500 Du        
    490 ****        -3.2500   0.7500  35.5000 Du        
    491 ****        -3.2500   0.7500  35.7500 Du        
    492 ****        -3.2500   1.0000  35.5000 Du        
    493 ****        -3.2500   1.0000  35.7500 Du        
    494 ****        -3.2500   1.2500  35.5000 Du        
    495 ****        -3.2500   1.2500  35.7500 Du        
    496 ****        -3.2500   1.5000  35.7500 Du        
    497 ****        -3.2500   1.5000  36.0000 Du        
    498 ****        -3.2500   1.7500  36.0000 Du        
    499 ****        -3.2500   2.0000  36.2500 Du        
    500 ****        -3.2500   2.2500  36.2500 Du        
    501 ****        -3.2500   2.2500  36.5000 Du        
    502 ****        -3.2500   2.5000  36.5000 Du        
    503 ****        -3.2500   2.7500  36.5000 Du        
    504 ****        -3.2500   2.7500  36.7500 Du        
    505 ****        -3.2500   3.0000  36.5000 Du        
    506 ****        -3.2500   3.0000  36.7500 Du        
    507 ****        -3.2500   3.2500  36.5000 Du        
    508 ****        -3.2500   3.2500  36.7500 Du        
    509 ****        -3.2500   3.2500  37.0000 Du        
    510 ****        -3.2500   3.5000  36.7500 Du        
    511 ****        -3.2500   6.7500  28.5000 Du        
    512 ****        -3.2500   6.7500  28.7500 Du        
    513 ****        -3.2500   6.7500  29.0000 Du        
    514 ****        -3.2500   7.0000  28.7500 Du        
    515 ****        -3.2500   7.0000  29.0000 Du        
    516 ****        -3.2500   7.2500  28.7500 Du        
    517 ****        -3.2500   7.2500  29.0000 Du        
    518 ****        -3.2500   7.2500  29.2500 Du        
    519 ****        -3.2500   7.5000  29.0000 Du        
    520 ****        -3.2500   7.5000  29.2500 Du        
    521 ****        -3.2500   7.5000  29.5000 Du        
    522 ****        -3.2500   7.7500  29.2500 Du        
    523 ****        -3.2500   7.7500  29.5000 Du        
    524 ****        -3.2500   7.7500  29.7500 Du        
    525 ****        -3.2500   8.0000  29.5000 Du        
    526 ****        -3.2500   8.0000  29.7500 Du        
    527 ****        -3.2500   8.0000  30.0000 Du        
    528 ****        -3.2500   8.0000  30.2500 Du        
    529 ****        -3.2500   8.2500  29.5000 Du        
    530 ****        -3.2500   8.2500  29.7500 Du        
    531 ****        -3.2500   8.2500  30.0000 Du        
    532 ****        -3.2500   8.2500  30.2500 Du        
    533 ****        -3.2500   8.2500  30.5000 Du        
    534 ****        -3.2500   8.5000  29.7500 Du        
    535 ****        -3.2500   8.5000  30.0000 Du        
    536 ****        -3.2500   8.5000  30.2500 Du        
    537 ****        -3.2500   8.5000  30.5000 Du        
    538 ****        -3.2500   8.7500  30.0000 Du        
    539 ****        -3.2500   8.7500  30.2500 Du        
    540 ****        -3.2500  15.0000  28.2500 Du        
    541 ****        -3.2500  15.2500  28.2500 Du        
    542 ****        -3.2500  15.2500  28.5000 Du        
    543 ****        -3.2500  15.5000  28.0000 Du        
    544 ****        -3.2500  15.5000  28.2500 Du        
    545 ****        -3.2500  15.5000  28.5000 Du        
    546 ****        -3.2500  15.5000  28.7500 Du        
    547 ****        -3.2500  15.7500  28.0000 Du        
    548 ****        -3.2500  15.7500  28.2500 Du        
    549 ****        -3.2500  15.7500  28.5000 Du        
    550 ****        -3.2500  15.7500  28.7500 Du        
    551 ****        -3.2500  15.7500  29.0000 Du        
    552 ****        -3.2500  15.7500  29.2500 Du        
    553 ****        -3.2500  16.0000  27.7500 Du        
    554 ****        -3.2500  16.0000  28.0000 Du        
    555 ****        -3.2500  16.0000  28.2500 Du        
    556 ****        -3.2500  16.0000  28.5000 Du        
    557 ****        -3.2500  16.0000  28.7500 Du        
    558 ****        -3.2500  16.0000  29.0000 Du        
    559 ****        -3.2500  16.0000  29.2500 Du        
    560 ****        -3.2500  16.2500  28.0000 Du        
    561 ****        -3.2500  16.2500  28.2500 Du        
    562 ****        -3.2500  16.2500  28.5000 Du        
    563 ****        -3.2500  16.2500  28.7500 Du        
    564 ****        -3.2500  16.2500  29.0000 Du        
    565 ****        -3.2500  16.2500  29.2500 Du        
    566 ****        -3.2500  16.2500  29.7500 Du        
    567 ****        -3.2500  16.2500  30.2500 Du        
    568 ****        -3.2500  16.2500  30.5000 Du        
    569 ****        -3.2500  16.2500  31.0000 Du        
    570 ****        -3.2500  16.5000  30.0000 Du        
    571 ****        -3.2500  16.5000  30.2500 Du        
    572 ****        -3.2500  16.5000  30.5000 Du        
    573 ****        -3.2500  16.5000  30.7500 Du        
    574 ****        -3.2500  16.5000  31.0000 Du        
    575 ****        -3.2500  16.5000  31.2500 Du        
    576 ****        -3.2500  16.5000  31.5000 Du        
    577 ****        -3.2500  16.5000  31.7500 Du        
    578 ****        -3.2500  16.7500  27.7500 Du        
    579 ****        -3.2500  16.7500  30.0000 Du        
    580 ****        -3.2500  16.7500  30.2500 Du        
    581 ****        -3.2500  16.7500  30.5000 Du        
    582 ****        -3.2500  16.7500  30.7500 Du        
    583 ****        -3.2500  16.7500  31.0000 Du        
    584 ****        -3.2500  16.7500  31.2500 Du        
    585 ****        -3.2500  16.7500  31.5000 Du        
    586 ****        -3.2500  16.7500  31.7500 Du        
    587 ****        -3.2500  16.7500  32.0000 Du        
    588 ****        -3.2500  17.0000  30.0000 Du        
    589 ****        -3.2500  17.0000  30.2500 Du        
    590 ****        -3.2500  17.0000  30.5000 Du        
    591 ****        -3.2500  17.0000  30.7500 Du        
    592 ****        -3.2500  17.0000  31.0000 Du        
    593 ****        -3.2500  17.0000  31.2500 Du        
    594 ****        -3.2500  17.0000  31.5000 Du        
    595 ****        -3.2500  17.0000  31.7500 Du        
    596 ****        -3.2500  17.0000  32.0000 Du        
    597 ****        -3.2500  17.0000  32.2500 Du        
    598 ****        -3.2500  17.0000  32.5000 Du        
    599 ****        -3.2500  17.2500  30.7500 Du        
    600 ****        -3.2500  17.2500  31.0000 Du        
    601 ****        -3.2500  17.2500  31.5000 Du        
    602 ****        -3.2500  17.2500  31.7500 Du        
    603 ****        -3.2500  17.2500  32.0000 Du        
    604 ****        -3.2500  17.2500  32.2500 Du        
    605 ****        -3.2500  17.2500  32.5000 Du        
    606 ****        -3.2500  17.2500  32.7500 Du        
    607 ****        -3.2500  17.2500  33.0000 Du        
    608 ****        -3.2500  17.2500  33.2500 Du        
    609 ****        -3.2500  17.2500  33.5000 Du        
    610 ****        -3.2500  17.2500  33.7500 Du        
    611 ****        -3.2500  17.2500  34.0000 Du        
    612 ****        -3.2500  17.2500  34.2500 Du        
    613 ****        -3.2500  17.5000  31.5000 Du        
    614 ****        -3.2500  17.5000  31.7500 Du        
    615 ****        -3.2500  17.5000  32.0000 Du        
    616 ****        -3.2500  17.5000  32.2500 Du        
    617 ****        -3.2500  17.5000  32.5000 Du        
    618 ****        -3.2500  17.5000  32.7500 Du        
    619 ****        -3.2500  17.5000  33.0000 Du        
    620 ****        -3.2500  17.5000  33.2500 Du        
    621 ****        -3.2500  17.5000  33.5000 Du        
    622 ****        -3.2500  17.5000  33.7500 Du        
    623 ****        -3.2500  17.5000  34.0000 Du        
    624 ****        -3.2500  17.5000  34.2500 Du        
    625 ****        -3.2500  17.5000  34.5000 Du        
    626 ****        -3.2500  17.7500  31.5000 Du        
    627 ****        -3.2500  17.7500  31.7500 Du        
    628 ****        -3.2500  17.7500  32.0000 Du        
    629 ****        -3.2500  17.7500  32.2500 Du        
    630 ****        -3.2500  17.7500  32.5000 Du        
    631 ****        -3.2500  17.7500  32.7500 Du        
    632 ****        -3.2500  17.7500  33.0000 Du        
    633 ****        -3.2500  17.7500  33.2500 Du        
    634 ****        -3.2500  17.7500  33.5000 Du        
    635 ****        -3.2500  17.7500  33.7500 Du        
    636 ****        -3.2500  17.7500  34.0000 Du        
    637 ****        -3.2500  17.7500  34.2500 Du        
    638 ****        -3.2500  17.7500  34.5000 Du        
    639 ****        -3.2500  18.0000  31.7500 Du        
    640 ****        -3.2500  18.0000  32.0000 Du        
    641 ****        -3.2500  18.0000  32.2500 Du        
    642 ****        -3.2500  18.0000  32.5000 Du        
    643 ****        -3.2500  18.0000  32.7500 Du        
    644 ****        -3.2500  18.0000  33.0000 Du        
    645 ****        -3.2500  18.0000  33.2500 Du        
    646 ****        -3.2500  18.0000  33.5000 Du        
    647 ****        -3.2500  18.0000  33.7500 Du        
    648 ****        -3.2500  18.0000  34.0000 Du        
    649 ****        -3.2500  18.0000  34.2500 Du        
    650 ****        -3.2500  18.0000  34.5000 Du        
    651 ****        -3.2500  18.2500  31.7500 Du        
    652 ****        -3.2500  18.2500  32.0000 Du        
    653 ****        -3.2500  18.2500  32.2500 Du        
    654 ****        -3.2500  18.2500  32.5000 Du        
    655 ****        -3.2500  18.2500  32.7500 Du        
    656 ****        -3.2500  18.2500  33.0000 Du        
    657 ****        -3.2500  18.2500  33.2500 Du        
    658 ****        -3.2500  18.2500  33.5000 Du        
    659 ****        -3.2500  18.2500  33.7500 Du        
    660 ****        -3.2500  18.2500  34.0000 Du        
    661 ****        -3.2500  18.2500  34.2500 Du        
    662 ****        -3.2500  18.5000  33.0000 Du        
    663 ****        -3.2500  18.5000  33.2500 Du        
    664 ****        -3.2500  18.5000  33.5000 Du        
    665 ****        -3.2500  18.5000  33.7500 Du        
    666 ****        -3.2500  18.5000  34.0000 Du        
    667 ****        -3.2500  18.7500  33.0000 Du        
    668 ****        -3.2500  18.7500  33.2500 Du        
    669 ****        -3.2500  18.7500  33.5000 Du        
    670 ****        -3.0000   0.7500  35.2500 Du        
    671 ****        -3.0000   0.7500  35.5000 Du        
    672 ****        -3.0000   0.7500  35.7500 Du        
    673 ****        -3.0000   1.0000  35.5000 Du        
    674 ****        -3.0000   1.0000  35.7500 Du        
    675 ****        -3.0000   1.2500  35.7500 Du        
    676 ****        -3.0000   1.2500  36.0000 Du        
    677 ****        -3.0000   1.5000  35.7500 Du        
    678 ****        -3.0000   1.5000  36.0000 Du        
    679 ****        -3.0000   1.7500  36.0000 Du        
    680 ****        -3.0000   1.7500  36.2500 Du        
    681 ****        -3.0000   2.0000  36.2500 Du        
    682 ****        -3.0000   2.0000  36.5000 Du        
    683 ****        -3.0000   2.2500  36.2500 Du        
    684 ****        -3.0000   2.2500  36.5000 Du        
    685 ****        -3.0000   2.5000  36.5000 Du        
    686 ****        -3.0000   2.5000  36.7500 Du        
    687 ****        -3.0000   2.7500  36.5000 Du        
    688 ****        -3.0000   2.7500  36.7500 Du        
    689 ****        -3.0000   2.7500  37.0000 Du        
    690 ****        -3.0000   3.0000  36.5000 Du        
    691 ****        -3.0000   3.0000  36.7500 Du        
    692 ****        -3.0000   3.0000  37.0000 Du        
    693 ****        -3.0000   3.2500  36.5000 Du        
    694 ****        -3.0000   3.2500  36.7500 Du        
    695 ****        -3.0000   3.2500  37.0000 Du        
    696 ****        -3.0000   3.2500  37.2500 Du        
    697 ****        -3.0000   3.5000  36.7500 Du        
    698 ****        -3.0000   3.5000  37.0000 Du        
    699 ****        -3.0000   7.0000  28.7500 Du        
    700 ****        -3.0000   7.0000  29.0000 Du        
    701 ****        -3.0000   7.2500  29.0000 Du        
    702 ****        -3.0000   7.2500  29.2500 Du        
    703 ****        -3.0000   7.5000  29.2500 Du        
    704 ****        -3.0000   7.5000  29.5000 Du        
    705 ****        -3.0000   7.7500  29.2500 Du        
    706 ****        -3.0000   7.7500  29.5000 Du        
    707 ****        -3.0000   7.7500  29.7500 Du        
    708 ****        -3.0000   8.0000  29.5000 Du        
    709 ****        -3.0000   8.0000  29.7500 Du        
    710 ****        -3.0000   8.0000  30.0000 Du        
    711 ****        -3.0000   8.0000  30.2500 Du        
    712 ****        -3.0000   8.2500  29.7500 Du        
    713 ****        -3.0000   8.2500  30.0000 Du        
    714 ****        -3.0000   8.2500  30.2500 Du        
    715 ****        -3.0000   8.2500  30.5000 Du        
    716 ****        -3.0000   8.5000  29.7500 Du        
    717 ****        -3.0000   8.5000  30.0000 Du        
    718 ****        -3.0000   8.5000  30.2500 Du        
    719 ****        -3.0000   8.5000  30.5000 Du        
    720 ****        -3.0000   8.7500  30.0000 Du        
    721 ****        -3.0000   8.7500  30.2500 Du        
    722 ****        -3.0000  15.5000  28.2500 Du        
    723 ****        -3.0000  15.5000  28.5000 Du        
    724 ****        -3.0000  15.5000  28.7500 Du        
    725 ****        -3.0000  15.7500  28.2500 Du        
    726 ****        -3.0000  15.7500  28.5000 Du        
    727 ****        -3.0000  15.7500  28.7500 Du        
    728 ****        -3.0000  15.7500  29.0000 Du        
    729 ****        -3.0000  15.7500  29.2500 Du        
    730 ****        -3.0000  16.0000  28.0000 Du        
    731 ****        -3.0000  16.0000  28.2500 Du        
    732 ****        -3.0000  16.0000  28.5000 Du        
    733 ****        -3.0000  16.0000  28.7500 Du        
    734 ****        -3.0000  16.0000  29.0000 Du        
    735 ****        -3.0000  16.0000  29.2500 Du        
    736 ****        -3.0000  16.2500  28.2500 Du        
    737 ****        -3.0000  16.2500  28.5000 Du        
    738 ****        -3.0000  16.2500  28.7500 Du        
    739 ****        -3.0000  16.2500  29.0000 Du        
    740 ****        -3.0000  16.2500  29.2500 Du        
    741 ****        -3.0000  16.2500  29.5000 Du        
    742 ****        -3.0000  16.2500  29.7500 Du        
    743 ****        -3.0000  16.2500  30.0000 Du        
    744 ****        -3.0000  16.2500  30.2500 Du        
    745 ****        -3.0000  16.5000  28.7500 Du        
    746 ****        -3.0000  16.5000  29.0000 Du        
    747 ****        -3.0000  16.5000  29.2500 Du        
    748 ****        -3.0000  16.5000  29.5000 Du        
    749 ****        -3.0000  16.5000  29.7500 Du        
    750 ****        -3.0000  16.5000  30.0000 Du        
    751 ****        -3.0000  16.5000  30.2500 Du        
    752 ****        -3.0000  16.5000  30.5000 Du        
    753 ****        -3.0000  16.5000  30.7500 Du        
    754 ****        -3.0000  16.5000  31.0000 Du        
    755 ****        -3.0000  16.7500  28.7500 Du        
    756 ****        -3.0000  16.7500  29.0000 Du        
    757 ****        -3.0000  16.7500  29.2500 Du        
    758 ****        -3.0000  16.7500  29.5000 Du        
    759 ****        -3.0000  16.7500  29.7500 Du        
    760 ****        -3.0000  16.7500  30.0000 Du        
    761 ****        -3.0000  16.7500  30.2500 Du        
    762 ****        -3.0000  16.7500  30.5000 Du        
    763 ****        -3.0000  16.7500  30.7500 Du        
    764 ****        -3.0000  16.7500  31.0000 Du        
    765 ****        -3.0000  16.7500  31.2500 Du        
    766 ****        -3.0000  16.7500  31.5000 Du        
    767 ****        -3.0000  17.0000  29.0000 Du        
    768 ****        -3.0000  17.0000  29.2500 Du        
    769 ****        -3.0000  17.0000  29.5000 Du        
    770 ****        -3.0000  17.0000  29.7500 Du        
    771 ****        -3.0000  17.0000  30.0000 Du        
    772 ****        -3.0000  17.0000  30.2500 Du        
    773 ****        -3.0000  17.0000  30.5000 Du        
    774 ****        -3.0000  17.0000  30.7500 Du        
    775 ****        -3.0000  17.0000  31.0000 Du        
    776 ****        -3.0000  17.0000  31.2500 Du        
    777 ****        -3.0000  17.0000  31.5000 Du        
    778 ****        -3.0000  17.0000  31.7500 Du        
    779 ****        -3.0000  17.2500  29.2500 Du        
    780 ****        -3.0000  17.2500  29.7500 Du        
    781 ****        -3.0000  17.2500  30.0000 Du        
    782 ****        -3.0000  17.2500  30.2500 Du        
    783 ****        -3.0000  17.2500  30.5000 Du        
    784 ****        -3.0000  17.2500  30.7500 Du        
    785 ****        -3.0000  17.2500  31.0000 Du        
    786 ****        -3.0000  17.2500  31.2500 Du        
    787 ****        -3.0000  17.2500  31.5000 Du        
    788 ****        -3.0000  17.2500  31.7500 Du        
    789 ****        -3.0000  17.2500  32.0000 Du        
    790 ****        -3.0000  17.2500  32.2500 Du        
    791 ****        -3.0000  17.5000  29.2500 Du        
    792 ****        -3.0000  17.5000  30.0000 Du        
    793 ****        -3.0000  17.5000  30.7500 Du        
    794 ****        -3.0000  17.5000  31.0000 Du        
    795 ****        -3.0000  17.5000  31.2500 Du        
    796 ****        -3.0000  17.5000  31.5000 Du        
    797 ****        -3.0000  17.5000  31.7500 Du        
    798 ****        -3.0000  17.5000  32.0000 Du        
    799 ****        -3.0000  17.5000  32.2500 Du        
    800 ****        -3.0000  17.5000  32.5000 Du        
    801 ****        -3.0000  17.5000  32.7500 Du        
    802 ****        -3.0000  17.5000  33.0000 Du        
    803 ****        -3.0000  17.5000  33.2500 Du        
    804 ****        -3.0000  17.5000  33.5000 Du        
    805 ****        -3.0000  17.5000  33.7500 Du        
    806 ****        -3.0000  17.5000  34.0000 Du        
    807 ****        -3.0000  17.5000  34.2500 Du        
    808 ****        -3.0000  17.5000  34.5000 Du        
    809 ****        -3.0000  17.7500  31.5000 Du        
    810 ****        -3.0000  17.7500  31.7500 Du        
    811 ****        -3.0000  17.7500  32.0000 Du        
    812 ****        -3.0000  17.7500  32.2500 Du        
    813 ****        -3.0000  17.7500  32.5000 Du        
    814 ****        -3.0000  17.7500  32.7500 Du        
    815 ****        -3.0000  17.7500  33.0000 Du        
    816 ****        -3.0000  17.7500  33.2500 Du        
    817 ****        -3.0000  17.7500  33.5000 Du        
    818 ****        -3.0000  17.7500  33.7500 Du        
    819 ****        -3.0000  17.7500  34.0000 Du        
    820 ****        -3.0000  17.7500  34.2500 Du        
    821 ****        -3.0000  17.7500  34.5000 Du        
    822 ****        -3.0000  17.7500  34.7500 Du        
    823 ****        -3.0000  18.0000  31.5000 Du        
    824 ****        -3.0000  18.0000  31.7500 Du        
    825 ****        -3.0000  18.0000  32.0000 Du        
    826 ****        -3.0000  18.0000  32.2500 Du        
    827 ****        -3.0000  18.0000  32.5000 Du        
    828 ****        -3.0000  18.0000  32.7500 Du        
    829 ****        -3.0000  18.0000  33.0000 Du        
    830 ****        -3.0000  18.0000  33.2500 Du        
    831 ****        -3.0000  18.0000  33.5000 Du        
    832 ****        -3.0000  18.0000  33.7500 Du        
    833 ****        -3.0000  18.0000  34.0000 Du        
    834 ****        -3.0000  18.0000  34.2500 Du        
    835 ****        -3.0000  18.0000  34.5000 Du        
    836 ****        -3.0000  18.2500  31.5000 Du        
    837 ****        -3.0000  18.2500  31.7500 Du        
    838 ****        -3.0000  18.2500  32.0000 Du        
    839 ****        -3.0000  18.2500  32.2500 Du        
    840 ****        -3.0000  18.2500  32.5000 Du        
    841 ****        -3.0000  18.2500  32.7500 Du        
    842 ****        -3.0000  18.2500  33.0000 Du        
    843 ****        -3.0000  18.2500  33.2500 Du        
    844 ****        -3.0000  18.2500  33.5000 Du        
    845 ****        -3.0000  18.2500  33.7500 Du        
    846 ****        -3.0000  18.2500  34.0000 Du        
    847 ****        -3.0000  18.2500  34.2500 Du        
    848 ****        -3.0000  18.2500  34.5000 Du        
    849 ****        -3.0000  18.5000  32.7500 Du        
    850 ****        -3.0000  18.5000  33.0000 Du        
    851 ****        -3.0000  18.5000  33.2500 Du        
    852 ****        -3.0000  18.5000  33.5000 Du        
    853 ****        -3.0000  18.5000  33.7500 Du        
    854 ****        -3.0000  18.5000  34.0000 Du        
    855 ****        -3.0000  18.7500  33.0000 Du        
    856 ****        -3.0000  18.7500  33.2500 Du        
    857 ****        -3.0000  18.7500  33.5000 Du        
    858 ****        -3.0000  18.7500  33.7500 Du        
    859 ****        -2.7500   0.7500  35.2500 Du        
    860 ****        -2.7500   0.7500  35.5000 Du        
    861 ****        -2.7500   0.7500  35.7500 Du        
    862 ****        -2.7500   1.0000  35.5000 Du        
    863 ****        -2.7500   1.0000  35.7500 Du        
    864 ****        -2.7500   1.2500  35.7500 Du        
    865 ****        -2.7500   1.2500  36.0000 Du        
    866 ****        -2.7500   1.5000  35.7500 Du        
    867 ****        -2.7500   1.5000  36.0000 Du        
    868 ****        -2.7500   1.5000  36.2500 Du        
    869 ****        -2.7500   1.7500  36.0000 Du        
    870 ****        -2.7500   1.7500  36.2500 Du        
    871 ****        -2.7500   2.0000  36.2500 Du        
    872 ****        -2.7500   2.0000  36.5000 Du        
    873 ****        -2.7500   2.2500  36.2500 Du        
    874 ****        -2.7500   2.2500  36.5000 Du        
    875 ****        -2.7500   2.2500  36.7500 Du        
    876 ****        -2.7500   2.5000  36.5000 Du        
    877 ****        -2.7500   2.5000  36.7500 Du        
    878 ****        -2.7500   2.5000  37.0000 Du        
    879 ****        -2.7500   2.7500  36.5000 Du        
    880 ****        -2.7500   2.7500  36.7500 Du        
    881 ****        -2.7500   2.7500  37.0000 Du        
    882 ****        -2.7500   2.7500  37.2500 Du        
    883 ****        -2.7500   3.0000  36.5000 Du        
    884 ****        -2.7500   3.0000  36.7500 Du        
    885 ****        -2.7500   3.0000  37.0000 Du        
    886 ****        -2.7500   3.0000  37.2500 Du        
    887 ****        -2.7500   3.2500  36.5000 Du        
    888 ****        -2.7500   3.2500  36.7500 Du        
    889 ****        -2.7500   3.2500  37.0000 Du        
    890 ****        -2.7500   3.2500  37.2500 Du        
    891 ****        -2.7500   3.5000  36.7500 Du        
    892 ****        -2.7500   3.5000  37.0000 Du        
    893 ****        -2.7500   3.5000  37.2500 Du        
    894 ****        -2.7500   7.2500  29.2500 Du        
    895 ****        -2.7500   7.5000  29.5000 Du        
    896 ****        -2.7500   7.7500  29.5000 Du        
    897 ****        -2.7500   7.7500  29.7500 Du        
    898 ****        -2.7500   8.0000  29.5000 Du        
    899 ****        -2.7500   8.0000  29.7500 Du        
    900 ****        -2.7500   8.0000  30.0000 Du        
    901 ****        -2.7500   8.0000  30.2500 Du        
    902 ****        -2.7500   8.2500  29.7500 Du        
    903 ****        -2.7500   8.2500  30.0000 Du        
    904 ****        -2.7500   8.2500  30.2500 Du        
    905 ****        -2.7500   8.5000  30.0000 Du        
    906 ****        -2.7500   8.5000  30.2500 Du        
    907 ****        -2.7500   8.5000  30.5000 Du        
    908 ****        -2.7500   8.7500  30.0000 Du        
    909 ****        -2.7500   8.7500  30.2500 Du        
    910 ****        -2.7500  16.0000  28.5000 Du        
    911 ****        -2.7500  16.0000  28.7500 Du        
    912 ****        -2.7500  16.0000  29.0000 Du        
    913 ****        -2.7500  16.0000  29.2500 Du        
    914 ****        -2.7500  16.2500  29.0000 Du        
    915 ****        -2.7500  16.2500  29.2500 Du        
    916 ****        -2.7500  16.2500  29.7500 Du        
    917 ****        -2.7500  16.5000  29.2500 Du        
    918 ****        -2.7500  16.5000  29.5000 Du        
    919 ****        -2.7500  16.5000  29.7500 Du        
    920 ****        -2.7500  16.5000  30.0000 Du        
    921 ****        -2.7500  16.5000  30.2500 Du        
    922 ****        -2.7500  16.5000  30.5000 Du        
    923 ****        -2.7500  16.7500  29.2500 Du        
    924 ****        -2.7500  16.7500  29.5000 Du        
    925 ****        -2.7500  16.7500  29.7500 Du        
    926 ****        -2.7500  16.7500  30.0000 Du        
    927 ****        -2.7500  16.7500  30.2500 Du        
    928 ****        -2.7500  16.7500  30.5000 Du        
    929 ****        -2.7500  16.7500  30.7500 Du        
    930 ****        -2.7500  17.0000  29.2500 Du        
    931 ****        -2.7500  17.0000  29.5000 Du        
    932 ****        -2.7500  17.0000  29.7500 Du        
    933 ****        -2.7500  17.0000  30.0000 Du        
    934 ****        -2.7500  17.0000  30.2500 Du        
    935 ****        -2.7500  17.0000  30.5000 Du        
    936 ****        -2.7500  17.0000  30.7500 Du        
    937 ****        -2.7500  17.0000  31.0000 Du        
    938 ****        -2.7500  17.2500  29.2500 Du        
    939 ****        -2.7500  17.2500  29.5000 Du        
    940 ****        -2.7500  17.2500  29.7500 Du        
    941 ****        -2.7500  17.2500  30.0000 Du        
    942 ****        -2.7500  17.2500  30.2500 Du        
    943 ****        -2.7500  17.2500  30.5000 Du        
    944 ****        -2.7500  17.2500  30.7500 Du        
    945 ****        -2.7500  17.2500  31.0000 Du        
    946 ****        -2.7500  17.5000  29.0000 Du        
    947 ****        -2.7500  17.5000  29.2500 Du        
    948 ****        -2.7500  17.5000  29.5000 Du        
    949 ****        -2.7500  17.5000  29.7500 Du        
    950 ****        -2.7500  17.5000  30.0000 Du        
    951 ****        -2.7500  17.5000  30.2500 Du        
    952 ****        -2.7500  17.5000  30.5000 Du        
    953 ****        -2.7500  17.5000  30.7500 Du        
    954 ****        -2.7500  17.5000  31.0000 Du        
    955 ****        -2.7500  17.5000  34.5000 Du        
    956 ****        -2.7500  17.7500  29.0000 Du        
    957 ****        -2.7500  17.7500  29.2500 Du        
    958 ****        -2.7500  17.7500  29.5000 Du        
    959 ****        -2.7500  17.7500  29.7500 Du        
    960 ****        -2.7500  17.7500  30.0000 Du        
    961 ****        -2.7500  17.7500  30.2500 Du        
    962 ****        -2.7500  17.7500  30.5000 Du        
    963 ****        -2.7500  17.7500  30.7500 Du        
    964 ****        -2.7500  17.7500  31.0000 Du        
    965 ****        -2.7500  17.7500  31.2500 Du        
    966 ****        -2.7500  17.7500  31.5000 Du        
    967 ****        -2.7500  17.7500  31.7500 Du        
    968 ****        -2.7500  17.7500  32.0000 Du        
    969 ****        -2.7500  17.7500  32.2500 Du        
    970 ****        -2.7500  17.7500  33.0000 Du        
    971 ****        -2.7500  17.7500  33.2500 Du        
    972 ****        -2.7500  17.7500  33.5000 Du        
    973 ****        -2.7500  17.7500  33.7500 Du        
    974 ****        -2.7500  17.7500  34.0000 Du        
    975 ****        -2.7500  17.7500  34.2500 Du        
    976 ****        -2.7500  17.7500  34.5000 Du        
    977 ****        -2.7500  17.7500  34.7500 Du        
    978 ****        -2.7500  18.0000  29.0000 Du        
    979 ****        -2.7500  18.0000  29.2500 Du        
    980 ****        -2.7500  18.0000  29.5000 Du        
    981 ****        -2.7500  18.0000  29.7500 Du        
    982 ****        -2.7500  18.0000  30.0000 Du        
    983 ****        -2.7500  18.0000  30.2500 Du        
    984 ****        -2.7500  18.0000  30.7500 Du        
    985 ****        -2.7500  18.0000  31.0000 Du        
    986 ****        -2.7500  18.0000  31.7500 Du        
    987 ****        -2.7500  18.0000  32.0000 Du        
    988 ****        -2.7500  18.0000  32.2500 Du        
    989 ****        -2.7500  18.0000  32.5000 Du        
    990 ****        -2.7500  18.0000  32.7500 Du        
    991 ****        -2.7500  18.0000  33.0000 Du        
    992 ****        -2.7500  18.0000  33.2500 Du        
    993 ****        -2.7500  18.0000  33.5000 Du        
    994 ****        -2.7500  18.0000  33.7500 Du        
    995 ****        -2.7500  18.0000  34.0000 Du        
    996 ****        -2.7500  18.0000  34.2500 Du        
    997 ****        -2.7500  18.0000  34.5000 Du        
    998 ****        -2.7500  18.0000  34.7500 Du        
    999 ****        -2.7500  18.2500  29.2500 Du        
   1000 ****        -2.7500  18.2500  29.7500 Du        
   1001 ****        -2.7500  18.2500  30.0000 Du        
   1002 ****        -2.7500  18.2500  30.2500 Du        
   1003 ****        -2.7500  18.2500  31.7500 Du        
   1004 ****        -2.7500  18.2500  32.0000 Du        
   1005 ****        -2.7500  18.2500  32.2500 Du        
   1006 ****        -2.7500  18.2500  32.5000 Du        
   1007 ****        -2.7500  18.2500  32.7500 Du        
   1008 ****        -2.7500  18.2500  33.0000 Du        
   1009 ****        -2.7500  18.2500  33.2500 Du        
   1010 ****        -2.7500  18.2500  33.5000 Du        
   1011 ****        -2.7500  18.2500  33.7500 Du        
   1012 ****        -2.7500  18.2500  34.0000 Du        
   1013 ****        -2.7500  18.2500  34.2500 Du        
   1014 ****        -2.7500  18.2500  34.5000 Du        
   1015 ****        -2.7500  18.5000  33.0000 Du        
   1016 ****        -2.7500  18.5000  33.2500 Du        
   1017 ****        -2.7500  18.5000  33.5000 Du        
   1018 ****        -2.7500  18.5000  33.7500 Du        
   1019 ****        -2.7500  18.5000  34.0000 Du        
   1020 ****        -2.7500  18.5000  34.2500 Du        
   1021 ****        -2.7500  18.7500  33.2500 Du        
   1022 ****        -2.7500  18.7500  33.5000 Du        
   1023 ****        -2.7500  18.7500  33.7500 Du        
   1024 ****        -2.7500  18.7500  34.0000 Du        
   1025 ****        -2.5000   1.0000  35.7500 Du        
   1026 ****        -2.5000   1.2500  35.7500 Du        
   1027 ****        -2.5000   1.2500  36.0000 Du        
   1028 ****        -2.5000   1.5000  36.0000 Du        
   1029 ****        -2.5000   1.7500  36.0000 Du        
   1030 ****        -2.5000   1.7500  36.2500 Du        
   1031 ****        -2.5000   2.0000  36.2500 Du        
   1032 ****        -2.5000   2.0000  36.5000 Du        
   1033 ****        -2.5000   2.2500  36.2500 Du        
   1034 ****        -2.5000   2.2500  36.5000 Du        
   1035 ****        -2.5000   2.2500  36.7500 Du        
   1036 ****        -2.5000   2.5000  36.5000 Du        
   1037 ****        -2.5000   2.5000  36.7500 Du        
   1038 ****        -2.5000   2.5000  37.0000 Du        
   1039 ****        -2.5000   2.7500  36.5000 Du        
   1040 ****        -2.5000   2.7500  36.7500 Du        
   1041 ****        -2.5000   2.7500  37.0000 Du        
   1042 ****        -2.5000   2.7500  37.2500 Du        
   1043 ****        -2.5000   3.0000  36.5000 Du        
   1044 ****        -2.5000   3.0000  36.7500 Du        
   1045 ****        -2.5000   3.0000  37.0000 Du        
   1046 ****        -2.5000   3.0000  37.2500 Du        
   1047 ****        -2.5000   3.0000  37.5000 Du        
   1048 ****        -2.5000   3.2500  36.7500 Du        
   1049 ****        -2.5000   3.2500  37.0000 Du        
   1050 ****        -2.5000   3.2500  37.2500 Du        
   1051 ****        -2.5000   3.2500  37.5000 Du        
   1052 ****        -2.5000   3.5000  36.7500 Du        
   1053 ****        -2.5000   3.5000  37.0000 Du        
   1054 ****        -2.5000   3.5000  37.2500 Du        
   1055 ****        -2.5000   7.5000  29.5000 Du        
   1056 ****        -2.5000   7.7500  29.5000 Du        
   1057 ****        -2.5000   7.7500  29.7500 Du        
   1058 ****        -2.5000   7.7500  30.0000 Du        
   1059 ****        -2.5000   8.0000  29.7500 Du        
   1060 ****        -2.5000   8.0000  30.0000 Du        
   1061 ****        -2.5000   8.0000  30.2500 Du        
   1062 ****        -2.5000   8.2500  29.7500 Du        
   1063 ****        -2.5000   8.2500  30.0000 Du        
   1064 ****        -2.5000   8.2500  30.2500 Du        
   1065 ****        -2.5000   8.2500  30.5000 Du        
   1066 ****        -2.5000   8.5000  30.0000 Du        
   1067 ****        -2.5000   8.5000  30.2500 Du        
   1068 ****        -2.5000   8.5000  30.5000 Du        
   1069 ****        -2.5000   8.7500  30.2500 Du        
   1070 ****        -2.5000   8.7500  30.5000 Du        
   1071 ****        -2.5000  16.5000  29.5000 Du        
   1072 ****        -2.5000  16.5000  29.7500 Du        
   1073 ****        -2.5000  16.5000  30.0000 Du        
   1074 ****        -2.5000  16.5000  30.2500 Du        
   1075 ****        -2.5000  16.7500  29.5000 Du        
   1076 ****        -2.5000  16.7500  29.7500 Du        
   1077 ****        -2.5000  16.7500  30.0000 Du        
   1078 ****        -2.5000  16.7500  30.2500 Du        
   1079 ****        -2.5000  16.7500  30.5000 Du        
   1080 ****        -2.5000  17.0000  29.5000 Du        
   1081 ****        -2.5000  17.0000  29.7500 Du        
   1082 ****        -2.5000  17.0000  30.0000 Du        
   1083 ****        -2.5000  17.0000  30.2500 Du        
   1084 ****        -2.5000  17.0000  30.5000 Du        
   1085 ****        -2.5000  17.0000  30.7500 Du        
   1086 ****        -2.5000  17.2500  29.2500 Du        
   1087 ****        -2.5000  17.2500  29.5000 Du        
   1088 ****        -2.5000  17.2500  29.7500 Du        
   1089 ****        -2.5000  17.2500  30.0000 Du        
   1090 ****        -2.5000  17.2500  30.2500 Du        
   1091 ****        -2.5000  17.2500  30.5000 Du        
   1092 ****        -2.5000  17.2500  30.7500 Du        
   1093 ****        -2.5000  17.5000  29.2500 Du        
   1094 ****        -2.5000  17.5000  29.5000 Du        
   1095 ****        -2.5000  17.5000  29.7500 Du        
   1096 ****        -2.5000  17.5000  30.0000 Du        
   1097 ****        -2.5000  17.5000  30.2500 Du        
   1098 ****        -2.5000  17.5000  30.5000 Du        
   1099 ****        -2.5000  17.5000  30.7500 Du        
   1100 ****        -2.5000  17.7500  29.2500 Du        
   1101 ****        -2.5000  17.7500  29.5000 Du        
   1102 ****        -2.5000  17.7500  29.7500 Du        
   1103 ****        -2.5000  17.7500  30.0000 Du        
   1104 ****        -2.5000  17.7500  30.2500 Du        
   1105 ****        -2.5000  17.7500  30.5000 Du        
   1106 ****        -2.5000  17.7500  30.7500 Du        
   1107 ****        -2.5000  17.7500  31.0000 Du        
   1108 ****        -2.5000  17.7500  34.2500 Du        
   1109 ****        -2.5000  17.7500  34.5000 Du        
   1110 ****        -2.5000  17.7500  34.7500 Du        
   1111 ****        -2.5000  17.7500  35.0000 Du        
   1112 ****        -2.5000  18.0000  29.0000 Du        
   1113 ****        -2.5000  18.0000  29.2500 Du        
   1114 ****        -2.5000  18.0000  29.5000 Du        
   1115 ****        -2.5000  18.0000  29.7500 Du        
   1116 ****        -2.5000  18.0000  30.0000 Du        
   1117 ****        -2.5000  18.0000  30.2500 Du        
   1118 ****        -2.5000  18.0000  30.5000 Du        
   1119 ****        -2.5000  18.0000  30.7500 Du        
   1120 ****        -2.5000  18.0000  31.0000 Du        
   1121 ****        -2.5000  18.0000  31.2500 Du        
   1122 ****        -2.5000  18.0000  33.7500 Du        
   1123 ****        -2.5000  18.0000  34.0000 Du        
   1124 ****        -2.5000  18.0000  34.2500 Du        
   1125 ****        -2.5000  18.0000  34.5000 Du        
   1126 ****        -2.5000  18.0000  34.7500 Du        
   1127 ****        -2.5000  18.0000  35.0000 Du        
   1128 ****        -2.5000  18.2500  28.5000 Du        
   1129 ****        -2.5000  18.2500  28.7500 Du        
   1130 ****        -2.5000  18.2500  29.0000 Du        
   1131 ****        -2.5000  18.2500  29.2500 Du        
   1132 ****        -2.5000  18.2500  29.5000 Du        
   1133 ****        -2.5000  18.2500  29.7500 Du        
   1134 ****        -2.5000  18.2500  30.0000 Du        
   1135 ****        -2.5000  18.2500  30.2500 Du        
   1136 ****        -2.5000  18.2500  30.5000 Du        
   1137 ****        -2.5000  18.2500  30.7500 Du        
   1138 ****        -2.5000  18.2500  31.0000 Du        
   1139 ****        -2.5000  18.2500  31.2500 Du        
   1140 ****        -2.5000  18.2500  31.5000 Du        
   1141 ****        -2.5000  18.2500  33.2500 Du        
   1142 ****        -2.5000  18.2500  33.5000 Du        
   1143 ****        -2.5000  18.2500  33.7500 Du        
   1144 ****        -2.5000  18.2500  34.0000 Du        
   1145 ****        -2.5000  18.2500  34.2500 Du        
   1146 ****        -2.5000  18.2500  34.5000 Du        
   1147 ****        -2.5000  18.2500  34.7500 Du        
   1148 ****        -2.5000  18.5000  28.7500 Du        
   1149 ****        -2.5000  18.5000  29.0000 Du        
   1150 ****        -2.5000  18.5000  29.2500 Du        
   1151 ****        -2.5000  18.5000  29.5000 Du        
   1152 ****        -2.5000  18.5000  29.7500 Du        
   1153 ****        -2.5000  18.5000  30.0000 Du        
   1154 ****        -2.5000  18.5000  30.2500 Du        
   1155 ****        -2.5000  18.5000  30.5000 Du        
   1156 ****        -2.5000  18.5000  30.7500 Du        
   1157 ****        -2.5000  18.5000  31.0000 Du        
   1158 ****        -2.5000  18.5000  33.5000 Du        
   1159 ****        -2.5000  18.5000  33.7500 Du        
   1160 ****        -2.5000  18.5000  34.0000 Du        
   1161 ****        -2.5000  18.5000  34.2500 Du        
   1162 ****        -2.5000  18.5000  34.5000 Du        
   1163 ****        -2.5000  18.7500  28.0000 Du        
   1164 ****        -2.5000  18.7500  28.2500 Du        
   1165 ****        -2.5000  18.7500  28.5000 Du        
   1166 ****        -2.5000  18.7500  28.7500 Du        
   1167 ****        -2.5000  18.7500  29.0000 Du        
   1168 ****        -2.5000  18.7500  29.2500 Du        
   1169 ****        -2.5000  18.7500  29.5000 Du        
   1170 ****        -2.5000  18.7500  29.7500 Du        
   1171 ****        -2.5000  18.7500  30.0000 Du        
   1172 ****        -2.5000  18.7500  30.2500 Du        
   1173 ****        -2.5000  18.7500  30.5000 Du        
   1174 ****        -2.5000  18.7500  30.7500 Du        
   1175 ****        -2.5000  18.7500  31.0000 Du        
   1176 ****        -2.5000  18.7500  33.5000 Du        
   1177 ****        -2.5000  18.7500  33.7500 Du        
   1178 ****        -2.5000  18.7500  34.0000 Du        
   1179 ****        -2.5000  19.0000  28.0000 Du        
   1180 ****        -2.5000  19.0000  28.2500 Du        
   1181 ****        -2.5000  19.0000  28.5000 Du        
   1182 ****        -2.5000  19.0000  28.7500 Du        
   1183 ****        -2.5000  19.0000  29.0000 Du        
   1184 ****        -2.5000  19.0000  29.2500 Du        
   1185 ****        -2.5000  19.0000  29.5000 Du        
   1186 ****        -2.5000  19.0000  29.7500 Du        
   1187 ****        -2.5000  19.0000  30.0000 Du        
   1188 ****        -2.5000  19.0000  30.2500 Du        
   1189 ****        -2.5000  19.0000  30.5000 Du        
   1190 ****        -2.5000  19.0000  30.7500 Du        
   1191 ****        -2.5000  19.2500  28.0000 Du        
   1192 ****        -2.5000  19.2500  28.2500 Du        
   1193 ****        -2.5000  19.2500  28.5000 Du        
   1194 ****        -2.5000  19.2500  28.7500 Du        
   1195 ****        -2.5000  19.2500  29.0000 Du        
   1196 ****        -2.5000  19.2500  29.2500 Du        
   1197 ****        -2.5000  19.2500  29.5000 Du        
   1198 ****        -2.5000  19.2500  29.7500 Du        
   1199 ****        -2.5000  19.2500  30.0000 Du        
   1200 ****        -2.5000  19.2500  30.2500 Du        
   1201 ****        -2.5000  19.5000  29.0000 Du        
   1202 ****        -2.5000  19.7500  28.0000 Du        
   1203 ****        -2.5000  19.7500  28.2500 Du        
   1204 ****        -2.5000  19.7500  28.5000 Du        
   1205 ****        -2.5000  19.7500  28.7500 Du        
   1206 ****        -2.5000  20.0000  28.0000 Du        
   1207 ****        -2.5000  20.0000  28.2500 Du        
   1208 ****        -2.5000  20.0000  28.5000 Du        
   1209 ****        -2.5000  20.2500  28.0000 Du        
   1210 ****        -2.5000  20.2500  28.2500 Du        
   1211 ****        -2.5000  20.2500  28.5000 Du        
   1212 ****        -2.5000  21.5000  32.5000 Du        
   1213 ****        -2.5000  21.5000  32.7500 Du        
   1214 ****        -2.5000  21.5000  33.0000 Du        
   1215 ****        -2.5000  21.5000  33.2500 Du        
   1216 ****        -2.5000  21.7500  32.5000 Du        
   1217 ****        -2.5000  21.7500  32.7500 Du        
   1218 ****        -2.5000  21.7500  33.0000 Du        
   1219 ****        -2.5000  21.7500  33.2500 Du        
   1220 ****        -2.5000  21.7500  33.5000 Du        
   1221 ****        -2.2500   1.0000  35.7500 Du        
   1222 ****        -2.2500   1.0000  36.0000 Du        
   1223 ****        -2.2500   1.2500  35.7500 Du        
   1224 ****        -2.2500   1.2500  36.0000 Du        
   1225 ****        -2.2500   1.5000  35.7500 Du        
   1226 ****        -2.2500   1.5000  36.0000 Du        
   1227 ****        -2.2500   1.5000  36.2500 Du        
   1228 ****        -2.2500   1.7500  36.0000 Du        
   1229 ****        -2.2500   1.7500  36.2500 Du        
   1230 ****        -2.2500   1.7500  36.5000 Du        
   1231 ****        -2.2500   2.0000  36.0000 Du        
   1232 ****        -2.2500   2.0000  36.2500 Du        
   1233 ****        -2.2500   2.0000  36.5000 Du        
   1234 ****        -2.2500   2.0000  36.7500 Du        
   1235 ****        -2.2500   2.2500  36.2500 Du        
   1236 ****        -2.2500   2.2500  36.5000 Du        
   1237 ****        -2.2500   2.2500  36.7500 Du        
   1238 ****        -2.2500   2.2500  37.0000 Du        
   1239 ****        -2.2500   2.5000  36.2500 Du        
   1240 ****        -2.2500   2.5000  36.5000 Du        
   1241 ****        -2.2500   2.5000  36.7500 Du        
   1242 ****        -2.2500   2.5000  37.0000 Du        
   1243 ****        -2.2500   2.5000  37.2500 Du        
   1244 ****        -2.2500   2.7500  36.5000 Du        
   1245 ****        -2.2500   2.7500  36.7500 Du        
   1246 ****        -2.2500   2.7500  37.0000 Du        
   1247 ****        -2.2500   2.7500  37.2500 Du        
   1248 ****        -2.2500   2.7500  37.5000 Du        
   1249 ****        -2.2500   3.0000  36.5000 Du        
   1250 ****        -2.2500   3.0000  36.7500 Du        
   1251 ****        -2.2500   3.0000  37.0000 Du        
   1252 ****        -2.2500   3.0000  37.2500 Du        
   1253 ****        -2.2500   3.0000  37.5000 Du        
   1254 ****        -2.2500   3.0000  37.7500 Du        
   1255 ****        -2.2500   3.2500  36.7500 Du        
   1256 ****        -2.2500   3.2500  37.0000 Du        
   1257 ****        -2.2500   3.2500  37.2500 Du        
   1258 ****        -2.2500   3.2500  37.5000 Du        
   1259 ****        -2.2500   3.2500  37.7500 Du        
   1260 ****        -2.2500   3.2500  38.0000 Du        
   1261 ****        -2.2500   3.5000  37.0000 Du        
   1262 ****        -2.2500   7.7500  29.7500 Du        
   1263 ****        -2.2500   7.7500  30.0000 Du        
   1264 ****        -2.2500   8.0000  29.7500 Du        
   1265 ****        -2.2500   8.0000  30.0000 Du        
   1266 ****        -2.2500   8.0000  30.2500 Du        
   1267 ****        -2.2500   8.2500  30.0000 Du        
   1268 ****        -2.2500   8.2500  30.2500 Du        
   1269 ****        -2.2500   8.2500  30.5000 Du        
   1270 ****        -2.2500   8.5000  30.0000 Du        
   1271 ****        -2.2500   8.5000  30.2500 Du        
   1272 ****        -2.2500   8.5000  30.5000 Du        
   1273 ****        -2.2500   8.7500  30.2500 Du        
   1274 ****        -2.2500   8.7500  30.5000 Du        
   1275 ****        -2.2500  16.7500  30.0000 Du        
   1276 ****        -2.2500  17.0000  29.7500 Du        
   1277 ****        -2.2500  17.0000  30.0000 Du        
   1278 ****        -2.2500  17.0000  30.2500 Du        
   1279 ****        -2.2500  17.2500  29.7500 Du        
   1280 ****        -2.2500  17.2500  30.0000 Du        
   1281 ****        -2.2500  17.2500  30.2500 Du        
   1282 ****        -2.2500  17.2500  30.5000 Du        
   1283 ****        -2.2500  17.5000  29.7500 Du        
   1284 ****        -2.2500  17.5000  30.0000 Du        
   1285 ****        -2.2500  17.5000  30.2500 Du        
   1286 ****        -2.2500  17.5000  30.5000 Du        
   1287 ****        -2.2500  17.7500  29.5000 Du        
   1288 ****        -2.2500  17.7500  29.7500 Du        
   1289 ****        -2.2500  17.7500  30.0000 Du        
   1290 ****        -2.2500  17.7500  30.2500 Du        
   1291 ****        -2.2500  17.7500  30.5000 Du        
   1292 ****        -2.2500  17.7500  30.7500 Du        
   1293 ****        -2.2500  17.7500  34.7500 Du        
   1294 ****        -2.2500  17.7500  35.0000 Du        
   1295 ****        -2.2500  18.0000  29.2500 Du        
   1296 ****        -2.2500  18.0000  29.5000 Du        
   1297 ****        -2.2500  18.0000  29.7500 Du        
   1298 ****        -2.2500  18.0000  30.0000 Du        
   1299 ****        -2.2500  18.0000  30.2500 Du        
   1300 ****        -2.2500  18.0000  30.5000 Du        
   1301 ****        -2.2500  18.0000  30.7500 Du        
   1302 ****        -2.2500  18.0000  34.2500 Du        
   1303 ****        -2.2500  18.0000  34.5000 Du        
   1304 ****        -2.2500  18.0000  34.7500 Du        
   1305 ****        -2.2500  18.0000  35.0000 Du        
   1306 ****        -2.2500  18.0000  35.2500 Du        
   1307 ****        -2.2500  18.2500  29.0000 Du        
   1308 ****        -2.2500  18.2500  29.2500 Du        
   1309 ****        -2.2500  18.2500  29.5000 Du        
   1310 ****        -2.2500  18.2500  29.7500 Du        
   1311 ****        -2.2500  18.2500  30.0000 Du        
   1312 ****        -2.2500  18.2500  30.2500 Du        
   1313 ****        -2.2500  18.2500  30.5000 Du        
   1314 ****        -2.2500  18.2500  30.7500 Du        
   1315 ****        -2.2500  18.2500  31.0000 Du        
   1316 ****        -2.2500  18.2500  34.0000 Du        
   1317 ****        -2.2500  18.2500  34.2500 Du        
   1318 ****        -2.2500  18.2500  34.5000 Du        
   1319 ****        -2.2500  18.2500  34.7500 Du        
   1320 ****        -2.2500  18.2500  35.0000 Du        
   1321 ****        -2.2500  18.5000  29.2500 Du        
   1322 ****        -2.2500  18.5000  29.5000 Du        
   1323 ****        -2.2500  18.5000  29.7500 Du        
   1324 ****        -2.2500  18.5000  30.0000 Du        
   1325 ****        -2.2500  18.5000  30.2500 Du        
   1326 ****        -2.2500  18.5000  30.5000 Du        
   1327 ****        -2.2500  18.5000  30.7500 Du        
   1328 ****        -2.2500  18.5000  31.0000 Du        
   1329 ****        -2.2500  18.5000  34.2500 Du        
   1330 ****        -2.2500  18.5000  34.5000 Du        
   1331 ****        -2.2500  18.5000  34.7500 Du        
   1332 ****        -2.2500  18.7500  28.2500 Du        
   1333 ****        -2.2500  18.7500  28.7500 Du        
   1334 ****        -2.2500  18.7500  29.0000 Du        
   1335 ****        -2.2500  18.7500  29.2500 Du        
   1336 ****        -2.2500  18.7500  29.5000 Du        
   1337 ****        -2.2500  18.7500  29.7500 Du        
   1338 ****        -2.2500  18.7500  30.0000 Du        
   1339 ****        -2.2500  18.7500  30.2500 Du        
   1340 ****        -2.2500  18.7500  30.5000 Du        
   1341 ****        -2.2500  18.7500  30.7500 Du        
   1342 ****        -2.2500  18.7500  31.0000 Du        
   1343 ****        -2.2500  19.0000  27.7500 Du        
   1344 ****        -2.2500  19.0000  28.0000 Du        
   1345 ****        -2.2500  19.0000  28.2500 Du        
   1346 ****        -2.2500  19.0000  28.5000 Du        
   1347 ****        -2.2500  19.0000  28.7500 Du        
   1348 ****        -2.2500  19.0000  29.0000 Du        
   1349 ****        -2.2500  19.0000  29.2500 Du        
   1350 ****        -2.2500  19.0000  29.5000 Du        
   1351 ****        -2.2500  19.0000  29.7500 Du        
   1352 ****        -2.2500  19.0000  30.0000 Du        
   1353 ****        -2.2500  19.0000  30.2500 Du        
   1354 ****        -2.2500  19.0000  30.5000 Du        
   1355 ****        -2.2500  19.0000  30.7500 Du        
   1356 ****        -2.2500  19.2500  28.0000 Du        
   1357 ****        -2.2500  19.2500  28.2500 Du        
   1358 ****        -2.2500  19.2500  28.5000 Du        
   1359 ****        -2.2500  19.2500  28.7500 Du        
   1360 ****        -2.2500  19.2500  29.0000 Du        
   1361 ****        -2.2500  19.2500  29.2500 Du        
   1362 ****        -2.2500  19.2500  29.5000 Du        
   1363 ****        -2.2500  19.2500  29.7500 Du        
   1364 ****        -2.2500  19.2500  30.0000 Du        
   1365 ****        -2.2500  19.2500  30.2500 Du        
   1366 ****        -2.2500  19.2500  30.5000 Du        
   1367 ****        -2.2500  19.5000  28.0000 Du        
   1368 ****        -2.2500  19.5000  28.2500 Du        
   1369 ****        -2.2500  19.5000  28.5000 Du        
   1370 ****        -2.2500  19.5000  28.7500 Du        
   1371 ****        -2.2500  19.5000  29.0000 Du        
   1372 ****        -2.2500  19.5000  29.2500 Du        
   1373 ****        -2.2500  19.5000  29.5000 Du        
   1374 ****        -2.2500  19.5000  29.7500 Du        
   1375 ****        -2.2500  19.7500  28.0000 Du        
   1376 ****        -2.2500  19.7500  28.2500 Du        
   1377 ****        -2.2500  19.7500  28.5000 Du        
   1378 ****        -2.2500  19.7500  28.7500 Du        
   1379 ****        -2.2500  19.7500  29.0000 Du        
   1380 ****        -2.2500  19.7500  29.2500 Du        
   1381 ****        -2.2500  19.7500  29.5000 Du        
   1382 ****        -2.2500  19.7500  29.7500 Du        
   1383 ****        -2.2500  20.0000  27.7500 Du        
   1384 ****        -2.2500  20.0000  28.0000 Du        
   1385 ****        -2.2500  20.0000  28.2500 Du        
   1386 ****        -2.2500  20.0000  28.5000 Du        
   1387 ****        -2.2500  20.0000  28.7500 Du        
   1388 ****        -2.2500  20.0000  29.0000 Du        
   1389 ****        -2.2500  20.0000  29.2500 Du        
   1390 ****        -2.2500  20.0000  29.5000 Du        
   1391 ****        -2.2500  20.0000  29.7500 Du        
   1392 ****        -2.2500  20.0000  30.0000 Du        
   1393 ****        -2.2500  20.2500  27.7500 Du        
   1394 ****        -2.2500  20.2500  28.0000 Du        
   1395 ****        -2.2500  20.2500  28.2500 Du        
   1396 ****        -2.2500  20.2500  28.5000 Du        
   1397 ****        -2.2500  20.2500  28.7500 Du        
   1398 ****        -2.2500  20.2500  29.0000 Du        
   1399 ****        -2.2500  20.2500  29.2500 Du        
   1400 ****        -2.2500  20.2500  29.5000 Du        
   1401 ****        -2.2500  20.2500  29.7500 Du        
   1402 ****        -2.2500  20.5000  27.7500 Du        
   1403 ****        -2.2500  20.5000  28.0000 Du        
   1404 ****        -2.2500  20.5000  28.2500 Du        
   1405 ****        -2.2500  20.5000  28.5000 Du        
   1406 ****        -2.2500  20.5000  28.7500 Du        
   1407 ****        -2.2500  20.5000  29.0000 Du        
   1408 ****        -2.2500  20.5000  29.2500 Du        
   1409 ****        -2.2500  20.7500  28.0000 Du        
   1410 ****        -2.2500  20.7500  28.2500 Du        
   1411 ****        -2.2500  20.7500  28.5000 Du        
   1412 ****        -2.2500  20.7500  28.7500 Du        
   1413 ****        -2.2500  20.7500  29.0000 Du        
   1414 ****        -2.2500  21.5000  32.5000 Du        
   1415 ****        -2.2500  21.5000  32.7500 Du        
   1416 ****        -2.2500  21.5000  33.0000 Du        
   1417 ****        -2.2500  21.5000  33.2500 Du        
   1418 ****        -2.2500  21.5000  33.5000 Du        
   1419 ****        -2.2500  21.7500  32.5000 Du        
   1420 ****        -2.2500  21.7500  32.7500 Du        
   1421 ****        -2.2500  21.7500  33.0000 Du        
   1422 ****        -2.2500  21.7500  33.2500 Du        
   1423 ****        -2.2500  21.7500  33.5000 Du        
   1424 ****        -2.2500  21.7500  33.7500 Du        
   1425 ****        -2.2500  22.0000  32.5000 Du        
   1426 ****        -2.2500  22.0000  32.7500 Du        
   1427 ****        -2.2500  22.0000  33.0000 Du        
   1428 ****        -2.2500  22.0000  33.2500 Du        
   1429 ****        -2.2500  22.0000  33.5000 Du        
   1430 ****        -2.2500  22.0000  33.7500 Du        
   1431 ****        -2.2500  22.0000  34.0000 Du        
   1432 ****        -2.0000   1.0000  35.7500 Du        
   1433 ****        -2.0000   1.0000  36.0000 Du        
   1434 ****        -2.0000   1.2500  35.7500 Du        
   1435 ****        -2.0000   1.2500  36.0000 Du        
   1436 ****        -2.0000   1.5000  35.7500 Du        
   1437 ****        -2.0000   1.5000  36.0000 Du        
   1438 ****        -2.0000   1.5000  36.2500 Du        
   1439 ****        -2.0000   1.7500  36.0000 Du        
   1440 ****        -2.0000   1.7500  36.2500 Du        
   1441 ****        -2.0000   1.7500  36.5000 Du        
   1442 ****        -2.0000   2.0000  36.0000 Du        
   1443 ****        -2.0000   2.0000  36.2500 Du        
   1444 ****        -2.0000   2.0000  36.5000 Du        
   1445 ****        -2.0000   2.0000  36.7500 Du        
   1446 ****        -2.0000   2.2500  36.2500 Du        
   1447 ****        -2.0000   2.2500  36.5000 Du        
   1448 ****        -2.0000   2.2500  36.7500 Du        
   1449 ****        -2.0000   2.2500  37.0000 Du        
   1450 ****        -2.0000   2.5000  36.2500 Du        
   1451 ****        -2.0000   2.5000  36.5000 Du        
   1452 ****        -2.0000   2.5000  36.7500 Du        
   1453 ****        -2.0000   2.5000  37.0000 Du        
   1454 ****        -2.0000   2.5000  37.2500 Du        
   1455 ****        -2.0000   2.7500  36.5000 Du        
   1456 ****        -2.0000   2.7500  36.7500 Du        
   1457 ****        -2.0000   2.7500  37.0000 Du        
   1458 ****        -2.0000   2.7500  37.2500 Du        
   1459 ****        -2.0000   2.7500  37.5000 Du        
   1460 ****        -2.0000   2.7500  37.7500 Du        
   1461 ****        -2.0000   3.0000  36.7500 Du        
   1462 ****        -2.0000   3.0000  37.0000 Du        
   1463 ****        -2.0000   3.0000  37.2500 Du        
   1464 ****        -2.0000   3.0000  37.5000 Du        
   1465 ****        -2.0000   3.0000  37.7500 Du        
   1466 ****        -2.0000   3.0000  38.0000 Du        
   1467 ****        -2.0000   3.2500  36.7500 Du        
   1468 ****        -2.0000   3.2500  37.0000 Du        
   1469 ****        -2.0000   3.2500  37.2500 Du        
   1470 ****        -2.0000   3.2500  37.5000 Du        
   1471 ****        -2.0000   3.2500  37.7500 Du        
   1472 ****        -2.0000   3.2500  38.0000 Du        
   1473 ****        -2.0000   3.2500  38.2500 Du        
   1474 ****        -2.0000   7.7500  29.7500 Du        
   1475 ****        -2.0000   7.7500  30.0000 Du        
   1476 ****        -2.0000   8.0000  29.7500 Du        
   1477 ****        -2.0000   8.0000  30.0000 Du        
   1478 ****        -2.0000   8.0000  30.2500 Du        
   1479 ****        -2.0000   8.2500  30.0000 Du        
   1480 ****        -2.0000   8.2500  30.2500 Du        
   1481 ****        -2.0000   8.2500  30.5000 Du        
   1482 ****        -2.0000   8.5000  30.2500 Du        
   1483 ****        -2.0000   8.5000  30.5000 Du        
   1484 ****        -2.0000   8.7500  30.2500 Du        
   1485 ****        -2.0000   8.7500  30.5000 Du        
   1486 ****        -2.0000  17.5000  30.0000 Du        
   1487 ****        -2.0000  17.5000  30.2500 Du        
   1488 ****        -2.0000  17.7500  30.0000 Du        
   1489 ****        -2.0000  17.7500  30.2500 Du        
   1490 ****        -2.0000  18.0000  29.7500 Du        
   1491 ****        -2.0000  18.0000  30.0000 Du        
   1492 ****        -2.0000  18.0000  30.2500 Du        
   1493 ****        -2.0000  18.0000  30.5000 Du        
   1494 ****        -2.0000  18.0000  34.7500 Du        
   1495 ****        -2.0000  18.0000  35.0000 Du        
   1496 ****        -2.0000  18.0000  35.2500 Du        
   1497 ****        -2.0000  18.2500  29.7500 Du        
   1498 ****        -2.0000  18.2500  30.0000 Du        
   1499 ****        -2.0000  18.2500  30.2500 Du        
   1500 ****        -2.0000  18.2500  30.5000 Du        
   1501 ****        -2.0000  18.2500  34.5000 Du        
   1502 ****        -2.0000  18.2500  34.7500 Du        
   1503 ****        -2.0000  18.2500  35.0000 Du        
   1504 ****        -2.0000  18.2500  35.2500 Du        
   1505 ****        -2.0000  18.5000  29.7500 Du        
   1506 ****        -2.0000  18.5000  30.0000 Du        
   1507 ****        -2.0000  18.5000  30.2500 Du        
   1508 ****        -2.0000  18.5000  30.5000 Du        
   1509 ****        -2.0000  18.5000  34.5000 Du        
   1510 ****        -2.0000  18.5000  34.7500 Du        
   1511 ****        -2.0000  18.5000  35.0000 Du        
   1512 ****        -2.0000  18.7500  29.5000 Du        
   1513 ****        -2.0000  18.7500  29.7500 Du        
   1514 ****        -2.0000  18.7500  30.0000 Du        
   1515 ****        -2.0000  18.7500  30.2500 Du        
   1516 ****        -2.0000  18.7500  30.5000 Du        
   1517 ****        -2.0000  19.0000  29.5000 Du        
   1518 ****        -2.0000  19.0000  29.7500 Du        
   1519 ****        -2.0000  19.0000  30.0000 Du        
   1520 ****        -2.0000  19.0000  30.2500 Du        
   1521 ****        -2.0000  19.2500  29.5000 Du        
   1522 ****        -2.0000  19.2500  29.7500 Du        
   1523 ****        -2.0000  19.2500  30.0000 Du        
   1524 ****        -2.0000  19.2500  30.2500 Du        
   1525 ****        -2.0000  19.7500  28.0000 Du        
   1526 ****        -2.0000  19.7500  28.2500 Du        
   1527 ****        -2.0000  19.7500  28.5000 Du        
   1528 ****        -2.0000  19.7500  28.7500 Du        
   1529 ****        -2.0000  19.7500  29.0000 Du        
   1530 ****        -2.0000  19.7500  29.5000 Du        
   1531 ****        -2.0000  20.0000  28.0000 Du        
   1532 ****        -2.0000  20.0000  28.2500 Du        
   1533 ****        -2.0000  20.0000  28.5000 Du        
   1534 ****        -2.0000  20.0000  28.7500 Du        
   1535 ****        -2.0000  20.0000  29.0000 Du        
   1536 ****        -2.0000  20.0000  29.2500 Du        
   1537 ****        -2.0000  20.0000  29.5000 Du        
   1538 ****        -2.0000  20.0000  29.7500 Du        
   1539 ****        -2.0000  20.2500  27.7500 Du        
   1540 ****        -2.0000  20.2500  28.0000 Du        
   1541 ****        -2.0000  20.2500  28.2500 Du        
   1542 ****        -2.0000  20.2500  28.5000 Du        
   1543 ****        -2.0000  20.2500  28.7500 Du        
   1544 ****        -2.0000  20.2500  29.0000 Du        
   1545 ****        -2.0000  20.2500  29.2500 Du        
   1546 ****        -2.0000  20.2500  29.5000 Du        
   1547 ****        -2.0000  20.2500  29.7500 Du        
   1548 ****        -2.0000  20.5000  27.7500 Du        
   1549 ****        -2.0000  20.5000  28.0000 Du        
   1550 ****        -2.0000  20.5000  28.2500 Du        
   1551 ****        -2.0000  20.5000  28.5000 Du        
   1552 ****        -2.0000  20.5000  28.7500 Du        
   1553 ****        -2.0000  20.5000  29.0000 Du        
   1554 ****        -2.0000  20.5000  29.2500 Du        
   1555 ****        -2.0000  20.5000  29.5000 Du        
   1556 ****        -2.0000  20.7500  27.7500 Du        
   1557 ****        -2.0000  20.7500  28.0000 Du        
   1558 ****        -2.0000  20.7500  28.2500 Du        
   1559 ****        -2.0000  20.7500  28.5000 Du        
   1560 ****        -2.0000  20.7500  28.7500 Du        
   1561 ****        -2.0000  20.7500  29.0000 Du        
   1562 ****        -2.0000  20.7500  29.2500 Du        
   1563 ****        -2.0000  21.5000  32.5000 Du        
   1564 ****        -2.0000  21.5000  32.7500 Du        
   1565 ****        -2.0000  21.5000  33.0000 Du        
   1566 ****        -2.0000  21.5000  33.2500 Du        
   1567 ****        -2.0000  21.5000  33.5000 Du        
   1568 ****        -2.0000  21.7500  32.0000 Du        
   1569 ****        -2.0000  21.7500  32.2500 Du        
   1570 ****        -2.0000  21.7500  32.5000 Du        
   1571 ****        -2.0000  21.7500  32.7500 Du        
   1572 ****        -2.0000  21.7500  33.0000 Du        
   1573 ****        -2.0000  21.7500  33.2500 Du        
   1574 ****        -2.0000  21.7500  33.5000 Du        
   1575 ****        -2.0000  21.7500  33.7500 Du        
   1576 ****        -2.0000  21.7500  34.0000 Du        
   1577 ****        -2.0000  22.0000  32.0000 Du        
   1578 ****        -2.0000  22.0000  32.2500 Du        
   1579 ****        -2.0000  22.0000  32.5000 Du        
   1580 ****        -2.0000  22.0000  32.7500 Du        
   1581 ****        -2.0000  22.0000  33.0000 Du        
   1582 ****        -2.0000  22.0000  33.2500 Du        
   1583 ****        -2.0000  22.0000  33.5000 Du        
   1584 ****        -2.0000  22.0000  33.7500 Du        
   1585 ****        -2.0000  22.0000  34.0000 Du        
   1586 ****        -2.0000  22.0000  34.2500 Du        
   1587 ****        -2.0000  22.2500  33.7500 Du        
   1588 ****        -2.0000  22.2500  34.0000 Du        
   1589 ****        -2.0000  22.2500  34.2500 Du        
   1590 ****        -1.7500   1.0000  35.7500 Du        
   1591 ****        -1.7500   1.0000  36.0000 Du        
   1592 ****        -1.7500   1.2500  36.0000 Du        
   1593 ****        -1.7500   1.2500  36.2500 Du        
   1594 ****        -1.7500   1.5000  35.7500 Du        
   1595 ****        -1.7500   1.5000  36.0000 Du        
   1596 ****        -1.7500   1.5000  36.2500 Du        
   1597 ****        -1.7500   1.7500  36.0000 Du        
   1598 ****        -1.7500   1.7500  36.2500 Du        
   1599 ****        -1.7500   1.7500  36.5000 Du        
   1600 ****        -1.7500   2.0000  36.0000 Du        
   1601 ****        -1.7500   2.0000  36.2500 Du        
   1602 ****        -1.7500   2.0000  36.5000 Du        
   1603 ****        -1.7500   2.0000  36.7500 Du        
   1604 ****        -1.7500   2.2500  36.2500 Du        
   1605 ****        -1.7500   2.2500  36.5000 Du        
   1606 ****        -1.7500   2.2500  36.7500 Du        
   1607 ****        -1.7500   2.2500  37.0000 Du        
   1608 ****        -1.7500   2.5000  36.2500 Du        
   1609 ****        -1.7500   2.5000  36.5000 Du        
   1610 ****        -1.7500   2.5000  36.7500 Du        
   1611 ****        -1.7500   2.5000  37.0000 Du        
   1612 ****        -1.7500   2.5000  37.2500 Du        
   1613 ****        -1.7500   2.5000  37.5000 Du        
   1614 ****        -1.7500   2.7500  36.5000 Du        
   1615 ****        -1.7500   2.7500  36.7500 Du        
   1616 ****        -1.7500   2.7500  37.0000 Du        
   1617 ****        -1.7500   2.7500  37.2500 Du        
   1618 ****        -1.7500   2.7500  37.5000 Du        
   1619 ****        -1.7500   2.7500  37.7500 Du        
   1620 ****        -1.7500   3.0000  36.7500 Du        
   1621 ****        -1.7500   3.0000  37.0000 Du        
   1622 ****        -1.7500   3.0000  37.2500 Du        
   1623 ****        -1.7500   3.0000  37.5000 Du        
   1624 ****        -1.7500   3.0000  37.7500 Du        
   1625 ****        -1.7500   3.0000  38.0000 Du        
   1626 ****        -1.7500   3.0000  38.2500 Du        
   1627 ****        -1.7500   3.0000  38.5000 Du        
   1628 ****        -1.7500   3.0000  38.7500 Du        
   1629 ****        -1.7500   3.2500  37.0000 Du        
   1630 ****        -1.7500   3.2500  37.2500 Du        
   1631 ****        -1.7500   3.2500  37.5000 Du        
   1632 ****        -1.7500   3.2500  37.7500 Du        
   1633 ****        -1.7500   3.2500  38.0000 Du        
   1634 ****        -1.7500   3.2500  38.2500 Du        
   1635 ****        -1.7500   3.2500  38.5000 Du        
   1636 ****        -1.7500   3.2500  38.7500 Du        
   1637 ****        -1.7500   3.2500  39.0000 Du        
   1638 ****        -1.7500   7.7500  30.0000 Du        
   1639 ****        -1.7500   8.0000  30.0000 Du        
   1640 ****        -1.7500   8.0000  30.2500 Du        
   1641 ****        -1.7500   8.2500  30.0000 Du        
   1642 ****        -1.7500   8.2500  30.2500 Du        
   1643 ****        -1.7500   8.2500  30.5000 Du        
   1644 ****        -1.7500   8.5000  30.2500 Du        
   1645 ****        -1.7500   8.5000  30.5000 Du        
   1646 ****        -1.7500   8.7500  30.2500 Du        
   1647 ****        -1.7500   8.7500  30.5000 Du        
   1648 ****        -1.7500  18.0000  35.0000 Du        
   1649 ****        -1.7500  18.0000  35.2500 Du        
   1650 ****        -1.7500  18.2500  35.0000 Du        
   1651 ****        -1.7500  18.2500  35.2500 Du        
   1652 ****        -1.7500  18.5000  35.0000 Du        
   1653 ****        -1.7500  20.2500  28.0000 Du        
   1654 ****        -1.7500  20.2500  28.2500 Du        
   1655 ****        -1.7500  20.2500  28.5000 Du        
   1656 ****        -1.7500  20.2500  28.7500 Du        
   1657 ****        -1.7500  20.5000  28.2500 Du        
   1658 ****        -1.7500  21.5000  34.0000 Du        
   1659 ****        -1.7500  21.7500  32.2500 Du        
   1660 ****        -1.7500  21.7500  32.5000 Du        
   1661 ****        -1.7500  21.7500  32.7500 Du        
   1662 ****        -1.7500  21.7500  33.0000 Du        
   1663 ****        -1.7500  21.7500  33.2500 Du        
   1664 ****        -1.7500  21.7500  33.5000 Du        
   1665 ****        -1.7500  21.7500  33.7500 Du        
   1666 ****        -1.7500  21.7500  34.0000 Du        
   1667 ****        -1.7500  21.7500  34.2500 Du        
   1668 ****        -1.7500  22.0000  32.2500 Du        
   1669 ****        -1.7500  22.0000  32.5000 Du        
   1670 ****        -1.7500  22.0000  32.7500 Du        
   1671 ****        -1.7500  22.0000  33.0000 Du        
   1672 ****        -1.7500  22.0000  33.2500 Du        
   1673 ****        -1.7500  22.0000  33.5000 Du        
   1674 ****        -1.7500  22.0000  33.7500 Du        
   1675 ****        -1.7500  22.0000  34.0000 Du        
   1676 ****        -1.7500  22.0000  34.2500 Du        
   1677 ****        -1.7500  22.0000  34.5000 Du        
   1678 ****        -1.7500  22.2500  33.0000 Du        
   1679 ****        -1.7500  22.2500  33.2500 Du        
   1680 ****        -1.7500  22.2500  33.5000 Du        
   1681 ****        -1.7500  22.2500  33.7500 Du        
   1682 ****        -1.7500  22.2500  34.0000 Du        
   1683 ****        -1.7500  22.2500  34.2500 Du        
   1684 ****        -1.7500  22.2500  34.5000 Du        
   1685 ****        -1.7500  22.2500  34.7500 Du        
   1686 ****        -1.7500  22.2500  35.0000 Du        
   1687 ****        -1.7500  22.5000  34.2500 Du        
   1688 ****        -1.7500  22.5000  34.5000 Du        
   1689 ****        -1.7500  22.5000  34.7500 Du        
   1690 ****        -1.7500  22.5000  35.0000 Du        
   1691 ****        -1.7500  22.7500  35.0000 Du        
   1692 ****        -1.5000   1.5000  35.7500 Du        
   1693 ****        -1.5000   1.5000  36.0000 Du        
   1694 ****        -1.5000   1.5000  36.2500 Du        
   1695 ****        -1.5000   1.5000  36.5000 Du        
   1696 ****        -1.5000   1.7500  36.0000 Du        
   1697 ****        -1.5000   1.7500  36.2500 Du        
   1698 ****        -1.5000   1.7500  36.5000 Du        
   1699 ****        -1.5000   1.7500  36.7500 Du        
   1700 ****        -1.5000   2.0000  36.0000 Du        
   1701 ****        -1.5000   2.0000  36.2500 Du        
   1702 ****        -1.5000   2.0000  36.5000 Du        
   1703 ****        -1.5000   2.0000  36.7500 Du        
   1704 ****        -1.5000   2.0000  37.0000 Du        
   1705 ****        -1.5000   2.2500  36.2500 Du        
   1706 ****        -1.5000   2.2500  36.5000 Du        
   1707 ****        -1.5000   2.2500  36.7500 Du        
   1708 ****        -1.5000   2.2500  37.0000 Du        
   1709 ****        -1.5000   2.2500  37.2500 Du        
   1710 ****        -1.5000   2.5000  36.2500 Du        
   1711 ****        -1.5000   2.5000  36.5000 Du        
   1712 ****        -1.5000   2.5000  36.7500 Du        
   1713 ****        -1.5000   2.5000  37.0000 Du        
   1714 ****        -1.5000   2.5000  37.2500 Du        
   1715 ****        -1.5000   2.5000  37.5000 Du        
   1716 ****        -1.5000   2.7500  36.5000 Du        
   1717 ****        -1.5000   2.7500  36.7500 Du        
   1718 ****        -1.5000   2.7500  37.0000 Du        
   1719 ****        -1.5000   2.7500  37.2500 Du        
   1720 ****        -1.5000   2.7500  37.5000 Du        
   1721 ****        -1.5000   2.7500  37.7500 Du        
   1722 ****        -1.5000   2.7500  38.0000 Du        
   1723 ****        -1.5000   2.7500  38.2500 Du        
   1724 ****        -1.5000   3.0000  36.7500 Du        
   1725 ****        -1.5000   3.0000  37.0000 Du        
   1726 ****        -1.5000   3.0000  37.2500 Du        
   1727 ****        -1.5000   3.0000  37.5000 Du        
   1728 ****        -1.5000   3.0000  37.7500 Du        
   1729 ****        -1.5000   3.0000  38.0000 Du        
   1730 ****        -1.5000   3.0000  38.2500 Du        
   1731 ****        -1.5000   3.0000  38.5000 Du        
   1732 ****        -1.5000   3.0000  38.7500 Du        
   1733 ****        -1.5000   3.0000  39.0000 Du        
   1734 ****        -1.5000   3.0000  39.2500 Du        
   1735 ****        -1.5000   3.0000  39.5000 Du        
   1736 ****        -1.5000   3.0000  39.7500 Du        
   1737 ****        -1.5000   3.2500  37.0000 Du        
   1738 ****        -1.5000   3.2500  37.2500 Du        
   1739 ****        -1.5000   3.2500  37.5000 Du        
   1740 ****        -1.5000   3.2500  37.7500 Du        
   1741 ****        -1.5000   3.2500  38.0000 Du        
   1742 ****        -1.5000   3.2500  38.2500 Du        
   1743 ****        -1.5000   3.2500  38.5000 Du        
   1744 ****        -1.5000   3.2500  38.7500 Du        
   1745 ****        -1.5000   3.2500  39.0000 Du        
   1746 ****        -1.5000   3.2500  39.2500 Du        
   1747 ****        -1.5000   3.2500  39.5000 Du        
   1748 ****        -1.5000   3.2500  39.7500 Du        
   1749 ****        -1.5000   3.5000  38.7500 Du        
   1750 ****        -1.5000   3.5000  39.0000 Du        
   1751 ****        -1.5000   3.5000  39.2500 Du        
   1752 ****        -1.5000   3.5000  39.5000 Du        
   1753 ****        -1.5000   3.5000  39.7500 Du        
   1754 ****        -1.5000   8.0000  30.0000 Du        
   1755 ****        -1.5000   8.0000  30.2500 Du        
   1756 ****        -1.5000   8.0000  30.5000 Du        
   1757 ****        -1.5000   8.2500  30.0000 Du        
   1758 ****        -1.5000   8.2500  30.2500 Du        
   1759 ****        -1.5000   8.2500  30.5000 Du        
   1760 ****        -1.5000   8.5000  30.2500 Du        
   1761 ****        -1.5000   8.5000  30.5000 Du        
   1762 ****        -1.5000   8.5000  30.7500 Du        
   1763 ****        -1.5000   8.7500  30.2500 Du        
   1764 ****        -1.5000   8.7500  30.5000 Du        
   1765 ****        -1.5000   8.7500  30.7500 Du        
   1766 ****        -1.5000  21.5000  33.7500 Du        
   1767 ****        -1.5000  21.5000  34.0000 Du        
   1768 ****        -1.5000  21.5000  34.2500 Du        
   1769 ****        -1.5000  21.5000  34.5000 Du        
   1770 ****        -1.5000  21.7500  32.2500 Du        
   1771 ****        -1.5000  21.7500  32.5000 Du        
   1772 ****        -1.5000  21.7500  32.7500 Du        
   1773 ****        -1.5000  21.7500  33.0000 Du        
   1774 ****        -1.5000  21.7500  33.2500 Du        
   1775 ****        -1.5000  21.7500  33.5000 Du        
   1776 ****        -1.5000  21.7500  33.7500 Du        
   1777 ****        -1.5000  21.7500  34.0000 Du        
   1778 ****        -1.5000  21.7500  34.2500 Du        
   1779 ****        -1.5000  21.7500  34.5000 Du        
   1780 ****        -1.5000  21.7500  34.7500 Du        
   1781 ****        -1.5000  22.0000  32.2500 Du        
   1782 ****        -1.5000  22.0000  32.5000 Du        
   1783 ****        -1.5000  22.0000  32.7500 Du        
   1784 ****        -1.5000  22.0000  33.0000 Du        
   1785 ****        -1.5000  22.0000  33.2500 Du        
   1786 ****        -1.5000  22.0000  33.5000 Du        
   1787 ****        -1.5000  22.0000  33.7500 Du        
   1788 ****        -1.5000  22.0000  34.0000 Du        
   1789 ****        -1.5000  22.0000  34.2500 Du        
   1790 ****        -1.5000  22.0000  34.5000 Du        
   1791 ****        -1.5000  22.0000  34.7500 Du        
   1792 ****        -1.5000  22.0000  35.0000 Du        
   1793 ****        -1.5000  22.2500  32.5000 Du        
   1794 ****        -1.5000  22.2500  32.7500 Du        
   1795 ****        -1.5000  22.2500  33.0000 Du        
   1796 ****        -1.5000  22.2500  33.2500 Du        
   1797 ****        -1.5000  22.2500  33.5000 Du        
   1798 ****        -1.5000  22.2500  33.7500 Du        
   1799 ****        -1.5000  22.2500  34.0000 Du        
   1800 ****        -1.5000  22.2500  34.2500 Du        
   1801 ****        -1.5000  22.2500  34.5000 Du        
   1802 ****        -1.5000  22.2500  34.7500 Du        
   1803 ****        -1.5000  22.2500  35.0000 Du        
   1804 ****        -1.5000  22.2500  35.2500 Du        
   1805 ****        -1.5000  22.5000  33.5000 Du        
   1806 ****        -1.5000  22.5000  33.7500 Du        
   1807 ****        -1.5000  22.5000  34.0000 Du        
   1808 ****        -1.5000  22.5000  34.2500 Du        
   1809 ****        -1.5000  22.5000  34.5000 Du        
   1810 ****        -1.5000  22.5000  34.7500 Du        
   1811 ****        -1.5000  22.5000  35.0000 Du        
   1812 ****        -1.5000  22.5000  35.2500 Du        
   1813 ****        -1.5000  22.7500  34.5000 Du        
   1814 ****        -1.5000  22.7500  34.7500 Du        
   1815 ****        -1.5000  22.7500  35.0000 Du        
   1816 ****        -1.5000  22.7500  35.2500 Du        
   1817 ****        -1.2500   1.2500  36.0000 Du        
   1818 ****        -1.2500   1.5000  36.0000 Du        
   1819 ****        -1.2500   1.5000  36.2500 Du        
   1820 ****        -1.2500   1.5000  36.5000 Du        
   1821 ****        -1.2500   1.7500  36.0000 Du        
   1822 ****        -1.2500   1.7500  36.2500 Du        
   1823 ****        -1.2500   1.7500  36.5000 Du        
   1824 ****        -1.2500   1.7500  36.7500 Du        
   1825 ****        -1.2500   2.0000  36.0000 Du        
   1826 ****        -1.2500   2.0000  36.2500 Du        
   1827 ****        -1.2500   2.0000  36.5000 Du        
   1828 ****        -1.2500   2.0000  36.7500 Du        
   1829 ****        -1.2500   2.0000  37.0000 Du        
   1830 ****        -1.2500   2.2500  36.2500 Du        
   1831 ****        -1.2500   2.2500  36.5000 Du        
   1832 ****        -1.2500   2.2500  36.7500 Du        
   1833 ****        -1.2500   2.2500  37.0000 Du        
   1834 ****        -1.2500   2.2500  37.2500 Du        
   1835 ****        -1.2500   2.2500  37.5000 Du        
   1836 ****        -1.2500   2.5000  36.5000 Du        
   1837 ****        -1.2500   2.5000  36.7500 Du        
   1838 ****        -1.2500   2.5000  37.0000 Du        
   1839 ****        -1.2500   2.5000  37.2500 Du        
   1840 ****        -1.2500   2.5000  37.5000 Du        
   1841 ****        -1.2500   2.5000  37.7500 Du        
   1842 ****        -1.2500   2.5000  38.0000 Du        
   1843 ****        -1.2500   2.7500  36.5000 Du        
   1844 ****        -1.2500   2.7500  36.7500 Du        
   1845 ****        -1.2500   2.7500  37.0000 Du        
   1846 ****        -1.2500   2.7500  37.2500 Du        
   1847 ****        -1.2500   2.7500  37.5000 Du        
   1848 ****        -1.2500   2.7500  37.7500 Du        
   1849 ****        -1.2500   2.7500  38.0000 Du        
   1850 ****        -1.2500   2.7500  38.2500 Du        
   1851 ****        -1.2500   2.7500  38.5000 Du        
   1852 ****        -1.2500   2.7500  38.7500 Du        
   1853 ****        -1.2500   2.7500  39.0000 Du        
   1854 ****        -1.2500   2.7500  39.2500 Du        
   1855 ****        -1.2500   2.7500  39.5000 Du        
   1856 ****        -1.2500   2.7500  39.7500 Du        
   1857 ****        -1.2500   2.7500  40.0000 Du        
   1858 ****        -1.2500   3.0000  36.7500 Du        
   1859 ****        -1.2500   3.0000  37.0000 Du        
   1860 ****        -1.2500   3.0000  37.2500 Du        
   1861 ****        -1.2500   3.0000  37.5000 Du        
   1862 ****        -1.2500   3.0000  37.7500 Du        
   1863 ****        -1.2500   3.0000  38.0000 Du        
   1864 ****        -1.2500   3.0000  38.2500 Du        
   1865 ****        -1.2500   3.0000  38.5000 Du        
   1866 ****        -1.2500   3.0000  38.7500 Du        
   1867 ****        -1.2500   3.0000  39.0000 Du        
   1868 ****        -1.2500   3.0000  39.2500 Du        
   1869 ****        -1.2500   3.0000  39.5000 Du        
   1870 ****        -1.2500   3.0000  39.7500 Du        
   1871 ****        -1.2500   3.0000  40.0000 Du        
   1872 ****        -1.2500   3.0000  40.2500 Du        
   1873 ****        -1.2500   3.2500  37.0000 Du        
   1874 ****        -1.2500   3.2500  37.2500 Du        
   1875 ****        -1.2500   3.2500  37.5000 Du        
   1876 ****        -1.2500   3.2500  37.7500 Du        
   1877 ****        -1.2500   3.2500  38.0000 Du        
   1878 ****        -1.2500   3.2500  38.2500 Du        
   1879 ****        -1.2500   3.2500  38.5000 Du        
   1880 ****        -1.2500   3.2500  38.7500 Du        
   1881 ****        -1.2500   3.2500  39.0000 Du        
   1882 ****        -1.2500   3.2500  39.2500 Du        
   1883 ****        -1.2500   3.2500  39.5000 Du        
   1884 ****        -1.2500   3.2500  39.7500 Du        
   1885 ****        -1.2500   3.2500  40.0000 Du        
   1886 ****        -1.2500   3.2500  40.2500 Du        
   1887 ****        -1.2500   3.5000  38.5000 Du        
   1888 ****        -1.2500   3.5000  38.7500 Du        
   1889 ****        -1.2500   3.5000  39.0000 Du        
   1890 ****        -1.2500   3.5000  39.2500 Du        
   1891 ****        -1.2500   3.5000  39.5000 Du        
   1892 ****        -1.2500   3.5000  39.7500 Du        
   1893 ****        -1.2500   3.5000  40.0000 Du        
   1894 ****        -1.2500   3.5000  40.2500 Du        
   1895 ****        -1.2500   3.7500  39.2500 Du        
   1896 ****        -1.2500   3.7500  39.5000 Du        
   1897 ****        -1.2500   3.7500  39.7500 Du        
   1898 ****        -1.2500   3.7500  40.0000 Du        
   1899 ****        -1.2500   8.0000  30.0000 Du        
   1900 ****        -1.2500   8.0000  30.2500 Du        
   1901 ****        -1.2500   8.0000  30.5000 Du        
   1902 ****        -1.2500   8.2500  30.0000 Du        
   1903 ****        -1.2500   8.2500  30.2500 Du        
   1904 ****        -1.2500   8.2500  30.5000 Du        
   1905 ****        -1.2500   8.2500  30.7500 Du        
   1906 ****        -1.2500   8.5000  30.2500 Du        
   1907 ****        -1.2500   8.5000  30.5000 Du        
   1908 ****        -1.2500   8.5000  30.7500 Du        
   1909 ****        -1.2500   8.7500  30.2500 Du        
   1910 ****        -1.2500   8.7500  30.5000 Du        
   1911 ****        -1.2500   8.7500  30.7500 Du        
   1912 ****        -1.2500   9.0000  30.5000 Du        
   1913 ****        -1.2500   9.0000  30.7500 Du        
   1914 ****        -1.2500  21.5000  34.2500 Du        
   1915 ****        -1.2500  21.5000  34.5000 Du        
   1916 ****        -1.2500  21.5000  34.7500 Du        
   1917 ****        -1.2500  21.7500  33.0000 Du        
   1918 ****        -1.2500  21.7500  33.2500 Du        
   1919 ****        -1.2500  21.7500  33.5000 Du        
   1920 ****        -1.2500  21.7500  33.7500 Du        
   1921 ****        -1.2500  21.7500  34.0000 Du        
   1922 ****        -1.2500  21.7500  34.2500 Du        
   1923 ****        -1.2500  21.7500  34.5000 Du        
   1924 ****        -1.2500  21.7500  34.7500 Du        
   1925 ****        -1.2500  21.7500  35.0000 Du        
   1926 ****        -1.2500  22.0000  32.5000 Du        
   1927 ****        -1.2500  22.0000  32.7500 Du        
   1928 ****        -1.2500  22.0000  33.0000 Du        
   1929 ****        -1.2500  22.0000  33.2500 Du        
   1930 ****        -1.2500  22.0000  33.5000 Du        
   1931 ****        -1.2500  22.0000  33.7500 Du        
   1932 ****        -1.2500  22.0000  34.0000 Du        
   1933 ****        -1.2500  22.0000  34.2500 Du        
   1934 ****        -1.2500  22.0000  34.5000 Du        
   1935 ****        -1.2500  22.0000  34.7500 Du        
   1936 ****        -1.2500  22.0000  35.0000 Du        
   1937 ****        -1.2500  22.0000  35.2500 Du        
   1938 ****        -1.2500  22.2500  32.5000 Du        
   1939 ****        -1.2500  22.2500  32.7500 Du        
   1940 ****        -1.2500  22.2500  33.0000 Du        
   1941 ****        -1.2500  22.2500  33.2500 Du        
   1942 ****        -1.2500  22.2500  33.5000 Du        
   1943 ****        -1.2500  22.2500  33.7500 Du        
   1944 ****        -1.2500  22.2500  34.0000 Du        
   1945 ****        -1.2500  22.2500  34.2500 Du        
   1946 ****        -1.2500  22.2500  34.5000 Du        
   1947 ****        -1.2500  22.2500  34.7500 Du        
   1948 ****        -1.2500  22.2500  35.0000 Du        
   1949 ****        -1.2500  22.2500  35.2500 Du        
   1950 ****        -1.2500  22.5000  32.7500 Du        
   1951 ****        -1.2500  22.5000  33.0000 Du        
   1952 ****        -1.2500  22.5000  33.2500 Du        
   1953 ****        -1.2500  22.5000  33.5000 Du        
   1954 ****        -1.2500  22.5000  33.7500 Du        
   1955 ****        -1.2500  22.5000  34.0000 Du        
   1956 ****        -1.2500  22.5000  34.2500 Du        
   1957 ****        -1.2500  22.5000  34.5000 Du        
   1958 ****        -1.2500  22.5000  34.7500 Du        
   1959 ****        -1.2500  22.5000  35.0000 Du        
   1960 ****        -1.2500  22.5000  35.2500 Du        
   1961 ****        -1.2500  22.7500  33.7500 Du        
   1962 ****        -1.2500  22.7500  34.0000 Du        
   1963 ****        -1.2500  22.7500  34.2500 Du        
   1964 ****        -1.2500  22.7500  34.5000 Du        
   1965 ****        -1.2500  22.7500  34.7500 Du        
   1966 ****        -1.2500  22.7500  35.0000 Du        
   1967 ****        -1.2500  22.7500  35.2500 Du        
   1968 ****        -1.0000   1.2500  36.2500 Du        
   1969 ****        -1.0000   1.5000  36.0000 Du        
   1970 ****        -1.0000   1.5000  36.2500 Du        
   1971 ****        -1.0000   1.5000  36.5000 Du        
   1972 ****        -1.0000   1.5000  36.7500 Du        
   1973 ****        -1.0000   1.7500  36.0000 Du        
   1974 ****        -1.0000   1.7500  36.2500 Du        
   1975 ****        -1.0000   1.7500  36.5000 Du        
   1976 ****        -1.0000   1.7500  36.7500 Du        
   1977 ****        -1.0000   1.7500  37.0000 Du        
   1978 ****        -1.0000   2.0000  36.0000 Du        
   1979 ****        -1.0000   2.0000  36.2500 Du        
   1980 ****        -1.0000   2.0000  36.5000 Du        
   1981 ****        -1.0000   2.0000  36.7500 Du        
   1982 ****        -1.0000   2.0000  37.0000 Du        
   1983 ****        -1.0000   2.0000  37.2500 Du        
   1984 ****        -1.0000   2.2500  36.2500 Du        
   1985 ****        -1.0000   2.2500  36.5000 Du        
   1986 ****        -1.0000   2.2500  36.7500 Du        
   1987 ****        -1.0000   2.2500  37.0000 Du        
   1988 ****        -1.0000   2.2500  37.2500 Du        
   1989 ****        -1.0000   2.2500  37.5000 Du        
   1990 ****        -1.0000   2.2500  37.7500 Du        
   1991 ****        -1.0000   2.2500  40.2500 Du        
   1992 ****        -1.0000   2.5000  36.5000 Du        
   1993 ****        -1.0000   2.5000  36.7500 Du        
   1994 ****        -1.0000   2.5000  37.0000 Du        
   1995 ****        -1.0000   2.5000  37.2500 Du        
   1996 ****        -1.0000   2.5000  37.5000 Du        
   1997 ****        -1.0000   2.5000  37.7500 Du        
   1998 ****        -1.0000   2.5000  38.0000 Du        
   1999 ****        -1.0000   2.5000  38.2500 Du        
   2000 ****        -1.0000   2.5000  38.5000 Du        
   2001 ****        -1.0000   2.5000  38.7500 Du        
   2002 ****        -1.0000   2.5000  39.0000 Du        
   2003 ****        -1.0000   2.5000  39.2500 Du        
   2004 ****        -1.0000   2.5000  39.5000 Du        
   2005 ****        -1.0000   2.5000  39.7500 Du        
   2006 ****        -1.0000   2.5000  40.0000 Du        
   2007 ****        -1.0000   2.5000  40.2500 Du        
   2008 ****        -1.0000   2.5000  40.5000 Du        
   2009 ****        -1.0000   2.7500  36.7500 Du        
   2010 ****        -1.0000   2.7500  37.0000 Du        
   2011 ****        -1.0000   2.7500  37.2500 Du        
   2012 ****        -1.0000   2.7500  37.5000 Du        
   2013 ****        -1.0000   2.7500  37.7500 Du        
   2014 ****        -1.0000   2.7500  38.0000 Du        
   2015 ****        -1.0000   2.7500  38.2500 Du        
   2016 ****        -1.0000   2.7500  38.5000 Du        
   2017 ****        -1.0000   2.7500  38.7500 Du        
   2018 ****        -1.0000   2.7500  39.0000 Du        
   2019 ****        -1.0000   2.7500  39.2500 Du        
   2020 ****        -1.0000   2.7500  39.5000 Du        
   2021 ****        -1.0000   2.7500  39.7500 Du        
   2022 ****        -1.0000   2.7500  40.0000 Du        
   2023 ****        -1.0000   2.7500  40.2500 Du        
   2024 ****        -1.0000   2.7500  40.5000 Du        
   2025 ****        -1.0000   3.0000  36.7500 Du        
   2026 ****        -1.0000   3.0000  37.0000 Du        
   2027 ****        -1.0000   3.0000  37.2500 Du        
   2028 ****        -1.0000   3.0000  37.5000 Du        
   2029 ****        -1.0000   3.0000  37.7500 Du        
   2030 ****        -1.0000   3.0000  38.0000 Du        
   2031 ****        -1.0000   3.0000  38.2500 Du        
   2032 ****        -1.0000   3.0000  38.5000 Du        
   2033 ****        -1.0000   3.0000  38.7500 Du        
   2034 ****        -1.0000   3.0000  39.0000 Du        
   2035 ****        -1.0000   3.0000  39.2500 Du        
   2036 ****        -1.0000   3.0000  39.5000 Du        
   2037 ****        -1.0000   3.0000  39.7500 Du        
   2038 ****        -1.0000   3.0000  40.0000 Du        
   2039 ****        -1.0000   3.0000  40.2500 Du        
   2040 ****        -1.0000   3.0000  40.5000 Du        
   2041 ****        -1.0000   3.2500  37.0000 Du        
   2042 ****        -1.0000   3.2500  37.2500 Du        
   2043 ****        -1.0000   3.2500  37.5000 Du        
   2044 ****        -1.0000   3.2500  37.7500 Du        
   2045 ****        -1.0000   3.2500  38.0000 Du        
   2046 ****        -1.0000   3.2500  38.2500 Du        
   2047 ****        -1.0000   3.2500  38.5000 Du        
   2048 ****        -1.0000   3.2500  38.7500 Du        
   2049 ****        -1.0000   3.2500  39.0000 Du        
   2050 ****        -1.0000   3.2500  39.2500 Du        
   2051 ****        -1.0000   3.2500  39.5000 Du        
   2052 ****        -1.0000   3.2500  39.7500 Du        
   2053 ****        -1.0000   3.2500  40.0000 Du        
   2054 ****        -1.0000   3.2500  40.2500 Du        
   2055 ****        -1.0000   3.2500  40.5000 Du        
   2056 ****        -1.0000   3.5000  38.0000 Du        
   2057 ****        -1.0000   3.5000  38.2500 Du        
   2058 ****        -1.0000   3.5000  38.5000 Du        
   2059 ****        -1.0000   3.5000  38.7500 Du        
   2060 ****        -1.0000   3.5000  39.0000 Du        
   2061 ****        -1.0000   3.5000  39.2500 Du        
   2062 ****        -1.0000   3.5000  39.5000 Du        
   2063 ****        -1.0000   3.5000  39.7500 Du        
   2064 ****        -1.0000   3.5000  40.0000 Du        
   2065 ****        -1.0000   3.5000  40.2500 Du        
   2066 ****        -1.0000   3.5000  40.5000 Du        
   2067 ****        -1.0000   3.7500  39.0000 Du        
   2068 ****        -1.0000   3.7500  39.2500 Du        
   2069 ****        -1.0000   3.7500  39.5000 Du        
   2070 ****        -1.0000   3.7500  39.7500 Du        
   2071 ****        -1.0000   3.7500  40.0000 Du        
   2072 ****        -1.0000   3.7500  40.2500 Du        
   2073 ****        -1.0000   8.0000  30.2500 Du        
   2074 ****        -1.0000   8.0000  30.5000 Du        
   2075 ****        -1.0000   8.2500  30.0000 Du        
   2076 ****        -1.0000   8.2500  30.2500 Du        
   2077 ****        -1.0000   8.2500  30.5000 Du        
   2078 ****        -1.0000   8.2500  30.7500 Du        
   2079 ****        -1.0000   8.5000  30.2500 Du        
   2080 ****        -1.0000   8.5000  30.5000 Du        
   2081 ****        -1.0000   8.5000  30.7500 Du        
   2082 ****        -1.0000   8.7500  30.2500 Du        
   2083 ****        -1.0000   8.7500  30.5000 Du        
   2084 ****        -1.0000   8.7500  30.7500 Du        
   2085 ****        -1.0000   9.0000  30.5000 Du        
   2086 ****        -1.0000   9.0000  30.7500 Du        
   2087 ****        -1.0000  21.5000  34.5000 Du        
   2088 ****        -1.0000  21.5000  34.7500 Du        
   2089 ****        -1.0000  21.5000  35.0000 Du        
   2090 ****        -1.0000  21.7500  33.7500 Du        
   2091 ****        -1.0000  21.7500  34.0000 Du        
   2092 ****        -1.0000  21.7500  34.2500 Du        
   2093 ****        -1.0000  21.7500  34.5000 Du        
   2094 ****        -1.0000  21.7500  34.7500 Du        
   2095 ****        -1.0000  21.7500  35.0000 Du        
   2096 ****        -1.0000  21.7500  35.2500 Du        
   2097 ****        -1.0000  22.0000  32.7500 Du        
   2098 ****        -1.0000  22.0000  33.0000 Du        
   2099 ****        -1.0000  22.0000  33.2500 Du        
   2100 ****        -1.0000  22.0000  33.5000 Du        
   2101 ****        -1.0000  22.0000  33.7500 Du        
   2102 ****        -1.0000  22.0000  34.0000 Du        
   2103 ****        -1.0000  22.0000  34.2500 Du        
   2104 ****        -1.0000  22.0000  34.5000 Du        
   2105 ****        -1.0000  22.0000  34.7500 Du        
   2106 ****        -1.0000  22.0000  35.0000 Du        
   2107 ****        -1.0000  22.0000  35.2500 Du        
   2108 ****        -1.0000  22.2500  32.5000 Du        
   2109 ****        -1.0000  22.2500  32.7500 Du        
   2110 ****        -1.0000  22.2500  33.0000 Du        
   2111 ****        -1.0000  22.2500  33.2500 Du        
   2112 ****        -1.0000  22.2500  33.5000 Du        
   2113 ****        -1.0000  22.2500  33.7500 Du        
   2114 ****        -1.0000  22.2500  34.0000 Du        
   2115 ****        -1.0000  22.2500  34.2500 Du        
   2116 ****        -1.0000  22.2500  34.5000 Du        
   2117 ****        -1.0000  22.2500  34.7500 Du        
   2118 ****        -1.0000  22.2500  35.0000 Du        
   2119 ****        -1.0000  22.2500  35.2500 Du        
   2120 ****        -1.0000  22.5000  32.7500 Du        
   2121 ****        -1.0000  22.5000  33.0000 Du        
   2122 ****        -1.0000  22.5000  33.2500 Du        
   2123 ****        -1.0000  22.5000  33.5000 Du        
   2124 ****        -1.0000  22.5000  33.7500 Du        
   2125 ****        -1.0000  22.5000  34.0000 Du        
   2126 ****        -1.0000  22.5000  34.2500 Du        
   2127 ****        -1.0000  22.5000  34.5000 Du        
   2128 ****        -1.0000  22.5000  34.7500 Du        
   2129 ****        -1.0000  22.5000  35.0000 Du        
   2130 ****        -1.0000  22.5000  35.2500 Du        
   2131 ****        -1.0000  22.7500  32.7500 Du        
   2132 ****        -1.0000  22.7500  33.0000 Du        
   2133 ****        -1.0000  22.7500  33.2500 Du        
   2134 ****        -1.0000  22.7500  33.5000 Du        
   2135 ****        -1.0000  22.7500  33.7500 Du        
   2136 ****        -1.0000  22.7500  34.0000 Du        
   2137 ****        -1.0000  22.7500  34.2500 Du        
   2138 ****        -1.0000  22.7500  34.5000 Du        
   2139 ****        -1.0000  22.7500  34.7500 Du        
   2140 ****        -1.0000  22.7500  35.0000 Du        
   2141 ****        -0.7500   1.5000  36.0000 Du        
   2142 ****        -0.7500   1.5000  36.2500 Du        
   2143 ****        -0.7500   1.5000  36.7500 Du        
   2144 ****        -0.7500   1.5000  37.0000 Du        
   2145 ****        -0.7500   1.7500  36.2500 Du        
   2146 ****        -0.7500   1.7500  36.5000 Du        
   2147 ****        -0.7500   1.7500  36.7500 Du        
   2148 ****        -0.7500   1.7500  37.0000 Du        
   2149 ****        -0.7500   1.7500  37.2500 Du        
   2150 ****        -0.7500   2.0000  36.2500 Du        
   2151 ****        -0.7500   2.0000  36.5000 Du        
   2152 ****        -0.7500   2.0000  36.7500 Du        
   2153 ****        -0.7500   2.0000  37.0000 Du        
   2154 ****        -0.7500   2.0000  37.2500 Du        
   2155 ****        -0.7500   2.0000  37.5000 Du        
   2156 ****        -0.7500   2.0000  37.7500 Du        
   2157 ****        -0.7500   2.0000  40.0000 Du        
   2158 ****        -0.7500   2.0000  40.2500 Du        
   2159 ****        -0.7500   2.0000  40.5000 Du        
   2160 ****        -0.7500   2.0000  40.7500 Du        
   2161 ****        -0.7500   2.2500  36.2500 Du        
   2162 ****        -0.7500   2.2500  36.5000 Du        
   2163 ****        -0.7500   2.2500  36.7500 Du        
   2164 ****        -0.7500   2.2500  37.0000 Du        
   2165 ****        -0.7500   2.2500  37.2500 Du        
   2166 ****        -0.7500   2.2500  37.5000 Du        
   2167 ****        -0.7500   2.2500  37.7500 Du        
   2168 ****        -0.7500   2.2500  38.0000 Du        
   2169 ****        -0.7500   2.2500  38.2500 Du        
   2170 ****        -0.7500   2.2500  39.2500 Du        
   2171 ****        -0.7500   2.2500  39.5000 Du        
   2172 ****        -0.7500   2.2500  39.7500 Du        
   2173 ****        -0.7500   2.2500  40.0000 Du        
   2174 ****        -0.7500   2.2500  40.2500 Du        
   2175 ****        -0.7500   2.2500  40.5000 Du        
   2176 ****        -0.7500   2.2500  40.7500 Du        
   2177 ****        -0.7500   2.5000  36.5000 Du        
   2178 ****        -0.7500   2.5000  36.7500 Du        
   2179 ****        -0.7500   2.5000  37.0000 Du        
   2180 ****        -0.7500   2.5000  37.2500 Du        
   2181 ****        -0.7500   2.5000  37.5000 Du        
   2182 ****        -0.7500   2.5000  37.7500 Du        
   2183 ****        -0.7500   2.5000  38.0000 Du        
   2184 ****        -0.7500   2.5000  38.2500 Du        
   2185 ****        -0.7500   2.5000  38.5000 Du        
   2186 ****        -0.7500   2.5000  38.7500 Du        
   2187 ****        -0.7500   2.5000  39.0000 Du        
   2188 ****        -0.7500   2.5000  39.2500 Du        
   2189 ****        -0.7500   2.5000  39.5000 Du        
   2190 ****        -0.7500   2.5000  39.7500 Du        
   2191 ****        -0.7500   2.5000  40.0000 Du        
   2192 ****        -0.7500   2.5000  40.2500 Du        
   2193 ****        -0.7500   2.5000  40.5000 Du        
   2194 ****        -0.7500   2.5000  40.7500 Du        
   2195 ****        -0.7500   2.7500  36.7500 Du        
   2196 ****        -0.7500   2.7500  37.0000 Du        
   2197 ****        -0.7500   2.7500  37.2500 Du        
   2198 ****        -0.7500   2.7500  37.5000 Du        
   2199 ****        -0.7500   2.7500  37.7500 Du        
   2200 ****        -0.7500   2.7500  38.0000 Du        
   2201 ****        -0.7500   2.7500  38.2500 Du        
   2202 ****        -0.7500   2.7500  38.5000 Du        
   2203 ****        -0.7500   2.7500  38.7500 Du        
   2204 ****        -0.7500   2.7500  39.0000 Du        
   2205 ****        -0.7500   2.7500  39.2500 Du        
   2206 ****        -0.7500   2.7500  39.5000 Du        
   2207 ****        -0.7500   2.7500  39.7500 Du        
   2208 ****        -0.7500   2.7500  40.0000 Du        
   2209 ****        -0.7500   2.7500  40.2500 Du        
   2210 ****        -0.7500   2.7500  40.5000 Du        
   2211 ****        -0.7500   2.7500  40.7500 Du        
   2212 ****        -0.7500   3.0000  36.7500 Du        
   2213 ****        -0.7500   3.0000  37.0000 Du        
   2214 ****        -0.7500   3.0000  37.2500 Du        
   2215 ****        -0.7500   3.0000  37.5000 Du        
   2216 ****        -0.7500   3.0000  37.7500 Du        
   2217 ****        -0.7500   3.0000  38.0000 Du        
   2218 ****        -0.7500   3.0000  38.2500 Du        
   2219 ****        -0.7500   3.0000  38.5000 Du        
   2220 ****        -0.7500   3.0000  38.7500 Du        
   2221 ****        -0.7500   3.0000  39.0000 Du        
   2222 ****        -0.7500   3.0000  39.2500 Du        
   2223 ****        -0.7500   3.0000  39.5000 Du        
   2224 ****        -0.7500   3.0000  39.7500 Du        
   2225 ****        -0.7500   3.0000  40.0000 Du        
   2226 ****        -0.7500   3.0000  40.2500 Du        
   2227 ****        -0.7500   3.0000  40.5000 Du        
   2228 ****        -0.7500   3.0000  40.7500 Du        
   2229 ****        -0.7500   3.2500  37.0000 Du        
   2230 ****        -0.7500   3.2500  37.2500 Du        
   2231 ****        -0.7500   3.2500  37.5000 Du        
   2232 ****        -0.7500   3.2500  37.7500 Du        
   2233 ****        -0.7500   3.2500  38.0000 Du        
   2234 ****        -0.7500   3.2500  38.2500 Du        
   2235 ****        -0.7500   3.2500  38.5000 Du        
   2236 ****        -0.7500   3.2500  38.7500 Du        
   2237 ****        -0.7500   3.2500  39.0000 Du        
   2238 ****        -0.7500   3.2500  39.2500 Du        
   2239 ****        -0.7500   3.2500  39.5000 Du        
   2240 ****        -0.7500   3.2500  39.7500 Du        
   2241 ****        -0.7500   3.2500  40.0000 Du        
   2242 ****        -0.7500   3.2500  40.2500 Du        
   2243 ****        -0.7500   3.2500  40.5000 Du        
   2244 ****        -0.7500   3.2500  40.7500 Du        
   2245 ****        -0.7500   3.5000  37.5000 Du        
   2246 ****        -0.7500   3.5000  37.7500 Du        
   2247 ****        -0.7500   3.5000  38.0000 Du        
   2248 ****        -0.7500   3.5000  38.2500 Du        
   2249 ****        -0.7500   3.5000  38.5000 Du        
   2250 ****        -0.7500   3.5000  38.7500 Du        
   2251 ****        -0.7500   3.5000  39.0000 Du        
   2252 ****        -0.7500   3.5000  39.2500 Du        
   2253 ****        -0.7500   3.5000  39.5000 Du        
   2254 ****        -0.7500   3.5000  39.7500 Du        
   2255 ****        -0.7500   3.5000  40.0000 Du        
   2256 ****        -0.7500   3.5000  40.2500 Du        
   2257 ****        -0.7500   3.5000  40.5000 Du        
   2258 ****        -0.7500   3.5000  40.7500 Du        
   2259 ****        -0.7500   3.7500  38.7500 Du        
   2260 ****        -0.7500   3.7500  39.0000 Du        
   2261 ****        -0.7500   3.7500  39.2500 Du        
   2262 ****        -0.7500   3.7500  39.5000 Du        
   2263 ****        -0.7500   3.7500  39.7500 Du        
   2264 ****        -0.7500   3.7500  40.0000 Du        
   2265 ****        -0.7500   3.7500  40.2500 Du        
   2266 ****        -0.7500   3.7500  40.5000 Du        
   2267 ****        -0.7500   8.2500  30.0000 Du        
   2268 ****        -0.7500   8.2500  30.2500 Du        
   2269 ****        -0.7500   8.2500  30.5000 Du        
   2270 ****        -0.7500   8.2500  30.7500 Du        
   2271 ****        -0.7500   8.5000  30.2500 Du        
   2272 ****        -0.7500   8.5000  30.5000 Du        
   2273 ****        -0.7500   8.5000  30.7500 Du        
   2274 ****        -0.7500   8.5000  31.0000 Du        
   2275 ****        -0.7500   8.7500  30.2500 Du        
   2276 ****        -0.7500   8.7500  30.5000 Du        
   2277 ****        -0.7500   8.7500  30.7500 Du        
   2278 ****        -0.7500   8.7500  31.0000 Du        
   2279 ****        -0.7500   9.0000  30.2500 Du        
   2280 ****        -0.7500   9.0000  30.5000 Du        
   2281 ****        -0.7500   9.0000  30.7500 Du        
   2282 ****        -0.7500   9.0000  31.0000 Du        
   2283 ****        -0.7500   9.2500  30.5000 Du        
   2284 ****        -0.7500   9.2500  30.7500 Du        
   2285 ****        -0.7500  21.5000  34.7500 Du        
   2286 ****        -0.7500  21.5000  35.0000 Du        
   2287 ****        -0.7500  21.7500  34.2500 Du        
   2288 ****        -0.7500  21.7500  34.5000 Du        
   2289 ****        -0.7500  21.7500  34.7500 Du        
   2290 ****        -0.7500  21.7500  35.0000 Du        
   2291 ****        -0.7500  21.7500  35.2500 Du        
   2292 ****        -0.7500  22.0000  33.0000 Du        
   2293 ****        -0.7500  22.0000  33.2500 Du        
   2294 ****        -0.7500  22.0000  33.5000 Du        
   2295 ****        -0.7500  22.0000  33.7500 Du        
   2296 ****        -0.7500  22.0000  34.0000 Du        
   2297 ****        -0.7500  22.0000  34.2500 Du        
   2298 ****        -0.7500  22.0000  34.5000 Du        
   2299 ****        -0.7500  22.0000  34.7500 Du        
   2300 ****        -0.7500  22.0000  35.0000 Du        
   2301 ****        -0.7500  22.0000  35.2500 Du        
   2302 ****        -0.7500  22.2500  32.7500 Du        
   2303 ****        -0.7500  22.2500  33.0000 Du        
   2304 ****        -0.7500  22.2500  33.2500 Du        
   2305 ****        -0.7500  22.2500  33.5000 Du        
   2306 ****        -0.7500  22.2500  33.7500 Du        
   2307 ****        -0.7500  22.2500  34.0000 Du        
   2308 ****        -0.7500  22.2500  34.2500 Du        
   2309 ****        -0.7500  22.2500  34.5000 Du        
   2310 ****        -0.7500  22.2500  34.7500 Du        
   2311 ****        -0.7500  22.2500  35.0000 Du        
   2312 ****        -0.7500  22.2500  35.2500 Du        
   2313 ****        -0.7500  22.5000  32.7500 Du        
   2314 ****        -0.7500  22.5000  33.0000 Du        
   2315 ****        -0.7500  22.5000  33.2500 Du        
   2316 ****        -0.7500  22.5000  33.5000 Du        
   2317 ****        -0.7500  22.5000  33.7500 Du        
   2318 ****        -0.7500  22.5000  34.0000 Du        
   2319 ****        -0.7500  22.5000  34.2500 Du        
   2320 ****        -0.7500  22.5000  34.5000 Du        
   2321 ****        -0.7500  22.5000  34.7500 Du        
   2322 ****        -0.7500  22.5000  35.0000 Du        
   2323 ****        -0.7500  22.5000  35.2500 Du        
   2324 ****        -0.7500  22.7500  32.7500 Du        
   2325 ****        -0.7500  22.7500  33.0000 Du        
   2326 ****        -0.7500  22.7500  33.2500 Du        
   2327 ****        -0.7500  22.7500  33.5000 Du        
   2328 ****        -0.7500  22.7500  33.7500 Du        
   2329 ****        -0.7500  22.7500  34.0000 Du        
   2330 ****        -0.7500  22.7500  34.2500 Du        
   2331 ****        -0.7500  22.7500  34.5000 Du        
   2332 ****        -0.7500  22.7500  34.7500 Du        
   2333 ****        -0.7500  22.7500  35.0000 Du        
   2334 ****        -0.7500  23.0000  33.0000 Du        
   2335 ****        -0.7500  23.0000  33.2500 Du        
   2336 ****        -0.7500  23.0000  33.5000 Du        
   2337 ****        -0.7500  23.0000  33.7500 Du        
   2338 ****        -0.7500  23.0000  34.0000 Du        
   2339 ****        -0.7500  23.0000  34.2500 Du        
   2340 ****        -0.7500  23.0000  34.5000 Du        
   2341 ****        -0.5000   1.5000  36.2500 Du        
   2342 ****        -0.5000   1.5000  36.5000 Du        
   2343 ****        -0.5000   1.5000  36.7500 Du        
   2344 ****        -0.5000   1.5000  37.0000 Du        
   2345 ****        -0.5000   1.5000  40.7500 Du        
   2346 ****        -0.5000   1.7500  36.2500 Du        
   2347 ****        -0.5000   1.7500  36.5000 Du        
   2348 ****        -0.5000   1.7500  36.7500 Du        
   2349 ****        -0.5000   1.7500  37.0000 Du        
   2350 ****        -0.5000   1.7500  37.2500 Du        
   2351 ****        -0.5000   1.7500  37.5000 Du        
   2352 ****        -0.5000   1.7500  40.0000 Du        
   2353 ****        -0.5000   1.7500  40.2500 Du        
   2354 ****        -0.5000   1.7500  40.5000 Du        
   2355 ****        -0.5000   1.7500  40.7500 Du        
   2356 ****        -0.5000   1.7500  41.0000 Du        
   2357 ****        -0.5000   2.0000  36.2500 Du        
   2358 ****        -0.5000   2.0000  36.5000 Du        
   2359 ****        -0.5000   2.0000  36.7500 Du        
   2360 ****        -0.5000   2.0000  37.0000 Du        
   2361 ****        -0.5000   2.0000  37.2500 Du        
   2362 ****        -0.5000   2.0000  37.5000 Du        
   2363 ****        -0.5000   2.0000  37.7500 Du        
   2364 ****        -0.5000   2.0000  38.0000 Du        
   2365 ****        -0.5000   2.0000  39.2500 Du        
   2366 ****        -0.5000   2.0000  39.5000 Du        
   2367 ****        -0.5000   2.0000  39.7500 Du        
   2368 ****        -0.5000   2.0000  40.0000 Du        
   2369 ****        -0.5000   2.0000  40.2500 Du        
   2370 ****        -0.5000   2.0000  40.5000 Du        
   2371 ****        -0.5000   2.0000  40.7500 Du        
   2372 ****        -0.5000   2.0000  41.0000 Du        
   2373 ****        -0.5000   2.2500  36.5000 Du        
   2374 ****        -0.5000   2.2500  36.7500 Du        
   2375 ****        -0.5000   2.2500  37.0000 Du        
   2376 ****        -0.5000   2.2500  37.2500 Du        
   2377 ****        -0.5000   2.2500  37.5000 Du        
   2378 ****        -0.5000   2.2500  37.7500 Du        
   2379 ****        -0.5000   2.2500  38.0000 Du        
   2380 ****        -0.5000   2.2500  38.2500 Du        
   2381 ****        -0.5000   2.2500  38.5000 Du        
   2382 ****        -0.5000   2.2500  38.7500 Du        
   2383 ****        -0.5000   2.2500  39.0000 Du        
   2384 ****        -0.5000   2.2500  39.2500 Du        
   2385 ****        -0.5000   2.2500  39.5000 Du        
   2386 ****        -0.5000   2.2500  39.7500 Du        
   2387 ****        -0.5000   2.2500  40.0000 Du        
   2388 ****        -0.5000   2.2500  40.2500 Du        
   2389 ****        -0.5000   2.2500  40.5000 Du        
   2390 ****        -0.5000   2.2500  40.7500 Du        
   2391 ****        -0.5000   2.2500  41.0000 Du        
   2392 ****        -0.5000   2.5000  36.5000 Du        
   2393 ****        -0.5000   2.5000  36.7500 Du        
   2394 ****        -0.5000   2.5000  37.0000 Du        
   2395 ****        -0.5000   2.5000  37.2500 Du        
   2396 ****        -0.5000   2.5000  37.5000 Du        
   2397 ****        -0.5000   2.5000  37.7500 Du        
   2398 ****        -0.5000   2.5000  38.0000 Du        
   2399 ****        -0.5000   2.5000  38.2500 Du        
   2400 ****        -0.5000   2.5000  38.5000 Du        
   2401 ****        -0.5000   2.5000  38.7500 Du        
   2402 ****        -0.5000   2.5000  39.0000 Du        
   2403 ****        -0.5000   2.5000  39.2500 Du        
   2404 ****        -0.5000   2.5000  39.5000 Du        
   2405 ****        -0.5000   2.5000  39.7500 Du        
   2406 ****        -0.5000   2.5000  40.0000 Du        
   2407 ****        -0.5000   2.5000  40.2500 Du        
   2408 ****        -0.5000   2.5000  40.5000 Du        
   2409 ****        -0.5000   2.5000  40.7500 Du        
   2410 ****        -0.5000   2.5000  41.0000 Du        
   2411 ****        -0.5000   2.7500  36.7500 Du        
   2412 ****        -0.5000   2.7500  37.0000 Du        
   2413 ****        -0.5000   2.7500  37.2500 Du        
   2414 ****        -0.5000   2.7500  37.5000 Du        
   2415 ****        -0.5000   2.7500  37.7500 Du        
   2416 ****        -0.5000   2.7500  38.0000 Du        
   2417 ****        -0.5000   2.7500  38.2500 Du        
   2418 ****        -0.5000   2.7500  38.5000 Du        
   2419 ****        -0.5000   2.7500  38.7500 Du        
   2420 ****        -0.5000   2.7500  39.0000 Du        
   2421 ****        -0.5000   2.7500  39.2500 Du        
   2422 ****        -0.5000   2.7500  39.5000 Du        
   2423 ****        -0.5000   2.7500  39.7500 Du        
   2424 ****        -0.5000   2.7500  40.0000 Du        
   2425 ****        -0.5000   2.7500  40.2500 Du        
   2426 ****        -0.5000   2.7500  40.5000 Du        
   2427 ****        -0.5000   2.7500  40.7500 Du        
   2428 ****        -0.5000   2.7500  41.0000 Du        
   2429 ****        -0.5000   3.0000  36.7500 Du        
   2430 ****        -0.5000   3.0000  37.0000 Du        
   2431 ****        -0.5000   3.0000  37.2500 Du        
   2432 ****        -0.5000   3.0000  37.5000 Du        
   2433 ****        -0.5000   3.0000  37.7500 Du        
   2434 ****        -0.5000   3.0000  38.0000 Du        
   2435 ****        -0.5000   3.0000  38.2500 Du        
   2436 ****        -0.5000   3.0000  38.5000 Du        
   2437 ****        -0.5000   3.0000  38.7500 Du        
   2438 ****        -0.5000   3.0000  39.0000 Du        
   2439 ****        -0.5000   3.0000  39.2500 Du        
   2440 ****        -0.5000   3.0000  39.5000 Du        
   2441 ****        -0.5000   3.0000  39.7500 Du        
   2442 ****        -0.5000   3.0000  40.0000 Du        
   2443 ****        -0.5000   3.0000  40.2500 Du        
   2444 ****        -0.5000   3.0000  40.5000 Du        
   2445 ****        -0.5000   3.0000  40.7500 Du        
   2446 ****        -0.5000   3.0000  41.0000 Du        
   2447 ****        -0.5000   3.2500  37.0000 Du        
   2448 ****        -0.5000   3.2500  37.2500 Du        
   2449 ****        -0.5000   3.2500  37.5000 Du        
   2450 ****        -0.5000   3.2500  37.7500 Du        
   2451 ****        -0.5000   3.2500  38.0000 Du        
   2452 ****        -0.5000   3.2500  38.2500 Du        
   2453 ****        -0.5000   3.2500  38.5000 Du        
   2454 ****        -0.5000   3.2500  38.7500 Du        
   2455 ****        -0.5000   3.2500  39.0000 Du        
   2456 ****        -0.5000   3.2500  39.2500 Du        
   2457 ****        -0.5000   3.2500  39.5000 Du        
   2458 ****        -0.5000   3.2500  39.7500 Du        
   2459 ****        -0.5000   3.2500  40.0000 Du        
   2460 ****        -0.5000   3.2500  40.2500 Du        
   2461 ****        -0.5000   3.2500  40.5000 Du        
   2462 ****        -0.5000   3.2500  40.7500 Du        
   2463 ****        -0.5000   3.5000  37.2500 Du        
   2464 ****        -0.5000   3.5000  37.5000 Du        
   2465 ****        -0.5000   3.5000  37.7500 Du        
   2466 ****        -0.5000   3.5000  38.0000 Du        
   2467 ****        -0.5000   3.5000  38.2500 Du        
   2468 ****        -0.5000   3.5000  38.5000 Du        
   2469 ****        -0.5000   3.5000  38.7500 Du        
   2470 ****        -0.5000   3.5000  39.0000 Du        
   2471 ****        -0.5000   3.5000  39.2500 Du        
   2472 ****        -0.5000   3.5000  39.5000 Du        
   2473 ****        -0.5000   3.5000  39.7500 Du        
   2474 ****        -0.5000   3.5000  40.0000 Du        
   2475 ****        -0.5000   3.5000  40.2500 Du        
   2476 ****        -0.5000   3.5000  40.5000 Du        
   2477 ****        -0.5000   3.5000  40.7500 Du        
   2478 ****        -0.5000   3.7500  38.7500 Du        
   2479 ****        -0.5000   3.7500  39.0000 Du        
   2480 ****        -0.5000   3.7500  39.2500 Du        
   2481 ****        -0.5000   3.7500  39.5000 Du        
   2482 ****        -0.5000   3.7500  39.7500 Du        
   2483 ****        -0.5000   3.7500  40.0000 Du        
   2484 ****        -0.5000   3.7500  40.2500 Du        
   2485 ****        -0.5000   8.2500  30.0000 Du        
   2486 ****        -0.5000   8.2500  30.2500 Du        
   2487 ****        -0.5000   8.2500  30.5000 Du        
   2488 ****        -0.5000   8.2500  30.7500 Du        
   2489 ****        -0.5000   8.5000  30.0000 Du        
   2490 ****        -0.5000   8.5000  30.2500 Du        
   2491 ****        -0.5000   8.5000  30.5000 Du        
   2492 ****        -0.5000   8.5000  30.7500 Du        
   2493 ****        -0.5000   8.5000  31.0000 Du        
   2494 ****        -0.5000   8.7500  30.2500 Du        
   2495 ****        -0.5000   8.7500  30.5000 Du        
   2496 ****        -0.5000   8.7500  30.7500 Du        
   2497 ****        -0.5000   8.7500  31.0000 Du        
   2498 ****        -0.5000   9.0000  30.2500 Du        
   2499 ****        -0.5000   9.0000  30.5000 Du        
   2500 ****        -0.5000   9.0000  30.7500 Du        
   2501 ****        -0.5000   9.0000  31.0000 Du        
   2502 ****        -0.5000   9.2500  30.2500 Du        
   2503 ****        -0.5000   9.2500  30.5000 Du        
   2504 ****        -0.5000   9.2500  30.7500 Du        
   2505 ****        -0.5000   9.2500  31.0000 Du        
   2506 ****        -0.5000   9.5000  30.7500 Du        
   2507 ****        -0.5000  21.7500  34.5000 Du        
   2508 ****        -0.5000  21.7500  34.7500 Du        
   2509 ****        -0.5000  21.7500  35.0000 Du        
   2510 ****        -0.5000  21.7500  35.2500 Du        
   2511 ****        -0.5000  22.0000  33.5000 Du        
   2512 ****        -0.5000  22.0000  33.7500 Du        
   2513 ****        -0.5000  22.0000  34.0000 Du        
   2514 ****        -0.5000  22.0000  34.2500 Du        
   2515 ****        -0.5000  22.0000  34.5000 Du        
   2516 ****        -0.5000  22.0000  34.7500 Du        
   2517 ****        -0.5000  22.0000  35.0000 Du        
   2518 ****        -0.5000  22.0000  35.2500 Du        
   2519 ****        -0.5000  22.2500  33.0000 Du        
   2520 ****        -0.5000  22.2500  33.2500 Du        
   2521 ****        -0.5000  22.2500  33.5000 Du        
   2522 ****        -0.5000  22.2500  33.7500 Du        
   2523 ****        -0.5000  22.2500  34.0000 Du        
   2524 ****        -0.5000  22.2500  34.2500 Du        
   2525 ****        -0.5000  22.2500  34.5000 Du        
   2526 ****        -0.5000  22.2500  34.7500 Du        
   2527 ****        -0.5000  22.2500  35.0000 Du        
   2528 ****        -0.5000  22.2500  35.2500 Du        
   2529 ****        -0.5000  22.5000  32.7500 Du        
   2530 ****        -0.5000  22.5000  33.0000 Du        
   2531 ****        -0.5000  22.5000  33.2500 Du        
   2532 ****        -0.5000  22.5000  33.5000 Du        
   2533 ****        -0.5000  22.5000  33.7500 Du        
   2534 ****        -0.5000  22.5000  34.0000 Du        
   2535 ****        -0.5000  22.5000  34.2500 Du        
   2536 ****        -0.5000  22.5000  34.5000 Du        
   2537 ****        -0.5000  22.5000  34.7500 Du        
   2538 ****        -0.5000  22.5000  35.0000 Du        
   2539 ****        -0.5000  22.7500  32.7500 Du        
   2540 ****        -0.5000  22.7500  33.0000 Du        
   2541 ****        -0.5000  22.7500  33.2500 Du        
   2542 ****        -0.5000  22.7500  33.5000 Du        
   2543 ****        -0.5000  22.7500  33.7500 Du        
   2544 ****        -0.5000  22.7500  34.0000 Du        
   2545 ****        -0.5000  22.7500  34.2500 Du        
   2546 ****        -0.5000  22.7500  34.5000 Du        
   2547 ****        -0.5000  22.7500  34.7500 Du        
   2548 ****        -0.5000  23.0000  32.7500 Du        
   2549 ****        -0.5000  23.0000  33.0000 Du        
   2550 ****        -0.5000  23.0000  33.2500 Du        
   2551 ****        -0.5000  23.0000  33.5000 Du        
   2552 ****        -0.5000  23.0000  33.7500 Du        
   2553 ****        -0.5000  23.0000  34.0000 Du        
   2554 ****        -0.5000  23.0000  34.2500 Du        
   2555 ****        -0.5000  23.0000  34.5000 Du        
   2556 ****        -0.5000  23.2500  33.0000 Du        
   2557 ****        -0.5000  23.2500  33.2500 Du        
   2558 ****        -0.5000  23.2500  33.5000 Du        
   2559 ****        -0.5000  23.2500  33.7500 Du        
   2560 ****        -0.5000  23.2500  34.0000 Du        
   2561 ****        -0.2500   1.2500  40.7500 Du        
   2562 ****        -0.2500   1.5000  36.2500 Du        
   2563 ****        -0.2500   1.5000  36.5000 Du        
   2564 ****        -0.2500   1.5000  36.7500 Du        
   2565 ****        -0.2500   1.5000  37.0000 Du        
   2566 ****        -0.2500   1.5000  39.7500 Du        
   2567 ****        -0.2500   1.5000  40.0000 Du        
   2568 ****        -0.2500   1.5000  40.2500 Du        
   2569 ****        -0.2500   1.5000  40.5000 Du        
   2570 ****        -0.2500   1.5000  40.7500 Du        
   2571 ****        -0.2500   1.5000  41.0000 Du        
   2572 ****        -0.2500   1.7500  36.2500 Du        
   2573 ****        -0.2500   1.7500  36.5000 Du        
   2574 ****        -0.2500   1.7500  36.7500 Du        
   2575 ****        -0.2500   1.7500  37.0000 Du        
   2576 ****        -0.2500   1.7500  37.2500 Du        
   2577 ****        -0.2500   1.7500  37.5000 Du        
   2578 ****        -0.2500   1.7500  37.7500 Du        
   2579 ****        -0.2500   1.7500  38.0000 Du        
   2580 ****        -0.2500   1.7500  38.2500 Du        
   2581 ****        -0.2500   1.7500  38.7500 Du        
   2582 ****        -0.2500   1.7500  39.0000 Du        
   2583 ****        -0.2500   1.7500  39.2500 Du        
   2584 ****        -0.2500   1.7500  39.5000 Du        
   2585 ****        -0.2500   1.7500  39.7500 Du        
   2586 ****        -0.2500   1.7500  40.0000 Du        
   2587 ****        -0.2500   1.7500  40.2500 Du        
   2588 ****        -0.2500   1.7500  40.5000 Du        
   2589 ****        -0.2500   1.7500  40.7500 Du        
   2590 ****        -0.2500   1.7500  41.0000 Du        
   2591 ****        -0.2500   1.7500  41.2500 Du        
   2592 ****        -0.2500   2.0000  36.2500 Du        
   2593 ****        -0.2500   2.0000  36.5000 Du        
   2594 ****        -0.2500   2.0000  36.7500 Du        
   2595 ****        -0.2500   2.0000  37.0000 Du        
   2596 ****        -0.2500   2.0000  37.2500 Du        
   2597 ****        -0.2500   2.0000  37.5000 Du        
   2598 ****        -0.2500   2.0000  37.7500 Du        
   2599 ****        -0.2500   2.0000  38.0000 Du        
   2600 ****        -0.2500   2.0000  38.2500 Du        
   2601 ****        -0.2500   2.0000  38.5000 Du        
   2602 ****        -0.2500   2.0000  38.7500 Du        
   2603 ****        -0.2500   2.0000  39.0000 Du        
   2604 ****        -0.2500   2.0000  39.2500 Du        
   2605 ****        -0.2500   2.0000  39.5000 Du        
   2606 ****        -0.2500   2.0000  39.7500 Du        
   2607 ****        -0.2500   2.0000  40.0000 Du        
   2608 ****        -0.2500   2.0000  40.2500 Du        
   2609 ****        -0.2500   2.0000  40.5000 Du        
   2610 ****        -0.2500   2.0000  40.7500 Du        
   2611 ****        -0.2500   2.0000  41.0000 Du        
   2612 ****        -0.2500   2.0000  41.2500 Du        
   2613 ****        -0.2500   2.2500  36.5000 Du        
   2614 ****        -0.2500   2.2500  36.7500 Du        
   2615 ****        -0.2500   2.2500  37.0000 Du        
   2616 ****        -0.2500   2.2500  37.2500 Du        
   2617 ****        -0.2500   2.2500  37.5000 Du        
   2618 ****        -0.2500   2.2500  37.7500 Du        
   2619 ****        -0.2500   2.2500  38.0000 Du        
   2620 ****        -0.2500   2.2500  38.2500 Du        
   2621 ****        -0.2500   2.2500  38.5000 Du        
   2622 ****        -0.2500   2.2500  38.7500 Du        
   2623 ****        -0.2500   2.2500  39.0000 Du        
   2624 ****        -0.2500   2.2500  39.2500 Du        
   2625 ****        -0.2500   2.2500  39.5000 Du        
   2626 ****        -0.2500   2.2500  39.7500 Du        
   2627 ****        -0.2500   2.2500  40.0000 Du        
   2628 ****        -0.2500   2.2500  40.2500 Du        
   2629 ****        -0.2500   2.2500  40.5000 Du        
   2630 ****        -0.2500   2.2500  40.7500 Du        
   2631 ****        -0.2500   2.2500  41.0000 Du        
   2632 ****        -0.2500   2.2500  41.2500 Du        
   2633 ****        -0.2500   2.5000  36.5000 Du        
   2634 ****        -0.2500   2.5000  36.7500 Du        
   2635 ****        -0.2500   2.5000  37.0000 Du        
   2636 ****        -0.2500   2.5000  37.2500 Du        
   2637 ****        -0.2500   2.5000  37.5000 Du        
   2638 ****        -0.2500   2.5000  37.7500 Du        
   2639 ****        -0.2500   2.5000  38.0000 Du        
   2640 ****        -0.2500   2.5000  38.2500 Du        
   2641 ****        -0.2500   2.5000  38.5000 Du        
   2642 ****        -0.2500   2.5000  38.7500 Du        
   2643 ****        -0.2500   2.5000  39.0000 Du        
   2644 ****        -0.2500   2.5000  39.2500 Du        
   2645 ****        -0.2500   2.5000  39.5000 Du        
   2646 ****        -0.2500   2.5000  39.7500 Du        
   2647 ****        -0.2500   2.5000  40.0000 Du        
   2648 ****        -0.2500   2.5000  40.2500 Du        
   2649 ****        -0.2500   2.5000  40.5000 Du        
   2650 ****        -0.2500   2.5000  40.7500 Du        
   2651 ****        -0.2500   2.5000  41.0000 Du        
   2652 ****        -0.2500   2.5000  41.2500 Du        
   2653 ****        -0.2500   2.7500  36.5000 Du        
   2654 ****        -0.2500   2.7500  36.7500 Du        
   2655 ****        -0.2500   2.7500  37.0000 Du        
   2656 ****        -0.2500   2.7500  37.2500 Du        
   2657 ****        -0.2500   2.7500  37.5000 Du        
   2658 ****        -0.2500   2.7500  37.7500 Du        
   2659 ****        -0.2500   2.7500  38.0000 Du        
   2660 ****        -0.2500   2.7500  38.2500 Du        
   2661 ****        -0.2500   2.7500  38.5000 Du        
   2662 ****        -0.2500   2.7500  38.7500 Du        
   2663 ****        -0.2500   2.7500  39.0000 Du        
   2664 ****        -0.2500   2.7500  39.2500 Du        
   2665 ****        -0.2500   2.7500  39.5000 Du        
   2666 ****        -0.2500   2.7500  39.7500 Du        
   2667 ****        -0.2500   2.7500  40.0000 Du        
   2668 ****        -0.2500   2.7500  40.2500 Du        
   2669 ****        -0.2500   2.7500  40.5000 Du        
   2670 ****        -0.2500   2.7500  40.7500 Du        
   2671 ****        -0.2500   2.7500  41.0000 Du        
   2672 ****        -0.2500   2.7500  41.2500 Du        
   2673 ****        -0.2500   3.0000  36.7500 Du        
   2674 ****        -0.2500   3.0000  37.0000 Du        
   2675 ****        -0.2500   3.0000  37.2500 Du        
   2676 ****        -0.2500   3.0000  37.5000 Du        
   2677 ****        -0.2500   3.0000  37.7500 Du        
   2678 ****        -0.2500   3.0000  38.0000 Du        
   2679 ****        -0.2500   3.0000  38.2500 Du        
   2680 ****        -0.2500   3.0000  38.5000 Du        
   2681 ****        -0.2500   3.0000  38.7500 Du        
   2682 ****        -0.2500   3.0000  39.0000 Du        
   2683 ****        -0.2500   3.0000  39.2500 Du        
   2684 ****        -0.2500   3.0000  39.5000 Du        
   2685 ****        -0.2500   3.0000  39.7500 Du        
   2686 ****        -0.2500   3.0000  40.0000 Du        
   2687 ****        -0.2500   3.0000  40.2500 Du        
   2688 ****        -0.2500   3.0000  40.5000 Du        
   2689 ****        -0.2500   3.0000  40.7500 Du        
   2690 ****        -0.2500   3.0000  41.0000 Du        
   2691 ****        -0.2500   3.2500  36.7500 Du        
   2692 ****        -0.2500   3.2500  37.0000 Du        
   2693 ****        -0.2500   3.2500  37.2500 Du        
   2694 ****        -0.2500   3.2500  37.5000 Du        
   2695 ****        -0.2500   3.2500  37.7500 Du        
   2696 ****        -0.2500   3.2500  38.0000 Du        
   2697 ****        -0.2500   3.2500  38.2500 Du        
   2698 ****        -0.2500   3.2500  38.5000 Du        
   2699 ****        -0.2500   3.2500  38.7500 Du        
   2700 ****        -0.2500   3.2500  39.0000 Du        
   2701 ****        -0.2500   3.2500  39.2500 Du        
   2702 ****        -0.2500   3.2500  39.5000 Du        
   2703 ****        -0.2500   3.2500  39.7500 Du        
   2704 ****        -0.2500   3.2500  40.0000 Du        
   2705 ****        -0.2500   3.2500  40.2500 Du        
   2706 ****        -0.2500   3.2500  40.5000 Du        
   2707 ****        -0.2500   3.2500  40.7500 Du        
   2708 ****        -0.2500   3.5000  37.0000 Du        
   2709 ****        -0.2500   3.5000  37.2500 Du        
   2710 ****        -0.2500   3.5000  37.5000 Du        
   2711 ****        -0.2500   3.5000  37.7500 Du        
   2712 ****        -0.2500   3.5000  38.0000 Du        
   2713 ****        -0.2500   3.5000  38.2500 Du        
   2714 ****        -0.2500   3.5000  38.5000 Du        
   2715 ****        -0.2500   3.5000  38.7500 Du        
   2716 ****        -0.2500   3.5000  39.0000 Du        
   2717 ****        -0.2500   3.5000  39.2500 Du        
   2718 ****        -0.2500   3.5000  39.5000 Du        
   2719 ****        -0.2500   3.5000  39.7500 Du        
   2720 ****        -0.2500   3.5000  40.0000 Du        
   2721 ****        -0.2500   3.5000  40.2500 Du        
   2722 ****        -0.2500   3.5000  40.5000 Du        
   2723 ****        -0.2500   3.7500  37.7500 Du        
   2724 ****        -0.2500   3.7500  38.0000 Du        
   2725 ****        -0.2500   3.7500  38.2500 Du        
   2726 ****        -0.2500   3.7500  38.5000 Du        
   2727 ****        -0.2500   3.7500  38.7500 Du        
   2728 ****        -0.2500   3.7500  39.0000 Du        
   2729 ****        -0.2500   3.7500  39.2500 Du        
   2730 ****        -0.2500   3.7500  39.5000 Du        
   2731 ****        -0.2500   3.7500  39.7500 Du        
   2732 ****        -0.2500   8.2500  30.0000 Du        
   2733 ****        -0.2500   8.2500  30.2500 Du        
   2734 ****        -0.2500   8.2500  30.5000 Du        
   2735 ****        -0.2500   8.2500  30.7500 Du        
   2736 ****        -0.2500   8.2500  31.0000 Du        
   2737 ****        -0.2500   8.5000  30.0000 Du        
   2738 ****        -0.2500   8.5000  30.2500 Du        
   2739 ****        -0.2500   8.5000  30.5000 Du        
   2740 ****        -0.2500   8.5000  30.7500 Du        
   2741 ****        -0.2500   8.5000  31.0000 Du        
   2742 ****        -0.2500   8.7500  30.0000 Du        
   2743 ****        -0.2500   8.7500  30.2500 Du        
   2744 ****        -0.2500   8.7500  30.5000 Du        
   2745 ****        -0.2500   8.7500  30.7500 Du        
   2746 ****        -0.2500   8.7500  31.0000 Du        
   2747 ****        -0.2500   8.7500  31.2500 Du        
   2748 ****        -0.2500   9.0000  30.2500 Du        
   2749 ****        -0.2500   9.0000  30.5000 Du        
   2750 ****        -0.2500   9.0000  30.7500 Du        
   2751 ****        -0.2500   9.0000  31.0000 Du        
   2752 ****        -0.2500   9.0000  31.2500 Du        
   2753 ****        -0.2500   9.2500  30.2500 Du        
   2754 ****        -0.2500   9.2500  30.5000 Du        
   2755 ****        -0.2500   9.2500  30.7500 Du        
   2756 ****        -0.2500   9.2500  31.0000 Du        
   2757 ****        -0.2500   9.2500  31.2500 Du        
   2758 ****        -0.2500   9.5000  30.5000 Du        
   2759 ****        -0.2500   9.5000  30.7500 Du        
   2760 ****        -0.2500   9.5000  31.0000 Du        
   2761 ****        -0.2500   9.5000  31.2500 Du        
   2762 ****        -0.2500  21.7500  34.7500 Du        
   2763 ****        -0.2500  21.7500  35.0000 Du        
   2764 ****        -0.2500  21.7500  35.2500 Du        
   2765 ****        -0.2500  22.0000  34.0000 Du        
   2766 ****        -0.2500  22.0000  34.2500 Du        
   2767 ****        -0.2500  22.0000  34.5000 Du        
   2768 ****        -0.2500  22.0000  34.7500 Du        
   2769 ****        -0.2500  22.0000  35.0000 Du        
   2770 ****        -0.2500  22.0000  35.2500 Du        
   2771 ****        -0.2500  22.2500  33.0000 Du        
   2772 ****        -0.2500  22.2500  33.2500 Du        
   2773 ****        -0.2500  22.2500  33.5000 Du        
   2774 ****        -0.2500  22.2500  33.7500 Du        
   2775 ****        -0.2500  22.2500  34.0000 Du        
   2776 ****        -0.2500  22.2500  34.2500 Du        
   2777 ****        -0.2500  22.2500  34.5000 Du        
   2778 ****        -0.2500  22.2500  34.7500 Du        
   2779 ****        -0.2500  22.2500  35.0000 Du        
   2780 ****        -0.2500  22.2500  35.2500 Du        
   2781 ****        -0.2500  22.5000  33.0000 Du        
   2782 ****        -0.2500  22.5000  33.2500 Du        
   2783 ****        -0.2500  22.5000  33.5000 Du        
   2784 ****        -0.2500  22.5000  33.7500 Du        
   2785 ****        -0.2500  22.5000  34.0000 Du        
   2786 ****        -0.2500  22.5000  34.2500 Du        
   2787 ****        -0.2500  22.5000  34.5000 Du        
   2788 ****        -0.2500  22.5000  34.7500 Du        
   2789 ****        -0.2500  22.5000  35.0000 Du        
   2790 ****        -0.2500  22.7500  33.0000 Du        
   2791 ****        -0.2500  22.7500  33.2500 Du        
   2792 ****        -0.2500  22.7500  33.5000 Du        
   2793 ****        -0.2500  22.7500  33.7500 Du        
   2794 ****        -0.2500  22.7500  34.0000 Du        
   2795 ****        -0.2500  22.7500  34.2500 Du        
   2796 ****        -0.2500  22.7500  34.5000 Du        
   2797 ****        -0.2500  22.7500  34.7500 Du        
   2798 ****        -0.2500  23.0000  33.0000 Du        
   2799 ****        -0.2500  23.0000  33.2500 Du        
   2800 ****        -0.2500  23.0000  33.5000 Du        
   2801 ****        -0.2500  23.0000  33.7500 Du        
   2802 ****        -0.2500  23.0000  34.0000 Du        
   2803 ****        -0.2500  23.0000  34.2500 Du        
   2804 ****        -0.2500  23.0000  34.5000 Du        
   2805 ****        -0.2500  23.2500  33.0000 Du        
   2806 ****        -0.2500  23.2500  33.2500 Du        
   2807 ****        -0.2500  23.2500  33.5000 Du        
   2808 ****        -0.2500  23.2500  33.7500 Du        
   2809 ****        -0.2500  23.2500  34.0000 Du        
   2810 ****        -0.2500  23.2500  34.2500 Du        
   2811 ****        -0.2500  23.5000  33.2500 Du        
   2812 ****        -0.2500  23.5000  33.5000 Du        
   2813 ****        -0.2500  23.5000  33.7500 Du        
   2814 ****        -0.2500  23.5000  34.0000 Du        
   2815 ****         0.0000   1.0000  40.7500 Du        
   2816 ****         0.0000   1.2500  39.7500 Du        
   2817 ****         0.0000   1.2500  40.0000 Du        
   2818 ****         0.0000   1.2500  40.2500 Du        
   2819 ****         0.0000   1.2500  40.5000 Du        
   2820 ****         0.0000   1.2500  40.7500 Du        
   2821 ****         0.0000   1.2500  41.0000 Du        
   2822 ****         0.0000   1.2500  41.2500 Du        
   2823 ****         0.0000   1.5000  36.2500 Du        
   2824 ****         0.0000   1.5000  36.5000 Du        
   2825 ****         0.0000   1.5000  36.7500 Du        
   2826 ****         0.0000   1.5000  37.0000 Du        
   2827 ****         0.0000   1.5000  37.2500 Du        
   2828 ****         0.0000   1.5000  37.7500 Du        
   2829 ****         0.0000   1.5000  38.0000 Du        
   2830 ****         0.0000   1.5000  39.0000 Du        
   2831 ****         0.0000   1.5000  39.2500 Du        
   2832 ****         0.0000   1.5000  39.5000 Du        
   2833 ****         0.0000   1.5000  39.7500 Du        
   2834 ****         0.0000   1.5000  40.0000 Du        
   2835 ****         0.0000   1.5000  40.2500 Du        
   2836 ****         0.0000   1.5000  40.5000 Du        
   2837 ****         0.0000   1.5000  40.7500 Du        
   2838 ****         0.0000   1.5000  41.0000 Du        
   2839 ****         0.0000   1.5000  41.2500 Du        
   2840 ****         0.0000   1.5000  41.5000 Du        
   2841 ****         0.0000   1.7500  36.2500 Du        
   2842 ****         0.0000   1.7500  36.5000 Du        
   2843 ****         0.0000   1.7500  36.7500 Du        
   2844 ****         0.0000   1.7500  37.0000 Du        
   2845 ****         0.0000   1.7500  37.2500 Du        
   2846 ****         0.0000   1.7500  37.5000 Du        
   2847 ****         0.0000   1.7500  37.7500 Du        
   2848 ****         0.0000   1.7500  38.0000 Du        
   2849 ****         0.0000   1.7500  38.2500 Du        
   2850 ****         0.0000   1.7500  38.5000 Du        
   2851 ****         0.0000   1.7500  38.7500 Du        
   2852 ****         0.0000   1.7500  39.0000 Du        
   2853 ****         0.0000   1.7500  39.2500 Du        
   2854 ****         0.0000   1.7500  39.5000 Du        
   2855 ****         0.0000   1.7500  39.7500 Du        
   2856 ****         0.0000   1.7500  40.0000 Du        
   2857 ****         0.0000   1.7500  40.2500 Du        
   2858 ****         0.0000   1.7500  40.5000 Du        
   2859 ****         0.0000   1.7500  40.7500 Du        
   2860 ****         0.0000   1.7500  41.0000 Du        
   2861 ****         0.0000   1.7500  41.2500 Du        
   2862 ****         0.0000   1.7500  41.5000 Du        
   2863 ****         0.0000   2.0000  36.2500 Du        
   2864 ****         0.0000   2.0000  36.5000 Du        
   2865 ****         0.0000   2.0000  36.7500 Du        
   2866 ****         0.0000   2.0000  37.0000 Du        
   2867 ****         0.0000   2.0000  37.2500 Du        
   2868 ****         0.0000   2.0000  37.5000 Du        
   2869 ****         0.0000   2.0000  37.7500 Du        
   2870 ****         0.0000   2.0000  38.0000 Du        
   2871 ****         0.0000   2.0000  38.2500 Du        
   2872 ****         0.0000   2.0000  38.5000 Du        
   2873 ****         0.0000   2.0000  38.7500 Du        
   2874 ****         0.0000   2.0000  39.0000 Du        
   2875 ****         0.0000   2.0000  39.2500 Du        
   2876 ****         0.0000   2.0000  39.5000 Du        
   2877 ****         0.0000   2.0000  39.7500 Du        
   2878 ****         0.0000   2.0000  40.0000 Du        
   2879 ****         0.0000   2.0000  40.2500 Du        
   2880 ****         0.0000   2.0000  40.5000 Du        
   2881 ****         0.0000   2.0000  40.7500 Du        
   2882 ****         0.0000   2.0000  41.0000 Du        
   2883 ****         0.0000   2.0000  41.2500 Du        
   2884 ****         0.0000   2.0000  41.5000 Du        
   2885 ****         0.0000   2.0000  41.7500 Du        
   2886 ****         0.0000   2.2500  36.5000 Du        
   2887 ****         0.0000   2.2500  36.7500 Du        
   2888 ****         0.0000   2.2500  37.0000 Du        
   2889 ****         0.0000   2.2500  37.2500 Du        
   2890 ****         0.0000   2.2500  37.5000 Du        
   2891 ****         0.0000   2.2500  37.7500 Du        
   2892 ****         0.0000   2.2500  38.0000 Du        
   2893 ****         0.0000   2.2500  38.2500 Du        
   2894 ****         0.0000   2.2500  38.5000 Du        
   2895 ****         0.0000   2.2500  38.7500 Du        
   2896 ****         0.0000   2.2500  39.0000 Du        
   2897 ****         0.0000   2.2500  39.2500 Du        
   2898 ****         0.0000   2.2500  39.5000 Du        
   2899 ****         0.0000   2.2500  39.7500 Du        
   2900 ****         0.0000   2.2500  40.0000 Du        
   2901 ****         0.0000   2.2500  40.2500 Du        
   2902 ****         0.0000   2.2500  40.5000 Du        
   2903 ****         0.0000   2.2500  40.7500 Du        
   2904 ****         0.0000   2.2500  41.0000 Du        
   2905 ****         0.0000   2.2500  41.2500 Du        
   2906 ****         0.0000   2.2500  41.5000 Du        
   2907 ****         0.0000   2.2500  41.7500 Du        
   2908 ****         0.0000   2.5000  36.5000 Du        
   2909 ****         0.0000   2.5000  36.7500 Du        
   2910 ****         0.0000   2.5000  37.0000 Du        
   2911 ****         0.0000   2.5000  37.2500 Du        
   2912 ****         0.0000   2.5000  37.5000 Du        
   2913 ****         0.0000   2.5000  37.7500 Du        
   2914 ****         0.0000   2.5000  38.0000 Du        
   2915 ****         0.0000   2.5000  38.2500 Du        
   2916 ****         0.0000   2.5000  38.5000 Du        
   2917 ****         0.0000   2.5000  38.7500 Du        
   2918 ****         0.0000   2.5000  39.0000 Du        
   2919 ****         0.0000   2.5000  39.2500 Du        
   2920 ****         0.0000   2.5000  39.5000 Du        
   2921 ****         0.0000   2.5000  39.7500 Du        
   2922 ****         0.0000   2.5000  40.0000 Du        
   2923 ****         0.0000   2.5000  40.2500 Du        
   2924 ****         0.0000   2.5000  40.5000 Du        
   2925 ****         0.0000   2.5000  40.7500 Du        
   2926 ****         0.0000   2.5000  41.0000 Du        
   2927 ****         0.0000   2.5000  41.2500 Du        
   2928 ****         0.0000   2.5000  41.5000 Du        
   2929 ****         0.0000   2.7500  36.5000 Du        
   2930 ****         0.0000   2.7500  36.7500 Du        
   2931 ****         0.0000   2.7500  37.0000 Du        
   2932 ****         0.0000   2.7500  37.2500 Du        
   2933 ****         0.0000   2.7500  37.5000 Du        
   2934 ****         0.0000   2.7500  37.7500 Du        
   2935 ****         0.0000   2.7500  38.0000 Du        
   2936 ****         0.0000   2.7500  38.2500 Du        
   2937 ****         0.0000   2.7500  38.5000 Du        
   2938 ****         0.0000   2.7500  38.7500 Du        
   2939 ****         0.0000   2.7500  39.0000 Du        
   2940 ****         0.0000   2.7500  39.2500 Du        
   2941 ****         0.0000   2.7500  39.5000 Du        
   2942 ****         0.0000   2.7500  39.7500 Du        
   2943 ****         0.0000   2.7500  40.0000 Du        
   2944 ****         0.0000   2.7500  40.2500 Du        
   2945 ****         0.0000   2.7500  40.5000 Du        
   2946 ****         0.0000   2.7500  40.7500 Du        
   2947 ****         0.0000   2.7500  41.0000 Du        
   2948 ****         0.0000   2.7500  41.2500 Du        
   2949 ****         0.0000   3.0000  36.7500 Du        
   2950 ****         0.0000   3.0000  37.0000 Du        
   2951 ****         0.0000   3.0000  37.2500 Du        
   2952 ****         0.0000   3.0000  37.5000 Du        
   2953 ****         0.0000   3.0000  37.7500 Du        
   2954 ****         0.0000   3.0000  38.0000 Du        
   2955 ****         0.0000   3.0000  38.2500 Du        
   2956 ****         0.0000   3.0000  38.5000 Du        
   2957 ****         0.0000   3.0000  38.7500 Du        
   2958 ****         0.0000   3.0000  39.0000 Du        
   2959 ****         0.0000   3.0000  39.2500 Du        
   2960 ****         0.0000   3.0000  39.5000 Du        
   2961 ****         0.0000   3.0000  39.7500 Du        
   2962 ****         0.0000   3.0000  40.0000 Du        
   2963 ****         0.0000   3.0000  40.2500 Du        
   2964 ****         0.0000   3.0000  40.5000 Du        
   2965 ****         0.0000   3.0000  40.7500 Du        
   2966 ****         0.0000   3.2500  36.7500 Du        
   2967 ****         0.0000   3.2500  37.0000 Du        
   2968 ****         0.0000   3.2500  37.2500 Du        
   2969 ****         0.0000   3.2500  37.5000 Du        
   2970 ****         0.0000   3.2500  37.7500 Du        
   2971 ****         0.0000   3.2500  38.0000 Du        
   2972 ****         0.0000   3.2500  38.2500 Du        
   2973 ****         0.0000   3.2500  38.5000 Du        
   2974 ****         0.0000   3.2500  38.7500 Du        
   2975 ****         0.0000   3.2500  39.0000 Du        
   2976 ****         0.0000   3.2500  39.2500 Du        
   2977 ****         0.0000   3.2500  39.5000 Du        
   2978 ****         0.0000   3.2500  39.7500 Du        
   2979 ****         0.0000   3.2500  40.0000 Du        
   2980 ****         0.0000   3.2500  40.2500 Du        
   2981 ****         0.0000   3.5000  37.0000 Du        
   2982 ****         0.0000   3.5000  37.2500 Du        
   2983 ****         0.0000   3.5000  37.5000 Du        
   2984 ****         0.0000   3.5000  37.7500 Du        
   2985 ****         0.0000   3.5000  38.0000 Du        
   2986 ****         0.0000   3.5000  38.2500 Du        
   2987 ****         0.0000   3.5000  38.5000 Du        
   2988 ****         0.0000   3.5000  38.7500 Du        
   2989 ****         0.0000   3.5000  39.0000 Du        
   2990 ****         0.0000   3.5000  39.2500 Du        
   2991 ****         0.0000   3.5000  39.5000 Du        
   2992 ****         0.0000   3.7500  37.0000 Du        
   2993 ****         0.0000   3.7500  37.2500 Du        
   2994 ****         0.0000   3.7500  37.5000 Du        
   2995 ****         0.0000   3.7500  37.7500 Du        
   2996 ****         0.0000   3.7500  38.0000 Du        
   2997 ****         0.0000   3.7500  38.2500 Du        
   2998 ****         0.0000   3.7500  38.5000 Du        
   2999 ****         0.0000   3.7500  38.7500 Du        
   3000 ****         0.0000   3.7500  39.0000 Du        
   3001 ****         0.0000   8.2500  30.2500 Du        
   3002 ****         0.0000   8.2500  30.5000 Du        
   3003 ****         0.0000   8.2500  30.7500 Du        
   3004 ****         0.0000   8.2500  31.0000 Du        
   3005 ****         0.0000   8.5000  30.0000 Du        
   3006 ****         0.0000   8.5000  30.2500 Du        
   3007 ****         0.0000   8.5000  30.5000 Du        
   3008 ****         0.0000   8.5000  30.7500 Du        
   3009 ****         0.0000   8.5000  31.0000 Du        
   3010 ****         0.0000   8.5000  31.2500 Du        
   3011 ****         0.0000   8.7500  30.0000 Du        
   3012 ****         0.0000   8.7500  30.2500 Du        
   3013 ****         0.0000   8.7500  30.5000 Du        
   3014 ****         0.0000   8.7500  30.7500 Du        
   3015 ****         0.0000   8.7500  31.0000 Du        
   3016 ****         0.0000   8.7500  31.2500 Du        
   3017 ****         0.0000   8.7500  31.5000 Du        
   3018 ****         0.0000   9.0000  30.0000 Du        
   3019 ****         0.0000   9.0000  30.2500 Du        
   3020 ****         0.0000   9.0000  30.5000 Du        
   3021 ****         0.0000   9.0000  30.7500 Du        
   3022 ****         0.0000   9.0000  31.0000 Du        
   3023 ****         0.0000   9.0000  31.2500 Du        
   3024 ****         0.0000   9.0000  31.5000 Du        
   3025 ****         0.0000   9.2500  30.2500 Du        
   3026 ****         0.0000   9.2500  30.5000 Du        
   3027 ****         0.0000   9.2500  30.7500 Du        
   3028 ****         0.0000   9.2500  31.0000 Du        
   3029 ****         0.0000   9.2500  31.2500 Du        
   3030 ****         0.0000   9.2500  31.5000 Du        
   3031 ****         0.0000   9.5000  30.2500 Du        
   3032 ****         0.0000   9.5000  30.5000 Du        
   3033 ****         0.0000   9.5000  30.7500 Du        
   3034 ****         0.0000   9.5000  31.0000 Du        
   3035 ****         0.0000   9.5000  31.2500 Du        
   3036 ****         0.0000   9.5000  31.5000 Du        
   3037 ****         0.0000   9.7500  30.5000 Du        
   3038 ****         0.0000   9.7500  30.7500 Du        
   3039 ****         0.0000   9.7500  31.0000 Du        
   3040 ****         0.0000   9.7500  31.2500 Du        
   3041 ****         0.0000   9.7500  31.5000 Du        
   3042 ****         0.0000  22.0000  34.5000 Du        
   3043 ****         0.0000  22.0000  34.7500 Du        
   3044 ****         0.0000  22.0000  35.0000 Du        
   3045 ****         0.0000  22.0000  35.2500 Du        
   3046 ****         0.0000  22.2500  33.2500 Du        
   3047 ****         0.0000  22.2500  33.5000 Du        
   3048 ****         0.0000  22.2500  33.7500 Du        
   3049 ****         0.0000  22.2500  34.0000 Du        
   3050 ****         0.0000  22.2500  34.2500 Du        
   3051 ****         0.0000  22.2500  34.5000 Du        
   3052 ****         0.0000  22.2500  34.7500 Du        
   3053 ****         0.0000  22.2500  35.0000 Du        
   3054 ****         0.0000  22.5000  33.2500 Du        
   3055 ****         0.0000  22.5000  33.5000 Du        
   3056 ****         0.0000  22.5000  33.7500 Du        
   3057 ****         0.0000  22.5000  34.0000 Du        
   3058 ****         0.0000  22.5000  34.2500 Du        
   3059 ****         0.0000  22.5000  34.5000 Du        
   3060 ****         0.0000  22.5000  34.7500 Du        
   3061 ****         0.0000  22.7500  33.0000 Du        
   3062 ****         0.0000  22.7500  33.2500 Du        
   3063 ****         0.0000  22.7500  33.5000 Du        
   3064 ****         0.0000  22.7500  33.7500 Du        
   3065 ****         0.0000  22.7500  34.0000 Du        
   3066 ****         0.0000  22.7500  34.2500 Du        
   3067 ****         0.0000  22.7500  34.5000 Du        
   3068 ****         0.0000  22.7500  34.7500 Du        
   3069 ****         0.0000  23.0000  33.0000 Du        
   3070 ****         0.0000  23.0000  33.2500 Du        
   3071 ****         0.0000  23.0000  33.5000 Du        
   3072 ****         0.0000  23.0000  33.7500 Du        
   3073 ****         0.0000  23.0000  34.0000 Du        
   3074 ****         0.0000  23.0000  34.2500 Du        
   3075 ****         0.0000  23.0000  34.5000 Du        
   3076 ****         0.0000  23.2500  33.2500 Du        
   3077 ****         0.0000  23.2500  33.5000 Du        
   3078 ****         0.0000  23.2500  33.7500 Du        
   3079 ****         0.0000  23.2500  34.0000 Du        
   3080 ****         0.0000  23.2500  34.2500 Du        
   3081 ****         0.0000  23.5000  33.2500 Du        
   3082 ****         0.0000  23.5000  33.5000 Du        
   3083 ****         0.0000  23.5000  33.7500 Du        
   3084 ****         0.0000  23.5000  34.0000 Du        
   3085 ****         0.0000  23.7500  33.5000 Du        
   3086 ****         0.0000  23.7500  33.7500 Du        
   3087 ****         0.2500   1.0000  40.0000 Du        
   3088 ****         0.2500   1.0000  40.2500 Du        
   3089 ****         0.2500   1.0000  40.5000 Du        
   3090 ****         0.2500   1.0000  40.7500 Du        
   3091 ****         0.2500   1.0000  41.0000 Du        
   3092 ****         0.2500   1.0000  41.2500 Du        
   3093 ****         0.2500   1.2500  39.2500 Du        
   3094 ****         0.2500   1.2500  39.5000 Du        
   3095 ****         0.2500   1.2500  39.7500 Du        
   3096 ****         0.2500   1.2500  40.0000 Du        
   3097 ****         0.2500   1.2500  40.2500 Du        
   3098 ****         0.2500   1.2500  40.5000 Du        
   3099 ****         0.2500   1.2500  40.7500 Du        
   3100 ****         0.2500   1.2500  41.0000 Du        
   3101 ****         0.2500   1.2500  41.2500 Du        
   3102 ****         0.2500   1.2500  41.5000 Du        
   3103 ****         0.2500   1.5000  36.5000 Du        
   3104 ****         0.2500   1.5000  36.7500 Du        
   3105 ****         0.2500   1.5000  37.0000 Du        
   3106 ****         0.2500   1.5000  37.2500 Du        
   3107 ****         0.2500   1.5000  37.5000 Du        
   3108 ****         0.2500   1.5000  37.7500 Du        
   3109 ****         0.2500   1.5000  38.0000 Du        
   3110 ****         0.2500   1.5000  38.2500 Du        
   3111 ****         0.2500   1.5000  38.5000 Du        
   3112 ****         0.2500   1.5000  38.7500 Du        
   3113 ****         0.2500   1.5000  39.0000 Du        
   3114 ****         0.2500   1.5000  39.2500 Du        
   3115 ****         0.2500   1.5000  39.5000 Du        
   3116 ****         0.2500   1.5000  39.7500 Du        
   3117 ****         0.2500   1.5000  40.0000 Du        
   3118 ****         0.2500   1.5000  40.2500 Du        
   3119 ****         0.2500   1.5000  40.5000 Du        
   3120 ****         0.2500   1.5000  40.7500 Du        
   3121 ****         0.2500   1.5000  41.0000 Du        
   3122 ****         0.2500   1.5000  41.2500 Du        
   3123 ****         0.2500   1.5000  41.5000 Du        
   3124 ****         0.2500   1.5000  41.7500 Du        
   3125 ****         0.2500   1.7500  36.2500 Du        
   3126 ****         0.2500   1.7500  36.5000 Du        
   3127 ****         0.2500   1.7500  36.7500 Du        
   3128 ****         0.2500   1.7500  37.0000 Du        
   3129 ****         0.2500   1.7500  37.2500 Du        
   3130 ****         0.2500   1.7500  37.5000 Du        
   3131 ****         0.2500   1.7500  37.7500 Du        
   3132 ****         0.2500   1.7500  38.0000 Du        
   3133 ****         0.2500   1.7500  38.2500 Du        
   3134 ****         0.2500   1.7500  38.5000 Du        
   3135 ****         0.2500   1.7500  38.7500 Du        
   3136 ****         0.2500   1.7500  39.0000 Du        
   3137 ****         0.2500   1.7500  39.2500 Du        
   3138 ****         0.2500   1.7500  39.5000 Du        
   3139 ****         0.2500   1.7500  39.7500 Du        
   3140 ****         0.2500   1.7500  40.0000 Du        
   3141 ****         0.2500   1.7500  40.2500 Du        
   3142 ****         0.2500   1.7500  40.5000 Du        
   3143 ****         0.2500   1.7500  40.7500 Du        
   3144 ****         0.2500   1.7500  41.0000 Du        
   3145 ****         0.2500   1.7500  41.2500 Du        
   3146 ****         0.2500   1.7500  41.5000 Du        
   3147 ****         0.2500   1.7500  41.7500 Du        
   3148 ****         0.2500   2.0000  36.5000 Du        
   3149 ****         0.2500   2.0000  36.7500 Du        
   3150 ****         0.2500   2.0000  37.0000 Du        
   3151 ****         0.2500   2.0000  37.2500 Du        
   3152 ****         0.2500   2.0000  37.5000 Du        
   3153 ****         0.2500   2.0000  37.7500 Du        
   3154 ****         0.2500   2.0000  38.0000 Du        
   3155 ****         0.2500   2.0000  38.2500 Du        
   3156 ****         0.2500   2.0000  38.5000 Du        
   3157 ****         0.2500   2.0000  38.7500 Du        
   3158 ****         0.2500   2.0000  39.0000 Du        
   3159 ****         0.2500   2.0000  39.2500 Du        
   3160 ****         0.2500   2.0000  39.5000 Du        
   3161 ****         0.2500   2.0000  39.7500 Du        
   3162 ****         0.2500   2.0000  40.0000 Du        
   3163 ****         0.2500   2.0000  40.2500 Du        
   3164 ****         0.2500   2.0000  40.5000 Du        
   3165 ****         0.2500   2.0000  40.7500 Du        
   3166 ****         0.2500   2.0000  41.0000 Du        
   3167 ****         0.2500   2.0000  41.2500 Du        
   3168 ****         0.2500   2.0000  41.5000 Du        
   3169 ****         0.2500   2.0000  41.7500 Du        
   3170 ****         0.2500   2.2500  36.5000 Du        
   3171 ****         0.2500   2.2500  36.7500 Du        
   3172 ****         0.2500   2.2500  37.0000 Du        
   3173 ****         0.2500   2.2500  37.2500 Du        
   3174 ****         0.2500   2.2500  37.5000 Du        
   3175 ****         0.2500   2.2500  37.7500 Du        
   3176 ****         0.2500   2.2500  38.0000 Du        
   3177 ****         0.2500   2.2500  38.2500 Du        
   3178 ****         0.2500   2.2500  38.5000 Du        
   3179 ****         0.2500   2.2500  38.7500 Du        
   3180 ****         0.2500   2.2500  39.0000 Du        
   3181 ****         0.2500   2.2500  39.2500 Du        
   3182 ****         0.2500   2.2500  39.5000 Du        
   3183 ****         0.2500   2.2500  39.7500 Du        
   3184 ****         0.2500   2.2500  40.0000 Du        
   3185 ****         0.2500   2.2500  40.2500 Du        
   3186 ****         0.2500   2.2500  40.5000 Du        
   3187 ****         0.2500   2.2500  40.7500 Du        
   3188 ****         0.2500   2.2500  41.0000 Du        
   3189 ****         0.2500   2.2500  41.2500 Du        
   3190 ****         0.2500   2.2500  41.5000 Du        
   3191 ****         0.2500   2.2500  41.7500 Du        
   3192 ****         0.2500   2.5000  36.5000 Du        
   3193 ****         0.2500   2.5000  36.7500 Du        
   3194 ****         0.2500   2.5000  37.0000 Du        
   3195 ****         0.2500   2.5000  37.2500 Du        
   3196 ****         0.2500   2.5000  37.5000 Du        
   3197 ****         0.2500   2.5000  37.7500 Du        
   3198 ****         0.2500   2.5000  38.0000 Du        
   3199 ****         0.2500   2.5000  38.2500 Du        
   3200 ****         0.2500   2.5000  38.5000 Du        
   3201 ****         0.2500   2.5000  38.7500 Du        
   3202 ****         0.2500   2.5000  39.0000 Du        
   3203 ****         0.2500   2.5000  39.2500 Du        
   3204 ****         0.2500   2.5000  39.5000 Du        
   3205 ****         0.2500   2.5000  39.7500 Du        
   3206 ****         0.2500   2.5000  40.0000 Du        
   3207 ****         0.2500   2.5000  40.2500 Du        
   3208 ****         0.2500   2.5000  40.5000 Du        
   3209 ****         0.2500   2.5000  40.7500 Du        
   3210 ****         0.2500   2.5000  41.0000 Du        
   3211 ****         0.2500   2.5000  41.2500 Du        
   3212 ****         0.2500   2.7500  36.5000 Du        
   3213 ****         0.2500   2.7500  36.7500 Du        
   3214 ****         0.2500   2.7500  37.0000 Du        
   3215 ****         0.2500   2.7500  37.2500 Du        
   3216 ****         0.2500   2.7500  37.5000 Du        
   3217 ****         0.2500   2.7500  37.7500 Du        
   3218 ****         0.2500   2.7500  38.0000 Du        
   3219 ****         0.2500   2.7500  38.2500 Du        
   3220 ****         0.2500   2.7500  38.5000 Du        
   3221 ****         0.2500   2.7500  38.7500 Du        
   3222 ****         0.2500   2.7500  39.0000 Du        
   3223 ****         0.2500   2.7500  39.2500 Du        
   3224 ****         0.2500   2.7500  39.5000 Du        
   3225 ****         0.2500   2.7500  39.7500 Du        
   3226 ****         0.2500   2.7500  40.0000 Du        
   3227 ****         0.2500   2.7500  40.2500 Du        
   3228 ****         0.2500   2.7500  40.5000 Du        
   3229 ****         0.2500   3.0000  36.5000 Du        
   3230 ****         0.2500   3.0000  36.7500 Du        
   3231 ****         0.2500   3.0000  37.0000 Du        
   3232 ****         0.2500   3.0000  37.2500 Du        
   3233 ****         0.2500   3.0000  37.5000 Du        
   3234 ****         0.2500   3.0000  37.7500 Du        
   3235 ****         0.2500   3.0000  38.0000 Du        
   3236 ****         0.2500   3.0000  38.2500 Du        
   3237 ****         0.2500   3.0000  38.5000 Du        
   3238 ****         0.2500   3.0000  38.7500 Du        
   3239 ****         0.2500   3.0000  39.0000 Du        
   3240 ****         0.2500   3.0000  39.2500 Du        
   3241 ****         0.2500   3.0000  39.5000 Du        
   3242 ****         0.2500   3.2500  36.7500 Du        
   3243 ****         0.2500   3.2500  37.0000 Du        
   3244 ****         0.2500   3.2500  37.2500 Du        
   3245 ****         0.2500   3.2500  37.5000 Du        
   3246 ****         0.2500   3.2500  37.7500 Du        
   3247 ****         0.2500   3.2500  38.0000 Du        
   3248 ****         0.2500   3.2500  38.2500 Du        
   3249 ****         0.2500   3.2500  38.5000 Du        
   3250 ****         0.2500   3.2500  38.7500 Du        
   3251 ****         0.2500   3.2500  39.0000 Du        
   3252 ****         0.2500   3.5000  36.7500 Du        
   3253 ****         0.2500   3.5000  37.0000 Du        
   3254 ****         0.2500   3.5000  37.2500 Du        
   3255 ****         0.2500   3.5000  37.5000 Du        
   3256 ****         0.2500   3.5000  37.7500 Du        
   3257 ****         0.2500   3.5000  38.0000 Du        
   3258 ****         0.2500   3.5000  38.2500 Du        
   3259 ****         0.2500   3.5000  38.5000 Du        
   3260 ****         0.2500   3.5000  38.7500 Du        
   3261 ****         0.2500   3.7500  37.0000 Du        
   3262 ****         0.2500   3.7500  37.2500 Du        
   3263 ****         0.2500   3.7500  37.5000 Du        
   3264 ****         0.2500   3.7500  37.7500 Du        
   3265 ****         0.2500   3.7500  38.0000 Du        
   3266 ****         0.2500   3.7500  38.2500 Du        
   3267 ****         0.2500   3.7500  38.5000 Du        
   3268 ****         0.2500   4.0000  37.0000 Du        
   3269 ****         0.2500   4.0000  37.2500 Du        
   3270 ****         0.2500   4.0000  37.5000 Du        
   3271 ****         0.2500   4.0000  37.7500 Du        
   3272 ****         0.2500   4.0000  38.0000 Du        
   3273 ****         0.2500   8.2500  30.7500 Du        
   3274 ****         0.2500   8.2500  31.0000 Du        
   3275 ****         0.2500   8.5000  30.0000 Du        
   3276 ****         0.2500   8.5000  30.2500 Du        
   3277 ****         0.2500   8.5000  30.5000 Du        
   3278 ****         0.2500   8.5000  30.7500 Du        
   3279 ****         0.2500   8.5000  31.0000 Du        
   3280 ****         0.2500   8.5000  31.2500 Du        
   3281 ****         0.2500   8.5000  31.5000 Du        
   3282 ****         0.2500   8.7500  30.0000 Du        
   3283 ****         0.2500   8.7500  30.2500 Du        
   3284 ****         0.2500   8.7500  30.5000 Du        
   3285 ****         0.2500   8.7500  30.7500 Du        
   3286 ****         0.2500   8.7500  31.0000 Du        
   3287 ****         0.2500   8.7500  31.2500 Du        
   3288 ****         0.2500   8.7500  31.5000 Du        
   3289 ****         0.2500   8.7500  31.7500 Du        
   3290 ****         0.2500   9.0000  30.0000 Du        
   3291 ****         0.2500   9.0000  30.2500 Du        
   3292 ****         0.2500   9.0000  30.5000 Du        
   3293 ****         0.2500   9.0000  30.7500 Du        
   3294 ****         0.2500   9.0000  31.0000 Du        
   3295 ****         0.2500   9.0000  31.2500 Du        
   3296 ****         0.2500   9.0000  31.5000 Du        
   3297 ****         0.2500   9.0000  31.7500 Du        
   3298 ****         0.2500   9.2500  30.0000 Du        
   3299 ****         0.2500   9.2500  30.2500 Du        
   3300 ****         0.2500   9.2500  30.5000 Du        
   3301 ****         0.2500   9.2500  30.7500 Du        
   3302 ****         0.2500   9.2500  31.0000 Du        
   3303 ****         0.2500   9.2500  31.2500 Du        
   3304 ****         0.2500   9.2500  31.5000 Du        
   3305 ****         0.2500   9.2500  31.7500 Du        
   3306 ****         0.2500   9.5000  30.2500 Du        
   3307 ****         0.2500   9.5000  30.5000 Du        
   3308 ****         0.2500   9.5000  30.7500 Du        
   3309 ****         0.2500   9.5000  31.0000 Du        
   3310 ****         0.2500   9.5000  31.2500 Du        
   3311 ****         0.2500   9.5000  31.5000 Du        
   3312 ****         0.2500   9.5000  31.7500 Du        
   3313 ****         0.2500   9.7500  30.5000 Du        
   3314 ****         0.2500   9.7500  30.7500 Du        
   3315 ****         0.2500   9.7500  31.0000 Du        
   3316 ****         0.2500   9.7500  31.2500 Du        
   3317 ****         0.2500   9.7500  31.5000 Du        
   3318 ****         0.2500   9.7500  31.7500 Du        
   3319 ****         0.2500   9.7500  32.0000 Du        
   3320 ****         0.2500  10.0000  30.7500 Du        
   3321 ****         0.2500  10.0000  31.0000 Du        
   3322 ****         0.2500  10.0000  31.2500 Du        
   3323 ****         0.2500  10.0000  31.5000 Du        
   3324 ****         0.2500  10.0000  31.7500 Du        
   3325 ****         0.2500  10.0000  32.0000 Du        
   3326 ****         0.2500  22.0000  35.0000 Du        
   3327 ****         0.2500  22.2500  33.7500 Du        
   3328 ****         0.2500  22.2500  34.0000 Du        
   3329 ****         0.2500  22.2500  34.2500 Du        
   3330 ****         0.2500  22.2500  34.5000 Du        
   3331 ****         0.2500  22.2500  34.7500 Du        
   3332 ****         0.2500  22.2500  35.0000 Du        
   3333 ****         0.2500  22.5000  33.5000 Du        
   3334 ****         0.2500  22.5000  33.7500 Du        
   3335 ****         0.2500  22.5000  34.0000 Du        
   3336 ****         0.2500  22.5000  34.2500 Du        
   3337 ****         0.2500  22.5000  34.5000 Du        
   3338 ****         0.2500  22.5000  34.7500 Du        
   3339 ****         0.2500  22.7500  33.2500 Du        
   3340 ****         0.2500  22.7500  33.5000 Du        
   3341 ****         0.2500  22.7500  33.7500 Du        
   3342 ****         0.2500  22.7500  34.0000 Du        
   3343 ****         0.2500  22.7500  34.2500 Du        
   3344 ****         0.2500  22.7500  34.5000 Du        
   3345 ****         0.2500  23.0000  33.2500 Du        
   3346 ****         0.2500  23.0000  33.5000 Du        
   3347 ****         0.2500  23.0000  33.7500 Du        
   3348 ****         0.2500  23.0000  34.0000 Du        
   3349 ****         0.2500  23.0000  34.2500 Du        
   3350 ****         0.2500  23.2500  33.5000 Du        
   3351 ****         0.2500  23.2500  33.7500 Du        
   3352 ****         0.2500  23.2500  34.0000 Du        
   3353 ****         0.2500  23.2500  34.2500 Du        
   3354 ****         0.2500  23.5000  33.5000 Du        
   3355 ****         0.2500  23.5000  33.7500 Du        
   3356 ****         0.2500  23.5000  34.0000 Du        
   3357 ****         0.2500  23.7500  33.7500 Du        
   3358 ****         0.2500  23.7500  34.0000 Du        
   3359 ****         0.5000   0.0000  33.5000 Du        
   3360 ****         0.5000   0.0000  33.7500 Du        
   3361 ****         0.5000   0.0000  34.0000 Du        
   3362 ****         0.5000   0.7500  40.5000 Du        
   3363 ****         0.5000   0.7500  40.7500 Du        
   3364 ****         0.5000   0.7500  41.0000 Du        
   3365 ****         0.5000   0.7500  41.2500 Du        
   3366 ****         0.5000   1.0000  39.7500 Du        
   3367 ****         0.5000   1.0000  40.0000 Du        
   3368 ****         0.5000   1.0000  40.2500 Du        
   3369 ****         0.5000   1.0000  40.5000 Du        
   3370 ****         0.5000   1.0000  40.7500 Du        
   3371 ****         0.5000   1.0000  41.0000 Du        
   3372 ****         0.5000   1.0000  41.2500 Du        
   3373 ****         0.5000   1.0000  41.5000 Du        
   3374 ****         0.5000   1.2500  39.5000 Du        
   3375 ****         0.5000   1.2500  39.7500 Du        
   3376 ****         0.5000   1.2500  40.0000 Du        
   3377 ****         0.5000   1.2500  40.2500 Du        
   3378 ****         0.5000   1.2500  40.5000 Du        
   3379 ****         0.5000   1.2500  40.7500 Du        
   3380 ****         0.5000   1.2500  41.0000 Du        
   3381 ****         0.5000   1.2500  41.2500 Du        
   3382 ****         0.5000   1.2500  41.5000 Du        
   3383 ****         0.5000   1.2500  41.7500 Du        
   3384 ****         0.5000   1.5000  36.5000 Du        
   3385 ****         0.5000   1.5000  36.7500 Du        
   3386 ****         0.5000   1.5000  37.0000 Du        
   3387 ****         0.5000   1.5000  37.2500 Du        
   3388 ****         0.5000   1.5000  37.5000 Du        
   3389 ****         0.5000   1.5000  37.7500 Du        
   3390 ****         0.5000   1.5000  38.0000 Du        
   3391 ****         0.5000   1.5000  38.5000 Du        
   3392 ****         0.5000   1.5000  39.0000 Du        
   3393 ****         0.5000   1.5000  39.2500 Du        
   3394 ****         0.5000   1.5000  39.5000 Du        
   3395 ****         0.5000   1.5000  39.7500 Du        
   3396 ****         0.5000   1.5000  40.0000 Du        
   3397 ****         0.5000   1.5000  40.2500 Du        
   3398 ****         0.5000   1.5000  40.5000 Du        
   3399 ****         0.5000   1.5000  40.7500 Du        
   3400 ****         0.5000   1.5000  41.0000 Du        
   3401 ****         0.5000   1.5000  41.2500 Du        
   3402 ****         0.5000   1.5000  41.5000 Du        
   3403 ****         0.5000   1.5000  41.7500 Du        
   3404 ****         0.5000   1.7500  36.5000 Du        
   3405 ****         0.5000   1.7500  36.7500 Du        
   3406 ****         0.5000   1.7500  37.0000 Du        
   3407 ****         0.5000   1.7500  37.2500 Du        
   3408 ****         0.5000   1.7500  37.5000 Du        
   3409 ****         0.5000   1.7500  37.7500 Du        
   3410 ****         0.5000   1.7500  38.0000 Du        
   3411 ****         0.5000   1.7500  38.2500 Du        
   3412 ****         0.5000   1.7500  38.5000 Du        
   3413 ****         0.5000   1.7500  38.7500 Du        
   3414 ****         0.5000   1.7500  39.0000 Du        
   3415 ****         0.5000   1.7500  39.2500 Du        
   3416 ****         0.5000   1.7500  39.5000 Du        
   3417 ****         0.5000   1.7500  39.7500 Du        
   3418 ****         0.5000   1.7500  40.0000 Du        
   3419 ****         0.5000   1.7500  40.2500 Du        
   3420 ****         0.5000   1.7500  40.5000 Du        
   3421 ****         0.5000   1.7500  40.7500 Du        
   3422 ****         0.5000   1.7500  41.0000 Du        
   3423 ****         0.5000   1.7500  41.2500 Du        
   3424 ****         0.5000   1.7500  41.5000 Du        
   3425 ****         0.5000   1.7500  41.7500 Du        
   3426 ****         0.5000   1.7500  42.0000 Du        
   3427 ****         0.5000   2.0000  36.5000 Du        
   3428 ****         0.5000   2.0000  36.7500 Du        
   3429 ****         0.5000   2.0000  37.0000 Du        
   3430 ****         0.5000   2.0000  37.2500 Du        
   3431 ****         0.5000   2.0000  37.5000 Du        
   3432 ****         0.5000   2.0000  37.7500 Du        
   3433 ****         0.5000   2.0000  38.0000 Du        
   3434 ****         0.5000   2.0000  38.2500 Du        
   3435 ****         0.5000   2.0000  38.5000 Du        
   3436 ****         0.5000   2.0000  38.7500 Du        
   3437 ****         0.5000   2.0000  39.0000 Du        
   3438 ****         0.5000   2.0000  39.2500 Du        
   3439 ****         0.5000   2.0000  39.5000 Du        
   3440 ****         0.5000   2.0000  39.7500 Du        
   3441 ****         0.5000   2.0000  40.0000 Du        
   3442 ****         0.5000   2.0000  40.2500 Du        
   3443 ****         0.5000   2.0000  40.5000 Du        
   3444 ****         0.5000   2.0000  40.7500 Du        
   3445 ****         0.5000   2.0000  41.0000 Du        
   3446 ****         0.5000   2.0000  41.2500 Du        
   3447 ****         0.5000   2.0000  41.5000 Du        
   3448 ****         0.5000   2.0000  41.7500 Du        
   3449 ****         0.5000   2.2500  36.5000 Du        
   3450 ****         0.5000   2.2500  36.7500 Du        
   3451 ****         0.5000   2.2500  37.0000 Du        
   3452 ****         0.5000   2.2500  37.2500 Du        
   3453 ****         0.5000   2.2500  37.5000 Du        
   3454 ****         0.5000   2.2500  37.7500 Du        
   3455 ****         0.5000   2.2500  38.0000 Du        
   3456 ****         0.5000   2.2500  38.2500 Du        
   3457 ****         0.5000   2.2500  38.5000 Du        
   3458 ****         0.5000   2.2500  38.7500 Du        
   3459 ****         0.5000   2.2500  39.0000 Du        
   3460 ****         0.5000   2.2500  39.2500 Du        
   3461 ****         0.5000   2.2500  39.5000 Du        
   3462 ****         0.5000   2.2500  39.7500 Du        
   3463 ****         0.5000   2.2500  40.0000 Du        
   3464 ****         0.5000   2.2500  40.2500 Du        
   3465 ****         0.5000   2.2500  40.5000 Du        
   3466 ****         0.5000   2.2500  40.7500 Du        
   3467 ****         0.5000   2.2500  41.0000 Du        
   3468 ****         0.5000   2.5000  36.5000 Du        
   3469 ****         0.5000   2.5000  36.7500 Du        
   3470 ****         0.5000   2.5000  37.0000 Du        
   3471 ****         0.5000   2.5000  37.2500 Du        
   3472 ****         0.5000   2.5000  37.5000 Du        
   3473 ****         0.5000   2.5000  37.7500 Du        
   3474 ****         0.5000   2.5000  38.0000 Du        
   3475 ****         0.5000   2.5000  38.2500 Du        
   3476 ****         0.5000   2.5000  38.5000 Du        
   3477 ****         0.5000   2.5000  38.7500 Du        
   3478 ****         0.5000   2.5000  39.0000 Du        
   3479 ****         0.5000   2.5000  39.2500 Du        
   3480 ****         0.5000   2.5000  39.5000 Du        
   3481 ****         0.5000   2.7500  36.5000 Du        
   3482 ****         0.5000   2.7500  36.7500 Du        
   3483 ****         0.5000   2.7500  37.0000 Du        
   3484 ****         0.5000   2.7500  37.2500 Du        
   3485 ****         0.5000   2.7500  37.5000 Du        
   3486 ****         0.5000   2.7500  37.7500 Du        
   3487 ****         0.5000   2.7500  38.0000 Du        
   3488 ****         0.5000   2.7500  38.2500 Du        
   3489 ****         0.5000   2.7500  38.5000 Du        
   3490 ****         0.5000   2.7500  38.7500 Du        
   3491 ****         0.5000   3.0000  36.5000 Du        
   3492 ****         0.5000   3.0000  36.7500 Du        
   3493 ****         0.5000   3.0000  37.0000 Du        
   3494 ****         0.5000   3.0000  37.2500 Du        
   3495 ****         0.5000   3.0000  37.5000 Du        
   3496 ****         0.5000   3.0000  37.7500 Du        
   3497 ****         0.5000   3.0000  38.0000 Du        
   3498 ****         0.5000   3.0000  38.2500 Du        
   3499 ****         0.5000   3.0000  38.5000 Du        
   3500 ****         0.5000   3.2500  36.5000 Du        
   3501 ****         0.5000   3.2500  36.7500 Du        
   3502 ****         0.5000   3.2500  37.0000 Du        
   3503 ****         0.5000   3.2500  37.2500 Du        
   3504 ****         0.5000   3.2500  37.5000 Du        
   3505 ****         0.5000   3.2500  37.7500 Du        
   3506 ****         0.5000   3.2500  38.0000 Du        
   3507 ****         0.5000   3.2500  38.2500 Du        
   3508 ****         0.5000   3.2500  38.5000 Du        
   3509 ****         0.5000   3.5000  36.7500 Du        
   3510 ****         0.5000   3.5000  37.0000 Du        
   3511 ****         0.5000   3.5000  37.2500 Du        
   3512 ****         0.5000   3.5000  37.5000 Du        
   3513 ****         0.5000   3.5000  37.7500 Du        
   3514 ****         0.5000   3.5000  38.0000 Du        
   3515 ****         0.5000   3.5000  38.2500 Du        
   3516 ****         0.5000   3.7500  36.7500 Du        
   3517 ****         0.5000   3.7500  37.0000 Du        
   3518 ****         0.5000   3.7500  37.2500 Du        
   3519 ****         0.5000   3.7500  37.5000 Du        
   3520 ****         0.5000   3.7500  37.7500 Du        
   3521 ****         0.5000   3.7500  38.0000 Du        
   3522 ****         0.5000   3.7500  38.2500 Du        
   3523 ****         0.5000   4.0000  37.0000 Du        
   3524 ****         0.5000   4.0000  37.2500 Du        
   3525 ****         0.5000   4.0000  37.5000 Du        
   3526 ****         0.5000   4.0000  37.7500 Du        
   3527 ****         0.5000   4.0000  38.0000 Du        
   3528 ****         0.5000   4.2500  37.5000 Du        
   3529 ****         0.5000   8.5000  30.5000 Du        
   3530 ****         0.5000   8.5000  30.7500 Du        
   3531 ****         0.5000   8.5000  31.0000 Du        
   3532 ****         0.5000   8.5000  31.2500 Du        
   3533 ****         0.5000   8.5000  31.5000 Du        
   3534 ****         0.5000   8.5000  31.7500 Du        
   3535 ****         0.5000   8.7500  30.2500 Du        
   3536 ****         0.5000   8.7500  30.5000 Du        
   3537 ****         0.5000   8.7500  30.7500 Du        
   3538 ****         0.5000   8.7500  31.0000 Du        
   3539 ****         0.5000   8.7500  31.2500 Du        
   3540 ****         0.5000   8.7500  31.5000 Du        
   3541 ****         0.5000   8.7500  31.7500 Du        
   3542 ****         0.5000   8.7500  32.0000 Du        
   3543 ****         0.5000   9.0000  30.0000 Du        
   3544 ****         0.5000   9.0000  30.2500 Du        
   3545 ****         0.5000   9.0000  30.5000 Du        
   3546 ****         0.5000   9.0000  30.7500 Du        
   3547 ****         0.5000   9.0000  31.0000 Du        
   3548 ****         0.5000   9.0000  31.2500 Du        
   3549 ****         0.5000   9.0000  31.5000 Du        
   3550 ****         0.5000   9.0000  31.7500 Du        
   3551 ****         0.5000   9.0000  32.0000 Du        
   3552 ****         0.5000   9.0000  32.2500 Du        
   3553 ****         0.5000   9.2500  30.0000 Du        
   3554 ****         0.5000   9.2500  30.2500 Du        
   3555 ****         0.5000   9.2500  30.5000 Du        
   3556 ****         0.5000   9.2500  30.7500 Du        
   3557 ****         0.5000   9.2500  31.0000 Du        
   3558 ****         0.5000   9.2500  31.2500 Du        
   3559 ****         0.5000   9.2500  31.5000 Du        
   3560 ****         0.5000   9.2500  31.7500 Du        
   3561 ****         0.5000   9.2500  32.0000 Du        
   3562 ****         0.5000   9.2500  32.2500 Du        
   3563 ****         0.5000   9.5000  30.2500 Du        
   3564 ****         0.5000   9.5000  30.5000 Du        
   3565 ****         0.5000   9.5000  30.7500 Du        
   3566 ****         0.5000   9.5000  31.0000 Du        
   3567 ****         0.5000   9.5000  31.2500 Du        
   3568 ****         0.5000   9.5000  31.5000 Du        
   3569 ****         0.5000   9.5000  31.7500 Du        
   3570 ****         0.5000   9.5000  32.0000 Du        
   3571 ****         0.5000   9.5000  32.2500 Du        
   3572 ****         0.5000   9.7500  30.5000 Du        
   3573 ****         0.5000   9.7500  30.7500 Du        
   3574 ****         0.5000   9.7500  31.0000 Du        
   3575 ****         0.5000   9.7500  31.2500 Du        
   3576 ****         0.5000   9.7500  31.5000 Du        
   3577 ****         0.5000   9.7500  31.7500 Du        
   3578 ****         0.5000   9.7500  32.0000 Du        
   3579 ****         0.5000   9.7500  32.2500 Du        
   3580 ****         0.5000  10.0000  30.5000 Du        
   3581 ****         0.5000  10.0000  30.7500 Du        
   3582 ****         0.5000  10.0000  31.0000 Du        
   3583 ****         0.5000  10.0000  31.2500 Du        
   3584 ****         0.5000  10.0000  31.5000 Du        
   3585 ****         0.5000  10.0000  31.7500 Du        
   3586 ****         0.5000  10.0000  32.0000 Du        
   3587 ****         0.5000  10.0000  32.2500 Du        
   3588 ****         0.5000  10.0000  32.5000 Du        
   3589 ****         0.5000  10.2500  31.0000 Du        
   3590 ****         0.5000  10.2500  31.2500 Du        
   3591 ****         0.5000  10.2500  31.5000 Du        
   3592 ****         0.5000  10.2500  31.7500 Du        
   3593 ****         0.5000  10.2500  32.0000 Du        
   3594 ****         0.5000  10.2500  32.2500 Du        
   3595 ****         0.5000  10.2500  32.5000 Du        
   3596 ****         0.5000  10.5000  32.0000 Du        
   3597 ****         0.5000  10.5000  32.2500 Du        
   3598 ****         0.5000  10.5000  32.5000 Du        
   3599 ****         0.5000  10.5000  32.7500 Du        
   3600 ****         0.5000  22.2500  34.0000 Du        
   3601 ****         0.5000  22.2500  34.2500 Du        
   3602 ****         0.5000  22.2500  34.5000 Du        
   3603 ****         0.5000  22.2500  34.7500 Du        
   3604 ****         0.5000  22.5000  33.5000 Du        
   3605 ****         0.5000  22.5000  33.7500 Du        
   3606 ****         0.5000  22.5000  34.0000 Du        
   3607 ****         0.5000  22.5000  34.2500 Du        
   3608 ****         0.5000  22.5000  34.5000 Du        
   3609 ****         0.5000  22.5000  34.7500 Du        
   3610 ****         0.5000  22.7500  33.5000 Du        
   3611 ****         0.5000  22.7500  33.7500 Du        
   3612 ****         0.5000  22.7500  34.0000 Du        
   3613 ****         0.5000  22.7500  34.2500 Du        
   3614 ****         0.5000  22.7500  34.5000 Du        
   3615 ****         0.5000  23.0000  33.5000 Du        
   3616 ****         0.5000  23.0000  33.7500 Du        
   3617 ****         0.5000  23.0000  34.0000 Du        
   3618 ****         0.5000  23.0000  34.2500 Du        
   3619 ****         0.5000  23.2500  33.7500 Du        
   3620 ****         0.5000  23.2500  34.0000 Du        
   3621 ****         0.5000  23.2500  34.2500 Du        
   3622 ****         0.5000  23.5000  33.7500 Du        
   3623 ****         0.5000  23.5000  34.0000 Du        
   3624 ****         0.7500   0.0000  33.5000 Du        
   3625 ****         0.7500   0.0000  33.7500 Du        
   3626 ****         0.7500   0.0000  34.0000 Du        
   3627 ****         0.7500   0.0000  34.2500 Du        
   3628 ****         0.7500   0.5000  40.5000 Du        
   3629 ****         0.7500   0.5000  40.7500 Du        
   3630 ****         0.7500   0.5000  41.0000 Du        
   3631 ****         0.7500   0.5000  41.2500 Du        
   3632 ****         0.7500   0.5000  41.5000 Du        
   3633 ****         0.7500   0.7500  40.0000 Du        
   3634 ****         0.7500   0.7500  40.2500 Du        
   3635 ****         0.7500   0.7500  40.5000 Du        
   3636 ****         0.7500   0.7500  40.7500 Du        
   3637 ****         0.7500   0.7500  41.0000 Du        
   3638 ****         0.7500   0.7500  41.2500 Du        
   3639 ****         0.7500   0.7500  41.5000 Du        
   3640 ****         0.7500   0.7500  41.7500 Du        
   3641 ****         0.7500   1.0000  39.5000 Du        
   3642 ****         0.7500   1.0000  39.7500 Du        
   3643 ****         0.7500   1.0000  40.0000 Du        
   3644 ****         0.7500   1.0000  40.2500 Du        
   3645 ****         0.7500   1.0000  40.5000 Du        
   3646 ****         0.7500   1.0000  40.7500 Du        
   3647 ****         0.7500   1.0000  41.0000 Du        
   3648 ****         0.7500   1.0000  41.2500 Du        
   3649 ****         0.7500   1.0000  41.5000 Du        
   3650 ****         0.7500   1.0000  41.7500 Du        
   3651 ****         0.7500   1.0000  46.2500 Du        
   3652 ****         0.7500   1.2500  37.7500 Du        
   3653 ****         0.7500   1.2500  39.0000 Du        
   3654 ****         0.7500   1.2500  39.2500 Du        
   3655 ****         0.7500   1.2500  39.5000 Du        
   3656 ****         0.7500   1.2500  39.7500 Du        
   3657 ****         0.7500   1.2500  40.0000 Du        
   3658 ****         0.7500   1.2500  40.2500 Du        
   3659 ****         0.7500   1.2500  40.5000 Du        
   3660 ****         0.7500   1.2500  40.7500 Du        
   3661 ****         0.7500   1.2500  41.0000 Du        
   3662 ****         0.7500   1.2500  41.2500 Du        
   3663 ****         0.7500   1.2500  41.5000 Du        
   3664 ****         0.7500   1.2500  41.7500 Du        
   3665 ****         0.7500   1.2500  42.0000 Du        
   3666 ****         0.7500   1.5000  36.5000 Du        
   3667 ****         0.7500   1.5000  36.7500 Du        
   3668 ****         0.7500   1.5000  37.0000 Du        
   3669 ****         0.7500   1.5000  37.2500 Du        
   3670 ****         0.7500   1.5000  37.5000 Du        
   3671 ****         0.7500   1.5000  37.7500 Du        
   3672 ****         0.7500   1.5000  38.0000 Du        
   3673 ****         0.7500   1.5000  38.2500 Du        
   3674 ****         0.7500   1.5000  38.7500 Du        
   3675 ****         0.7500   1.5000  39.0000 Du        
   3676 ****         0.7500   1.5000  39.2500 Du        
   3677 ****         0.7500   1.5000  39.5000 Du        
   3678 ****         0.7500   1.5000  39.7500 Du        
   3679 ****         0.7500   1.5000  40.0000 Du        
   3680 ****         0.7500   1.5000  40.2500 Du        
   3681 ****         0.7500   1.5000  40.5000 Du        
   3682 ****         0.7500   1.5000  40.7500 Du        
   3683 ****         0.7500   1.5000  41.0000 Du        
   3684 ****         0.7500   1.5000  41.2500 Du        
   3685 ****         0.7500   1.5000  41.5000 Du        
   3686 ****         0.7500   1.5000  41.7500 Du        
   3687 ****         0.7500   1.5000  42.0000 Du        
   3688 ****         0.7500   1.7500  36.5000 Du        
   3689 ****         0.7500   1.7500  36.7500 Du        
   3690 ****         0.7500   1.7500  37.0000 Du        
   3691 ****         0.7500   1.7500  37.2500 Du        
   3692 ****         0.7500   1.7500  37.5000 Du        
   3693 ****         0.7500   1.7500  37.7500 Du        
   3694 ****         0.7500   1.7500  38.0000 Du        
   3695 ****         0.7500   1.7500  38.2500 Du        
   3696 ****         0.7500   1.7500  38.5000 Du        
   3697 ****         0.7500   1.7500  38.7500 Du        
   3698 ****         0.7500   1.7500  39.0000 Du        
   3699 ****         0.7500   1.7500  39.2500 Du        
   3700 ****         0.7500   1.7500  39.5000 Du        
   3701 ****         0.7500   1.7500  39.7500 Du        
   3702 ****         0.7500   1.7500  40.0000 Du        
   3703 ****         0.7500   1.7500  40.2500 Du        
   3704 ****         0.7500   1.7500  40.5000 Du        
   3705 ****         0.7500   1.7500  40.7500 Du        
   3706 ****         0.7500   1.7500  41.0000 Du        
   3707 ****         0.7500   1.7500  41.2500 Du        
   3708 ****         0.7500   1.7500  41.5000 Du        
   3709 ****         0.7500   1.7500  41.7500 Du        
   3710 ****         0.7500   1.7500  42.0000 Du        
   3711 ****         0.7500   2.0000  36.2500 Du        
   3712 ****         0.7500   2.0000  36.5000 Du        
   3713 ****         0.7500   2.0000  36.7500 Du        
   3714 ****         0.7500   2.0000  37.0000 Du        
   3715 ****         0.7500   2.0000  37.2500 Du        
   3716 ****         0.7500   2.0000  37.5000 Du        
   3717 ****         0.7500   2.0000  37.7500 Du        
   3718 ****         0.7500   2.0000  38.0000 Du        
   3719 ****         0.7500   2.0000  38.2500 Du        
   3720 ****         0.7500   2.0000  38.5000 Du        
   3721 ****         0.7500   2.0000  38.7500 Du        
   3722 ****         0.7500   2.0000  39.0000 Du        
   3723 ****         0.7500   2.0000  39.2500 Du        
   3724 ****         0.7500   2.0000  39.5000 Du        
   3725 ****         0.7500   2.0000  39.7500 Du        
   3726 ****         0.7500   2.0000  40.0000 Du        
   3727 ****         0.7500   2.0000  40.2500 Du        
   3728 ****         0.7500   2.0000  40.5000 Du        
   3729 ****         0.7500   2.0000  40.7500 Du        
   3730 ****         0.7500   2.0000  41.0000 Du        
   3731 ****         0.7500   2.0000  41.2500 Du        
   3732 ****         0.7500   2.0000  41.5000 Du        
   3733 ****         0.7500   2.2500  36.5000 Du        
   3734 ****         0.7500   2.2500  36.7500 Du        
   3735 ****         0.7500   2.2500  37.0000 Du        
   3736 ****         0.7500   2.2500  37.2500 Du        
   3737 ****         0.7500   2.2500  37.5000 Du        
   3738 ****         0.7500   2.2500  37.7500 Du        
   3739 ****         0.7500   2.2500  38.0000 Du        
   3740 ****         0.7500   2.2500  38.2500 Du        
   3741 ****         0.7500   2.2500  38.5000 Du        
   3742 ****         0.7500   2.2500  38.7500 Du        
   3743 ****         0.7500   2.5000  36.5000 Du        
   3744 ****         0.7500   2.5000  36.7500 Du        
   3745 ****         0.7500   2.5000  37.0000 Du        
   3746 ****         0.7500   2.5000  37.2500 Du        
   3747 ****         0.7500   2.5000  37.5000 Du        
   3748 ****         0.7500   2.5000  37.7500 Du        
   3749 ****         0.7500   2.5000  38.0000 Du        
   3750 ****         0.7500   2.5000  38.2500 Du        
   3751 ****         0.7500   2.5000  38.5000 Du        
   3752 ****         0.7500   2.7500  36.5000 Du        
   3753 ****         0.7500   2.7500  36.7500 Du        
   3754 ****         0.7500   2.7500  37.0000 Du        
   3755 ****         0.7500   2.7500  37.2500 Du        
   3756 ****         0.7500   2.7500  37.5000 Du        
   3757 ****         0.7500   2.7500  37.7500 Du        
   3758 ****         0.7500   2.7500  38.0000 Du        
   3759 ****         0.7500   2.7500  38.2500 Du        
   3760 ****         0.7500   3.0000  36.5000 Du        
   3761 ****         0.7500   3.0000  36.7500 Du        
   3762 ****         0.7500   3.0000  37.0000 Du        
   3763 ****         0.7500   3.0000  37.2500 Du        
   3764 ****         0.7500   3.0000  37.5000 Du        
   3765 ****         0.7500   3.0000  37.7500 Du        
   3766 ****         0.7500   3.0000  38.0000 Du        
   3767 ****         0.7500   3.0000  38.2500 Du        
   3768 ****         0.7500   3.2500  36.5000 Du        
   3769 ****         0.7500   3.2500  36.7500 Du        
   3770 ****         0.7500   3.2500  37.0000 Du        
   3771 ****         0.7500   3.2500  37.2500 Du        
   3772 ****         0.7500   3.2500  37.5000 Du        
   3773 ****         0.7500   3.2500  37.7500 Du        
   3774 ****         0.7500   3.2500  38.0000 Du        
   3775 ****         0.7500   3.2500  38.2500 Du        
   3776 ****         0.7500   3.5000  36.5000 Du        
   3777 ****         0.7500   3.5000  36.7500 Du        
   3778 ****         0.7500   3.5000  37.0000 Du        
   3779 ****         0.7500   3.5000  37.2500 Du        
   3780 ****         0.7500   3.5000  37.5000 Du        
   3781 ****         0.7500   3.5000  37.7500 Du        
   3782 ****         0.7500   3.5000  38.0000 Du        
   3783 ****         0.7500   3.7500  36.5000 Du        
   3784 ****         0.7500   3.7500  36.7500 Du        
   3785 ****         0.7500   3.7500  37.0000 Du        
   3786 ****         0.7500   3.7500  37.2500 Du        
   3787 ****         0.7500   3.7500  37.5000 Du        
   3788 ****         0.7500   3.7500  37.7500 Du        
   3789 ****         0.7500   3.7500  38.0000 Du        
   3790 ****         0.7500   4.0000  36.7500 Du        
   3791 ****         0.7500   4.0000  37.0000 Du        
   3792 ****         0.7500   4.0000  37.2500 Du        
   3793 ****         0.7500   4.0000  37.5000 Du        
   3794 ****         0.7500   4.0000  37.7500 Du        
   3795 ****         0.7500   4.0000  38.0000 Du        
   3796 ****         0.7500   4.2500  36.7500 Du        
   3797 ****         0.7500   4.2500  37.0000 Du        
   3798 ****         0.7500   4.2500  37.2500 Du        
   3799 ****         0.7500   4.2500  37.5000 Du        
   3800 ****         0.7500   4.2500  37.7500 Du        
   3801 ****         0.7500   4.5000  36.7500 Du        
   3802 ****         0.7500   4.5000  37.0000 Du        
   3803 ****         0.7500   4.5000  37.2500 Du        
   3804 ****         0.7500   4.5000  37.5000 Du        
   3805 ****         0.7500   4.7500  37.0000 Du        
   3806 ****         0.7500   8.5000  31.0000 Du        
   3807 ****         0.7500   8.5000  31.2500 Du        
   3808 ****         0.7500   8.5000  31.5000 Du        
   3809 ****         0.7500   8.5000  31.7500 Du        
   3810 ****         0.7500   8.5000  32.0000 Du        
   3811 ****         0.7500   8.5000  32.2500 Du        
   3812 ****         0.7500   8.7500  30.5000 Du        
   3813 ****         0.7500   8.7500  30.7500 Du        
   3814 ****         0.7500   8.7500  31.0000 Du        
   3815 ****         0.7500   8.7500  31.2500 Du        
   3816 ****         0.7500   8.7500  31.5000 Du        
   3817 ****         0.7500   8.7500  31.7500 Du        
   3818 ****         0.7500   8.7500  32.0000 Du        
   3819 ****         0.7500   8.7500  32.2500 Du        
   3820 ****         0.7500   8.7500  32.5000 Du        
   3821 ****         0.7500   9.0000  30.2500 Du        
   3822 ****         0.7500   9.0000  30.5000 Du        
   3823 ****         0.7500   9.0000  30.7500 Du        
   3824 ****         0.7500   9.0000  31.0000 Du        
   3825 ****         0.7500   9.0000  31.2500 Du        
   3826 ****         0.7500   9.0000  31.5000 Du        
   3827 ****         0.7500   9.0000  31.7500 Du        
   3828 ****         0.7500   9.0000  32.0000 Du        
   3829 ****         0.7500   9.0000  32.2500 Du        
   3830 ****         0.7500   9.0000  32.5000 Du        
   3831 ****         0.7500   9.0000  32.7500 Du        
   3832 ****         0.7500   9.2500  30.2500 Du        
   3833 ****         0.7500   9.2500  30.5000 Du        
   3834 ****         0.7500   9.2500  30.7500 Du        
   3835 ****         0.7500   9.2500  31.0000 Du        
   3836 ****         0.7500   9.2500  31.2500 Du        
   3837 ****         0.7500   9.2500  31.5000 Du        
   3838 ****         0.7500   9.2500  31.7500 Du        
   3839 ****         0.7500   9.2500  32.0000 Du        
   3840 ****         0.7500   9.2500  32.2500 Du        
   3841 ****         0.7500   9.2500  32.5000 Du        
   3842 ****         0.7500   9.2500  32.7500 Du        
   3843 ****         0.7500   9.2500  33.0000 Du        
   3844 ****         0.7500   9.5000  30.5000 Du        
   3845 ****         0.7500   9.5000  30.7500 Du        
   3846 ****         0.7500   9.5000  31.0000 Du        
   3847 ****         0.7500   9.5000  31.2500 Du        
   3848 ****         0.7500   9.5000  31.5000 Du        
   3849 ****         0.7500   9.5000  31.7500 Du        
   3850 ****         0.7500   9.5000  32.0000 Du        
   3851 ****         0.7500   9.5000  32.2500 Du        
   3852 ****         0.7500   9.5000  32.5000 Du        
   3853 ****         0.7500   9.5000  32.7500 Du        
   3854 ****         0.7500   9.5000  33.0000 Du        
   3855 ****         0.7500   9.7500  30.5000 Du        
   3856 ****         0.7500   9.7500  30.7500 Du        
   3857 ****         0.7500   9.7500  31.0000 Du        
   3858 ****         0.7500   9.7500  31.2500 Du        
   3859 ****         0.7500   9.7500  31.5000 Du        
   3860 ****         0.7500   9.7500  31.7500 Du        
   3861 ****         0.7500   9.7500  32.0000 Du        
   3862 ****         0.7500   9.7500  32.2500 Du        
   3863 ****         0.7500   9.7500  32.5000 Du        
   3864 ****         0.7500   9.7500  32.7500 Du        
   3865 ****         0.7500   9.7500  33.0000 Du        
   3866 ****         0.7500   9.7500  33.2500 Du        
   3867 ****         0.7500  10.0000  30.7500 Du        
   3868 ****         0.7500  10.0000  31.0000 Du        
   3869 ****         0.7500  10.0000  31.2500 Du        
   3870 ****         0.7500  10.0000  31.5000 Du        
   3871 ****         0.7500  10.0000  31.7500 Du        
   3872 ****         0.7500  10.0000  32.0000 Du        
   3873 ****         0.7500  10.0000  32.2500 Du        
   3874 ****         0.7500  10.0000  32.5000 Du        
   3875 ****         0.7500  10.0000  32.7500 Du        
   3876 ****         0.7500  10.0000  33.0000 Du        
   3877 ****         0.7500  10.0000  33.2500 Du        
   3878 ****         0.7500  10.0000  33.5000 Du        
   3879 ****         0.7500  10.2500  30.7500 Du        
   3880 ****         0.7500  10.2500  31.0000 Du        
   3881 ****         0.7500  10.2500  31.2500 Du        
   3882 ****         0.7500  10.2500  31.5000 Du        
   3883 ****         0.7500  10.2500  31.7500 Du        
   3884 ****         0.7500  10.2500  32.0000 Du        
   3885 ****         0.7500  10.2500  32.2500 Du        
   3886 ****         0.7500  10.2500  32.5000 Du        
   3887 ****         0.7500  10.2500  32.7500 Du        
   3888 ****         0.7500  10.2500  33.0000 Du        
   3889 ****         0.7500  10.2500  33.2500 Du        
   3890 ****         0.7500  10.2500  33.5000 Du        
   3891 ****         0.7500  10.5000  31.0000 Du        
   3892 ****         0.7500  10.5000  31.2500 Du        
   3893 ****         0.7500  10.5000  31.5000 Du        
   3894 ****         0.7500  10.5000  31.7500 Du        
   3895 ****         0.7500  10.5000  32.0000 Du        
   3896 ****         0.7500  10.5000  32.2500 Du        
   3897 ****         0.7500  10.5000  32.5000 Du        
   3898 ****         0.7500  10.5000  32.7500 Du        
   3899 ****         0.7500  10.5000  33.0000 Du        
   3900 ****         0.7500  10.5000  33.2500 Du        
   3901 ****         0.7500  10.5000  33.5000 Du        
   3902 ****         0.7500  10.7500  31.7500 Du        
   3903 ****         0.7500  10.7500  32.0000 Du        
   3904 ****         0.7500  10.7500  32.2500 Du        
   3905 ****         0.7500  10.7500  32.5000 Du        
   3906 ****         0.7500  10.7500  32.7500 Du        
   3907 ****         0.7500  10.7500  33.0000 Du        
   3908 ****         0.7500  10.7500  33.2500 Du        
   3909 ****         0.7500  10.7500  33.5000 Du        
   3910 ****         0.7500  11.0000  32.2500 Du        
   3911 ****         0.7500  11.0000  32.5000 Du        
   3912 ****         0.7500  11.0000  32.7500 Du        
   3913 ****         0.7500  11.0000  33.0000 Du        
   3914 ****         0.7500  11.0000  33.2500 Du        
   3915 ****         0.7500  22.2500  34.7500 Du        
   3916 ****         0.7500  22.5000  33.7500 Du        
   3917 ****         0.7500  22.5000  34.0000 Du        
   3918 ****         0.7500  22.5000  34.2500 Du        
   3919 ****         0.7500  22.5000  34.5000 Du        
   3920 ****         0.7500  22.5000  34.7500 Du        
   3921 ****         0.7500  22.7500  33.7500 Du        
   3922 ****         0.7500  22.7500  34.0000 Du        
   3923 ****         0.7500  22.7500  34.2500 Du        
   3924 ****         0.7500  22.7500  34.5000 Du        
   3925 ****         0.7500  23.0000  33.7500 Du        
   3926 ****         0.7500  23.0000  34.0000 Du        
   3927 ****         0.7500  23.0000  34.2500 Du        
   3928 ****         0.7500  23.2500  33.7500 Du        
   3929 ****         0.7500  23.2500  34.0000 Du        
   3930 ****         0.7500  23.2500  34.2500 Du        
   3931 ****         0.7500  23.5000  34.0000 Du        
   3932 ****         1.0000   0.0000  33.5000 Du        
   3933 ****         1.0000   0.0000  33.7500 Du        
   3934 ****         1.0000   0.0000  34.0000 Du        
   3935 ****         1.0000   0.0000  34.2500 Du        
   3936 ****         1.0000   0.2500  40.7500 Du        
   3937 ****         1.0000   0.2500  41.0000 Du        
   3938 ****         1.0000   0.2500  41.2500 Du        
   3939 ****         1.0000   0.2500  41.5000 Du        
   3940 ****         1.0000   0.5000  40.5000 Du        
   3941 ****         1.0000   0.5000  40.7500 Du        
   3942 ****         1.0000   0.5000  41.0000 Du        
   3943 ****         1.0000   0.5000  41.2500 Du        
   3944 ****         1.0000   0.5000  41.5000 Du        
   3945 ****         1.0000   0.5000  41.7500 Du        
   3946 ****         1.0000   0.7500  39.7500 Du        
   3947 ****         1.0000   0.7500  40.0000 Du        
   3948 ****         1.0000   0.7500  40.2500 Du        
   3949 ****         1.0000   0.7500  40.5000 Du        
   3950 ****         1.0000   0.7500  40.7500 Du        
   3951 ****         1.0000   0.7500  41.0000 Du        
   3952 ****         1.0000   0.7500  41.2500 Du        
   3953 ****         1.0000   0.7500  41.5000 Du        
   3954 ****         1.0000   0.7500  41.7500 Du        
   3955 ****         1.0000   0.7500  42.0000 Du        
   3956 ****         1.0000   1.0000  39.5000 Du        
   3957 ****         1.0000   1.0000  39.7500 Du        
   3958 ****         1.0000   1.0000  40.0000 Du        
   3959 ****         1.0000   1.0000  40.2500 Du        
   3960 ****         1.0000   1.0000  40.5000 Du        
   3961 ****         1.0000   1.0000  40.7500 Du        
   3962 ****         1.0000   1.0000  41.0000 Du        
   3963 ****         1.0000   1.0000  41.2500 Du        
   3964 ****         1.0000   1.0000  41.5000 Du        
   3965 ****         1.0000   1.0000  41.7500 Du        
   3966 ****         1.0000   1.0000  42.0000 Du        
   3967 ****         1.0000   1.0000  45.7500 Du        
   3968 ****         1.0000   1.0000  46.0000 Du        
   3969 ****         1.0000   1.0000  46.2500 Du        
   3970 ****         1.0000   1.2500  37.2500 Du        
   3971 ****         1.0000   1.2500  38.0000 Du        
   3972 ****         1.0000   1.2500  38.7500 Du        
   3973 ****         1.0000   1.2500  39.0000 Du        
   3974 ****         1.0000   1.2500  39.5000 Du        
   3975 ****         1.0000   1.2500  39.7500 Du        
   3976 ****         1.0000   1.2500  40.0000 Du        
   3977 ****         1.0000   1.2500  40.2500 Du        
   3978 ****         1.0000   1.2500  40.5000 Du        
   3979 ****         1.0000   1.2500  40.7500 Du        
   3980 ****         1.0000   1.2500  41.0000 Du        
   3981 ****         1.0000   1.2500  41.2500 Du        
   3982 ****         1.0000   1.2500  41.5000 Du        
   3983 ****         1.0000   1.2500  41.7500 Du        
   3984 ****         1.0000   1.2500  42.0000 Du        
   3985 ****         1.0000   1.2500  42.2500 Du        
   3986 ****         1.0000   1.2500  45.7500 Du        
   3987 ****         1.0000   1.2500  46.0000 Du        
   3988 ****         1.0000   1.5000  36.7500 Du        
   3989 ****         1.0000   1.5000  37.0000 Du        
   3990 ****         1.0000   1.5000  37.2500 Du        
   3991 ****         1.0000   1.5000  37.5000 Du        
   3992 ****         1.0000   1.5000  37.7500 Du        
   3993 ****         1.0000   1.5000  38.0000 Du        
   3994 ****         1.0000   1.5000  38.2500 Du        
   3995 ****         1.0000   1.5000  39.2500 Du        
   3996 ****         1.0000   1.5000  39.5000 Du        
   3997 ****         1.0000   1.5000  39.7500 Du        
   3998 ****         1.0000   1.5000  40.0000 Du        
   3999 ****         1.0000   1.5000  40.2500 Du        
   4000 ****         1.0000   1.5000  40.5000 Du        
   4001 ****         1.0000   1.5000  40.7500 Du        
   4002 ****         1.0000   1.5000  41.0000 Du        
   4003 ****         1.0000   1.5000  41.2500 Du        
   4004 ****         1.0000   1.5000  41.5000 Du        
   4005 ****         1.0000   1.5000  41.7500 Du        
   4006 ****         1.0000   1.5000  42.0000 Du        
   4007 ****         1.0000   1.5000  42.2500 Du        
   4008 ****         1.0000   1.7500  36.5000 Du        
   4009 ****         1.0000   1.7500  36.7500 Du        
   4010 ****         1.0000   1.7500  37.0000 Du        
   4011 ****         1.0000   1.7500  37.2500 Du        
   4012 ****         1.0000   1.7500  37.5000 Du        
   4013 ****         1.0000   1.7500  37.7500 Du        
   4014 ****         1.0000   1.7500  38.0000 Du        
   4015 ****         1.0000   1.7500  38.2500 Du        
   4016 ****         1.0000   1.7500  39.0000 Du        
   4017 ****         1.0000   1.7500  39.5000 Du        
   4018 ****         1.0000   1.7500  39.7500 Du        
   4019 ****         1.0000   1.7500  40.0000 Du        
   4020 ****         1.0000   1.7500  40.2500 Du        
   4021 ****         1.0000   1.7500  40.5000 Du        
   4022 ****         1.0000   1.7500  40.7500 Du        
   4023 ****         1.0000   1.7500  41.0000 Du        
   4024 ****         1.0000   1.7500  41.2500 Du        
   4025 ****         1.0000   1.7500  41.5000 Du        
   4026 ****         1.0000   1.7500  41.7500 Du        
   4027 ****         1.0000   1.7500  42.0000 Du        
   4028 ****         1.0000   1.7500  42.2500 Du        
   4029 ****         1.0000   2.0000  36.5000 Du        
   4030 ****         1.0000   2.0000  36.7500 Du        
   4031 ****         1.0000   2.0000  37.0000 Du        
   4032 ****         1.0000   2.0000  37.2500 Du        
   4033 ****         1.0000   2.0000  37.5000 Du        
   4034 ****         1.0000   2.0000  37.7500 Du        
   4035 ****         1.0000   2.0000  38.0000 Du        
   4036 ****         1.0000   2.0000  38.2500 Du        
   4037 ****         1.0000   2.0000  38.5000 Du        
   4038 ****         1.0000   2.2500  36.5000 Du        
   4039 ****         1.0000   2.2500  36.7500 Du        
   4040 ****         1.0000   2.2500  37.0000 Du        
   4041 ****         1.0000   2.2500  37.2500 Du        
   4042 ****         1.0000   2.2500  37.5000 Du        
   4043 ****         1.0000   2.2500  37.7500 Du        
   4044 ****         1.0000   2.2500  38.0000 Du        
   4045 ****         1.0000   2.2500  38.2500 Du        
   4046 ****         1.0000   2.5000  36.5000 Du        
   4047 ****         1.0000   2.5000  36.7500 Du        
   4048 ****         1.0000   2.5000  37.0000 Du        
   4049 ****         1.0000   2.5000  37.2500 Du        
   4050 ****         1.0000   2.5000  37.5000 Du        
   4051 ****         1.0000   2.5000  37.7500 Du        
   4052 ****         1.0000   2.5000  38.0000 Du        
   4053 ****         1.0000   2.5000  38.2500 Du        
   4054 ****         1.0000   2.7500  36.5000 Du        
   4055 ****         1.0000   2.7500  36.7500 Du        
   4056 ****         1.0000   2.7500  37.0000 Du        
   4057 ****         1.0000   2.7500  37.2500 Du        
   4058 ****         1.0000   2.7500  37.5000 Du        
   4059 ****         1.0000   2.7500  37.7500 Du        
   4060 ****         1.0000   2.7500  38.0000 Du        
   4061 ****         1.0000   3.0000  36.5000 Du        
   4062 ****         1.0000   3.0000  36.7500 Du        
   4063 ****         1.0000   3.0000  37.0000 Du        
   4064 ****         1.0000   3.0000  37.2500 Du        
   4065 ****         1.0000   3.0000  37.5000 Du        
   4066 ****         1.0000   3.0000  37.7500 Du        
   4067 ****         1.0000   3.0000  38.0000 Du        
   4068 ****         1.0000   3.2500  36.5000 Du        
   4069 ****         1.0000   3.2500  36.7500 Du        
   4070 ****         1.0000   3.2500  37.0000 Du        
   4071 ****         1.0000   3.2500  37.2500 Du        
   4072 ****         1.0000   3.2500  37.5000 Du        
   4073 ****         1.0000   3.2500  37.7500 Du        
   4074 ****         1.0000   3.2500  38.0000 Du        
   4075 ****         1.0000   3.5000  36.5000 Du        
   4076 ****         1.0000   3.5000  36.7500 Du        
   4077 ****         1.0000   3.5000  37.0000 Du        
   4078 ****         1.0000   3.5000  37.2500 Du        
   4079 ****         1.0000   3.5000  37.5000 Du        
   4080 ****         1.0000   3.5000  37.7500 Du        
   4081 ****         1.0000   3.7500  36.5000 Du        
   4082 ****         1.0000   3.7500  36.7500 Du        
   4083 ****         1.0000   3.7500  37.0000 Du        
   4084 ****         1.0000   3.7500  37.2500 Du        
   4085 ****         1.0000   3.7500  37.5000 Du        
   4086 ****         1.0000   3.7500  37.7500 Du        
   4087 ****         1.0000   4.0000  36.5000 Du        
   4088 ****         1.0000   4.0000  36.7500 Du        
   4089 ****         1.0000   4.0000  37.0000 Du        
   4090 ****         1.0000   4.0000  37.2500 Du        
   4091 ****         1.0000   4.0000  37.5000 Du        
   4092 ****         1.0000   4.0000  37.7500 Du        
   4093 ****         1.0000   4.2500  36.5000 Du        
   4094 ****         1.0000   4.2500  36.7500 Du        
   4095 ****         1.0000   4.2500  37.0000 Du        
   4096 ****         1.0000   4.2500  37.2500 Du        
   4097 ****         1.0000   4.2500  37.5000 Du        
   4098 ****         1.0000   4.2500  37.7500 Du        
   4099 ****         1.0000   4.5000  36.5000 Du        
   4100 ****         1.0000   4.5000  36.7500 Du        
   4101 ****         1.0000   4.5000  37.0000 Du        
   4102 ****         1.0000   4.5000  37.2500 Du        
   4103 ****         1.0000   4.5000  37.5000 Du        
   4104 ****         1.0000   4.5000  37.7500 Du        
   4105 ****         1.0000   4.7500  36.5000 Du        
   4106 ****         1.0000   4.7500  36.7500 Du        
   4107 ****         1.0000   4.7500  37.0000 Du        
   4108 ****         1.0000   4.7500  37.2500 Du        
   4109 ****         1.0000   4.7500  37.5000 Du        
   4110 ****         1.0000   5.0000  36.5000 Du        
   4111 ****         1.0000   5.0000  36.7500 Du        
   4112 ****         1.0000   5.0000  37.0000 Du        
   4113 ****         1.0000   5.0000  37.2500 Du        
   4114 ****         1.0000   5.2500  36.5000 Du        
   4115 ****         1.0000   5.2500  36.7500 Du        
   4116 ****         1.0000   5.2500  37.0000 Du        
   4117 ****         1.0000   5.5000  36.5000 Du        
   4118 ****         1.0000   5.5000  36.7500 Du        
   4119 ****         1.0000   8.5000  31.2500 Du        
   4120 ****         1.0000   8.5000  31.5000 Du        
   4121 ****         1.0000   8.5000  31.7500 Du        
   4122 ****         1.0000   8.5000  32.0000 Du        
   4123 ****         1.0000   8.5000  32.2500 Du        
   4124 ****         1.0000   8.5000  32.5000 Du        
   4125 ****         1.0000   8.5000  32.7500 Du        
   4126 ****         1.0000   8.7500  31.0000 Du        
   4127 ****         1.0000   8.7500  31.2500 Du        
   4128 ****         1.0000   8.7500  31.5000 Du        
   4129 ****         1.0000   8.7500  31.7500 Du        
   4130 ****         1.0000   8.7500  32.0000 Du        
   4131 ****         1.0000   8.7500  32.2500 Du        
   4132 ****         1.0000   8.7500  32.5000 Du        
   4133 ****         1.0000   8.7500  32.7500 Du        
   4134 ****         1.0000   8.7500  33.0000 Du        
   4135 ****         1.0000   8.7500  33.2500 Du        
   4136 ****         1.0000   9.0000  30.7500 Du        
   4137 ****         1.0000   9.0000  31.0000 Du        
   4138 ****         1.0000   9.0000  31.2500 Du        
   4139 ****         1.0000   9.0000  31.5000 Du        
   4140 ****         1.0000   9.0000  31.7500 Du        
   4141 ****         1.0000   9.0000  32.0000 Du        
   4142 ****         1.0000   9.0000  32.2500 Du        
   4143 ****         1.0000   9.0000  32.5000 Du        
   4144 ****         1.0000   9.0000  32.7500 Du        
   4145 ****         1.0000   9.0000  33.0000 Du        
   4146 ****         1.0000   9.0000  33.2500 Du        
   4147 ****         1.0000   9.0000  33.5000 Du        
   4148 ****         1.0000   9.0000  33.7500 Du        
   4149 ****         1.0000   9.2500  30.5000 Du        
   4150 ****         1.0000   9.2500  30.7500 Du        
   4151 ****         1.0000   9.2500  31.0000 Du        
   4152 ****         1.0000   9.2500  31.2500 Du        
   4153 ****         1.0000   9.2500  31.5000 Du        
   4154 ****         1.0000   9.2500  31.7500 Du        
   4155 ****         1.0000   9.2500  32.0000 Du        
   4156 ****         1.0000   9.2500  32.2500 Du        
   4157 ****         1.0000   9.2500  32.5000 Du        
   4158 ****         1.0000   9.2500  32.7500 Du        
   4159 ****         1.0000   9.2500  33.0000 Du        
   4160 ****         1.0000   9.2500  33.2500 Du        
   4161 ****         1.0000   9.2500  33.5000 Du        
   4162 ****         1.0000   9.2500  33.7500 Du        
   4163 ****         1.0000   9.5000  30.7500 Du        
   4164 ****         1.0000   9.5000  31.0000 Du        
   4165 ****         1.0000   9.5000  31.2500 Du        
   4166 ****         1.0000   9.5000  31.5000 Du        
   4167 ****         1.0000   9.5000  31.7500 Du        
   4168 ****         1.0000   9.5000  32.0000 Du        
   4169 ****         1.0000   9.5000  32.2500 Du        
   4170 ****         1.0000   9.5000  32.5000 Du        
   4171 ****         1.0000   9.5000  32.7500 Du        
   4172 ****         1.0000   9.5000  33.0000 Du        
   4173 ****         1.0000   9.5000  33.2500 Du        
   4174 ****         1.0000   9.5000  33.5000 Du        
   4175 ****         1.0000   9.5000  33.7500 Du        
   4176 ****         1.0000   9.7500  30.7500 Du        
   4177 ****         1.0000   9.7500  31.0000 Du        
   4178 ****         1.0000   9.7500  31.2500 Du        
   4179 ****         1.0000   9.7500  31.5000 Du        
   4180 ****         1.0000   9.7500  31.7500 Du        
   4181 ****         1.0000   9.7500  32.0000 Du        
   4182 ****         1.0000   9.7500  32.2500 Du        
   4183 ****         1.0000   9.7500  32.5000 Du        
   4184 ****         1.0000   9.7500  32.7500 Du        
   4185 ****         1.0000   9.7500  33.0000 Du        
   4186 ****         1.0000   9.7500  33.2500 Du        
   4187 ****         1.0000   9.7500  33.5000 Du        
   4188 ****         1.0000   9.7500  33.7500 Du        
   4189 ****         1.0000  10.0000  30.7500 Du        
   4190 ****         1.0000  10.0000  31.0000 Du        
   4191 ****         1.0000  10.0000  31.2500 Du        
   4192 ****         1.0000  10.0000  31.5000 Du        
   4193 ****         1.0000  10.0000  31.7500 Du        
   4194 ****         1.0000  10.0000  32.0000 Du        
   4195 ****         1.0000  10.0000  32.2500 Du        
   4196 ****         1.0000  10.0000  32.5000 Du        
   4197 ****         1.0000  10.0000  32.7500 Du        
   4198 ****         1.0000  10.0000  33.0000 Du        
   4199 ****         1.0000  10.0000  33.2500 Du        
   4200 ****         1.0000  10.0000  33.5000 Du        
   4201 ****         1.0000  10.0000  33.7500 Du        
   4202 ****         1.0000  10.2500  30.7500 Du        
   4203 ****         1.0000  10.2500  31.0000 Du        
   4204 ****         1.0000  10.2500  31.2500 Du        
   4205 ****         1.0000  10.2500  31.5000 Du        
   4206 ****         1.0000  10.2500  31.7500 Du        
   4207 ****         1.0000  10.2500  32.0000 Du        
   4208 ****         1.0000  10.2500  32.2500 Du        
   4209 ****         1.0000  10.2500  32.5000 Du        
   4210 ****         1.0000  10.2500  32.7500 Du        
   4211 ****         1.0000  10.2500  33.0000 Du        
   4212 ****         1.0000  10.2500  33.2500 Du        
   4213 ****         1.0000  10.2500  33.5000 Du        
   4214 ****         1.0000  10.2500  33.7500 Du        
   4215 ****         1.0000  10.5000  31.0000 Du        
   4216 ****         1.0000  10.5000  31.2500 Du        
   4217 ****         1.0000  10.5000  31.5000 Du        
   4218 ****         1.0000  10.5000  31.7500 Du        
   4219 ****         1.0000  10.5000  32.0000 Du        
   4220 ****         1.0000  10.5000  32.2500 Du        
   4221 ****         1.0000  10.5000  32.5000 Du        
   4222 ****         1.0000  10.5000  32.7500 Du        
   4223 ****         1.0000  10.5000  33.0000 Du        
   4224 ****         1.0000  10.5000  33.2500 Du        
   4225 ****         1.0000  10.5000  33.5000 Du        
   4226 ****         1.0000  10.5000  33.7500 Du        
   4227 ****         1.0000  10.7500  31.2500 Du        
   4228 ****         1.0000  10.7500  31.5000 Du        
   4229 ****         1.0000  10.7500  31.7500 Du        
   4230 ****         1.0000  10.7500  32.0000 Du        
   4231 ****         1.0000  10.7500  32.2500 Du        
   4232 ****         1.0000  10.7500  32.5000 Du        
   4233 ****         1.0000  10.7500  32.7500 Du        
   4234 ****         1.0000  10.7500  33.0000 Du        
   4235 ****         1.0000  10.7500  33.2500 Du        
   4236 ****         1.0000  10.7500  33.5000 Du        
   4237 ****         1.0000  11.0000  31.7500 Du        
   4238 ****         1.0000  11.0000  32.0000 Du        
   4239 ****         1.0000  11.0000  32.2500 Du        
   4240 ****         1.0000  11.0000  32.5000 Du        
   4241 ****         1.0000  11.0000  32.7500 Du        
   4242 ****         1.0000  11.0000  33.0000 Du        
   4243 ****         1.0000  11.0000  33.2500 Du        
   4244 ****         1.0000  11.0000  33.5000 Du        
   4245 ****         1.0000  11.2500  32.2500 Du        
   4246 ****         1.0000  11.2500  32.5000 Du        
   4247 ****         1.0000  11.2500  32.7500 Du        
   4248 ****         1.0000  11.2500  33.0000 Du        
   4249 ****         1.0000  11.2500  33.2500 Du        
   4250 ****         1.0000  22.5000  34.0000 Du        
   4251 ****         1.0000  22.5000  34.2500 Du        
   4252 ****         1.0000  22.5000  34.5000 Du        
   4253 ****         1.0000  22.7500  33.7500 Du        
   4254 ****         1.0000  22.7500  34.0000 Du        
   4255 ****         1.0000  22.7500  34.2500 Du        
   4256 ****         1.0000  22.7500  34.5000 Du        
   4257 ****         1.0000  23.0000  34.0000 Du        
   4258 ****         1.0000  23.0000  34.2500 Du        
   4259 ****         1.0000  23.2500  34.0000 Du        
   4260 ****         1.0000  23.2500  34.2500 Du        
   4261 ****         1.2500   0.0000  33.5000 Du        
   4262 ****         1.2500   0.0000  33.7500 Du        
   4263 ****         1.2500   0.0000  34.0000 Du        
   4264 ****         1.2500   0.0000  34.2500 Du        
   4265 ****         1.2500   0.0000  41.2500 Du        
   4266 ****         1.2500   0.0000  41.5000 Du        
   4267 ****         1.2500   0.0000  41.7500 Du        
   4268 ****         1.2500   0.2500  40.7500 Du        
   4269 ****         1.2500   0.2500  41.0000 Du        
   4270 ****         1.2500   0.2500  41.2500 Du        
   4271 ****         1.2500   0.2500  41.5000 Du        
   4272 ****         1.2500   0.2500  41.7500 Du        
   4273 ****         1.2500   0.2500  42.0000 Du        
   4274 ****         1.2500   0.5000  40.0000 Du        
   4275 ****         1.2500   0.5000  40.2500 Du        
   4276 ****         1.2500   0.5000  40.5000 Du        
   4277 ****         1.2500   0.5000  40.7500 Du        
   4278 ****         1.2500   0.5000  41.0000 Du        
   4279 ****         1.2500   0.5000  41.2500 Du        
   4280 ****         1.2500   0.5000  41.5000 Du        
   4281 ****         1.2500   0.5000  41.7500 Du        
   4282 ****         1.2500   0.5000  42.0000 Du        
   4283 ****         1.2500   0.5000  42.2500 Du        
   4284 ****         1.2500   0.5000  45.5000 Du        
   4285 ****         1.2500   0.5000  45.7500 Du        
   4286 ****         1.2500   0.7500  39.7500 Du        
   4287 ****         1.2500   0.7500  40.0000 Du        
   4288 ****         1.2500   0.7500  40.2500 Du        
   4289 ****         1.2500   0.7500  40.5000 Du        
   4290 ****         1.2500   0.7500  40.7500 Du        
   4291 ****         1.2500   0.7500  41.0000 Du        
   4292 ****         1.2500   0.7500  41.2500 Du        
   4293 ****         1.2500   0.7500  41.5000 Du        
   4294 ****         1.2500   0.7500  41.7500 Du        
   4295 ****         1.2500   0.7500  42.0000 Du        
   4296 ****         1.2500   0.7500  42.2500 Du        
   4297 ****         1.2500   0.7500  42.5000 Du        
   4298 ****         1.2500   0.7500  45.5000 Du        
   4299 ****         1.2500   0.7500  45.7500 Du        
   4300 ****         1.2500   1.0000  39.7500 Du        
   4301 ****         1.2500   1.0000  40.0000 Du        
   4302 ****         1.2500   1.0000  40.2500 Du        
   4303 ****         1.2500   1.0000  40.5000 Du        
   4304 ****         1.2500   1.0000  40.7500 Du        
   4305 ****         1.2500   1.0000  41.0000 Du        
   4306 ****         1.2500   1.0000  41.2500 Du        
   4307 ****         1.2500   1.0000  41.5000 Du        
   4308 ****         1.2500   1.0000  41.7500 Du        
   4309 ****         1.2500   1.0000  42.0000 Du        
   4310 ****         1.2500   1.0000  42.2500 Du        
   4311 ****         1.2500   1.0000  42.5000 Du        
   4312 ****         1.2500   1.0000  45.2500 Du        
   4313 ****         1.2500   1.0000  45.5000 Du        
   4314 ****         1.2500   1.0000  45.7500 Du        
   4315 ****         1.2500   1.0000  46.0000 Du        
   4316 ****         1.2500   1.0000  46.2500 Du        
   4317 ****         1.2500   1.2500  39.7500 Du        
   4318 ****         1.2500   1.2500  40.0000 Du        
   4319 ****         1.2500   1.2500  40.2500 Du        
   4320 ****         1.2500   1.2500  40.5000 Du        
   4321 ****         1.2500   1.2500  40.7500 Du        
   4322 ****         1.2500   1.2500  41.0000 Du        
   4323 ****         1.2500   1.2500  41.2500 Du        
   4324 ****         1.2500   1.2500  41.5000 Du        
   4325 ****         1.2500   1.2500  41.7500 Du        
   4326 ****         1.2500   1.2500  42.0000 Du        
   4327 ****         1.2500   1.2500  42.2500 Du        
   4328 ****         1.2500   1.2500  42.5000 Du        
   4329 ****         1.2500   1.2500  42.7500 Du        
   4330 ****         1.2500   1.2500  45.2500 Du        
   4331 ****         1.2500   1.2500  45.5000 Du        
   4332 ****         1.2500   1.2500  45.7500 Du        
   4333 ****         1.2500   1.2500  46.0000 Du        
   4334 ****         1.2500   1.2500  46.2500 Du        
   4335 ****         1.2500   1.5000  37.0000 Du        
   4336 ****         1.2500   1.5000  37.2500 Du        
   4337 ****         1.2500   1.5000  37.5000 Du        
   4338 ****         1.2500   1.5000  37.7500 Du        
   4339 ****         1.2500   1.5000  38.0000 Du        
   4340 ****         1.2500   1.5000  38.2500 Du        
   4341 ****         1.2500   1.5000  40.7500 Du        
   4342 ****         1.2500   1.5000  41.0000 Du        
   4343 ****         1.2500   1.5000  41.2500 Du        
   4344 ****         1.2500   1.5000  41.5000 Du        
   4345 ****         1.2500   1.5000  41.7500 Du        
   4346 ****         1.2500   1.5000  42.0000 Du        
   4347 ****         1.2500   1.5000  42.2500 Du        
   4348 ****         1.2500   1.5000  42.5000 Du        
   4349 ****         1.2500   1.5000  42.7500 Du        
   4350 ****         1.2500   1.5000  44.7500 Du        
   4351 ****         1.2500   1.5000  45.0000 Du        
   4352 ****         1.2500   1.5000  45.2500 Du        
   4353 ****         1.2500   1.5000  45.5000 Du        
   4354 ****         1.2500   1.5000  45.7500 Du        
   4355 ****         1.2500   1.7500  37.0000 Du        
   4356 ****         1.2500   1.7500  37.2500 Du        
   4357 ****         1.2500   1.7500  37.5000 Du        
   4358 ****         1.2500   1.7500  37.7500 Du        
   4359 ****         1.2500   1.7500  38.0000 Du        
   4360 ****         1.2500   1.7500  38.2500 Du        
   4361 ****         1.2500   1.7500  44.5000 Du        
   4362 ****         1.2500   1.7500  44.7500 Du        
   4363 ****         1.2500   1.7500  45.0000 Du        
   4364 ****         1.2500   1.7500  45.2500 Du        
   4365 ****         1.2500   2.0000  36.7500 Du        
   4366 ****         1.2500   2.0000  37.0000 Du        
   4367 ****         1.2500   2.0000  37.2500 Du        
   4368 ****         1.2500   2.0000  37.5000 Du        
   4369 ****         1.2500   2.0000  37.7500 Du        
   4370 ****         1.2500   2.0000  38.0000 Du        
   4371 ****         1.2500   2.0000  43.7500 Du        
   4372 ****         1.2500   2.0000  44.0000 Du        
   4373 ****         1.2500   2.0000  44.2500 Du        
   4374 ****         1.2500   2.0000  44.5000 Du        
   4375 ****         1.2500   2.0000  44.7500 Du        
   4376 ****         1.2500   2.0000  45.0000 Du        
   4377 ****         1.2500   2.2500  36.7500 Du        
   4378 ****         1.2500   2.2500  37.0000 Du        
   4379 ****         1.2500   2.2500  37.2500 Du        
   4380 ****         1.2500   2.2500  37.5000 Du        
   4381 ****         1.2500   2.2500  37.7500 Du        
   4382 ****         1.2500   2.2500  38.0000 Du        
   4383 ****         1.2500   2.2500  44.2500 Du        
   4384 ****         1.2500   2.5000  36.7500 Du        
   4385 ****         1.2500   2.5000  37.0000 Du        
   4386 ****         1.2500   2.5000  37.2500 Du        
   4387 ****         1.2500   2.5000  37.5000 Du        
   4388 ****         1.2500   2.5000  37.7500 Du        
   4389 ****         1.2500   2.7500  36.7500 Du        
   4390 ****         1.2500   2.7500  37.0000 Du        
   4391 ****         1.2500   2.7500  37.2500 Du        
   4392 ****         1.2500   2.7500  37.5000 Du        
   4393 ****         1.2500   2.7500  37.7500 Du        
   4394 ****         1.2500   3.0000  36.7500 Du        
   4395 ****         1.2500   3.0000  37.0000 Du        
   4396 ****         1.2500   3.0000  37.2500 Du        
   4397 ****         1.2500   3.0000  37.5000 Du        
   4398 ****         1.2500   3.0000  37.7500 Du        
   4399 ****         1.2500   3.2500  36.5000 Du        
   4400 ****         1.2500   3.2500  36.7500 Du        
   4401 ****         1.2500   3.2500  37.0000 Du        
   4402 ****         1.2500   3.2500  37.2500 Du        
   4403 ****         1.2500   3.2500  37.5000 Du        
   4404 ****         1.2500   3.2500  37.7500 Du        
   4405 ****         1.2500   3.5000  36.5000 Du        
   4406 ****         1.2500   3.5000  36.7500 Du        
   4407 ****         1.2500   3.5000  37.0000 Du        
   4408 ****         1.2500   3.5000  37.2500 Du        
   4409 ****         1.2500   3.5000  37.5000 Du        
   4410 ****         1.2500   3.7500  36.5000 Du        
   4411 ****         1.2500   3.7500  36.7500 Du        
   4412 ****         1.2500   3.7500  37.0000 Du        
   4413 ****         1.2500   3.7500  37.2500 Du        
   4414 ****         1.2500   3.7500  37.5000 Du        
   4415 ****         1.2500   4.0000  36.2500 Du        
   4416 ****         1.2500   4.0000  36.5000 Du        
   4417 ****         1.2500   4.0000  36.7500 Du        
   4418 ****         1.2500   4.0000  37.0000 Du        
   4419 ****         1.2500   4.0000  37.2500 Du        
   4420 ****         1.2500   4.0000  37.5000 Du        
   4421 ****         1.2500   4.2500  36.2500 Du        
   4422 ****         1.2500   4.2500  36.5000 Du        
   4423 ****         1.2500   4.2500  36.7500 Du        
   4424 ****         1.2500   4.2500  37.0000 Du        
   4425 ****         1.2500   4.2500  37.2500 Du        
   4426 ****         1.2500   4.2500  37.5000 Du        
   4427 ****         1.2500   4.5000  36.2500 Du        
   4428 ****         1.2500   4.5000  36.5000 Du        
   4429 ****         1.2500   4.5000  36.7500 Du        
   4430 ****         1.2500   4.5000  37.0000 Du        
   4431 ****         1.2500   4.5000  37.2500 Du        
   4432 ****         1.2500   4.5000  37.5000 Du        
   4433 ****         1.2500   4.7500  36.2500 Du        
   4434 ****         1.2500   4.7500  36.5000 Du        
   4435 ****         1.2500   4.7500  36.7500 Du        
   4436 ****         1.2500   4.7500  37.0000 Du        
   4437 ****         1.2500   4.7500  37.2500 Du        
   4438 ****         1.2500   4.7500  37.5000 Du        
   4439 ****         1.2500   4.7500  37.7500 Du        
   4440 ****         1.2500   5.0000  36.2500 Du        
   4441 ****         1.2500   5.0000  36.5000 Du        
   4442 ****         1.2500   5.0000  36.7500 Du        
   4443 ****         1.2500   5.0000  37.0000 Du        
   4444 ****         1.2500   5.0000  37.2500 Du        
   4445 ****         1.2500   5.0000  37.5000 Du        
   4446 ****         1.2500   5.2500  36.2500 Du        
   4447 ****         1.2500   5.2500  36.5000 Du        
   4448 ****         1.2500   5.2500  36.7500 Du        
   4449 ****         1.2500   5.2500  37.0000 Du        
   4450 ****         1.2500   5.2500  37.2500 Du        
   4451 ****         1.2500   5.2500  37.5000 Du        
   4452 ****         1.2500   5.5000  36.2500 Du        
   4453 ****         1.2500   5.5000  36.5000 Du        
   4454 ****         1.2500   5.5000  36.7500 Du        
   4455 ****         1.2500   5.5000  37.0000 Du        
   4456 ****         1.2500   5.5000  37.2500 Du        
   4457 ****         1.2500   5.7500  36.0000 Du        
   4458 ****         1.2500   5.7500  36.2500 Du        
   4459 ****         1.2500   5.7500  36.5000 Du        
   4460 ****         1.2500   5.7500  36.7500 Du        
   4461 ****         1.2500   5.7500  37.0000 Du        
   4462 ****         1.2500   5.7500  37.2500 Du        
   4463 ****         1.2500   6.0000  36.2500 Du        
   4464 ****         1.2500   6.0000  36.5000 Du        
   4465 ****         1.2500   6.0000  36.7500 Du        
   4466 ****         1.2500   6.0000  37.0000 Du        
   4467 ****         1.2500   6.2500  36.2500 Du        
   4468 ****         1.2500   6.2500  36.5000 Du        
   4469 ****         1.2500   6.2500  36.7500 Du        
   4470 ****         1.2500   6.5000  36.5000 Du        
   4471 ****         1.2500   8.2500  32.0000 Du        
   4472 ****         1.2500   8.2500  32.2500 Du        
   4473 ****         1.2500   8.2500  32.5000 Du        
   4474 ****         1.2500   8.2500  32.7500 Du        
   4475 ****         1.2500   8.2500  33.0000 Du        
   4476 ****         1.2500   8.5000  31.7500 Du        
   4477 ****         1.2500   8.5000  32.0000 Du        
   4478 ****         1.2500   8.5000  32.2500 Du        
   4479 ****         1.2500   8.5000  32.5000 Du        
   4480 ****         1.2500   8.5000  32.7500 Du        
   4481 ****         1.2500   8.5000  33.0000 Du        
   4482 ****         1.2500   8.5000  33.2500 Du        
   4483 ****         1.2500   8.5000  33.5000 Du        
   4484 ****         1.2500   8.7500  31.2500 Du        
   4485 ****         1.2500   8.7500  31.5000 Du        
   4486 ****         1.2500   8.7500  31.7500 Du        
   4487 ****         1.2500   8.7500  32.0000 Du        
   4488 ****         1.2500   8.7500  32.2500 Du        
   4489 ****         1.2500   8.7500  32.5000 Du        
   4490 ****         1.2500   8.7500  32.7500 Du        
   4491 ****         1.2500   8.7500  33.0000 Du        
   4492 ****         1.2500   8.7500  33.2500 Du        
   4493 ****         1.2500   8.7500  33.5000 Du        
   4494 ****         1.2500   8.7500  33.7500 Du        
   4495 ****         1.2500   8.7500  34.0000 Du        
   4496 ****         1.2500   9.0000  31.0000 Du        
   4497 ****         1.2500   9.0000  31.2500 Du        
   4498 ****         1.2500   9.0000  31.5000 Du        
   4499 ****         1.2500   9.0000  31.7500 Du        
   4500 ****         1.2500   9.0000  32.0000 Du        
   4501 ****         1.2500   9.0000  32.2500 Du        
   4502 ****         1.2500   9.0000  32.5000 Du        
   4503 ****         1.2500   9.0000  32.7500 Du        
   4504 ****         1.2500   9.0000  33.0000 Du        
   4505 ****         1.2500   9.0000  33.2500 Du        
   4506 ****         1.2500   9.0000  33.5000 Du        
   4507 ****         1.2500   9.0000  33.7500 Du        
   4508 ****         1.2500   9.0000  34.0000 Du        
   4509 ****         1.2500   9.2500  31.0000 Du        
   4510 ****         1.2500   9.2500  31.2500 Du        
   4511 ****         1.2500   9.2500  31.5000 Du        
   4512 ****         1.2500   9.2500  31.7500 Du        
   4513 ****         1.2500   9.2500  32.0000 Du        
   4514 ****         1.2500   9.2500  32.2500 Du        
   4515 ****         1.2500   9.2500  32.5000 Du        
   4516 ****         1.2500   9.2500  32.7500 Du        
   4517 ****         1.2500   9.2500  33.0000 Du        
   4518 ****         1.2500   9.2500  33.2500 Du        
   4519 ****         1.2500   9.2500  33.5000 Du        
   4520 ****         1.2500   9.2500  33.7500 Du        
   4521 ****         1.2500   9.2500  34.0000 Du        
   4522 ****         1.2500   9.5000  30.7500 Du        
   4523 ****         1.2500   9.5000  31.0000 Du        
   4524 ****         1.2500   9.5000  31.2500 Du        
   4525 ****         1.2500   9.5000  31.5000 Du        
   4526 ****         1.2500   9.5000  31.7500 Du        
   4527 ****         1.2500   9.5000  32.0000 Du        
   4528 ****         1.2500   9.5000  32.2500 Du        
   4529 ****         1.2500   9.5000  32.5000 Du        
   4530 ****         1.2500   9.5000  32.7500 Du        
   4531 ****         1.2500   9.5000  33.0000 Du        
   4532 ****         1.2500   9.5000  33.2500 Du        
   4533 ****         1.2500   9.5000  33.5000 Du        
   4534 ****         1.2500   9.5000  33.7500 Du        
   4535 ****         1.2500   9.5000  34.0000 Du        
   4536 ****         1.2500   9.7500  30.7500 Du        
   4537 ****         1.2500   9.7500  31.0000 Du        
   4538 ****         1.2500   9.7500  31.2500 Du        
   4539 ****         1.2500   9.7500  31.5000 Du        
   4540 ****         1.2500   9.7500  31.7500 Du        
   4541 ****         1.2500   9.7500  32.0000 Du        
   4542 ****         1.2500   9.7500  32.2500 Du        
   4543 ****         1.2500   9.7500  32.5000 Du        
   4544 ****         1.2500   9.7500  32.7500 Du        
   4545 ****         1.2500   9.7500  33.0000 Du        
   4546 ****         1.2500   9.7500  33.2500 Du        
   4547 ****         1.2500   9.7500  33.5000 Du        
   4548 ****         1.2500   9.7500  33.7500 Du        
   4549 ****         1.2500  10.0000  30.7500 Du        
   4550 ****         1.2500  10.0000  31.0000 Du        
   4551 ****         1.2500  10.0000  31.2500 Du        
   4552 ****         1.2500  10.0000  31.5000 Du        
   4553 ****         1.2500  10.0000  31.7500 Du        
   4554 ****         1.2500  10.0000  32.0000 Du        
   4555 ****         1.2500  10.0000  32.2500 Du        
   4556 ****         1.2500  10.0000  32.5000 Du        
   4557 ****         1.2500  10.0000  32.7500 Du        
   4558 ****         1.2500  10.0000  33.0000 Du        
   4559 ****         1.2500  10.0000  33.2500 Du        
   4560 ****         1.2500  10.0000  33.5000 Du        
   4561 ****         1.2500  10.0000  33.7500 Du        
   4562 ****         1.2500  10.2500  30.7500 Du        
   4563 ****         1.2500  10.2500  31.0000 Du        
   4564 ****         1.2500  10.2500  31.2500 Du        
   4565 ****         1.2500  10.2500  31.5000 Du        
   4566 ****         1.2500  10.2500  31.7500 Du        
   4567 ****         1.2500  10.2500  32.0000 Du        
   4568 ****         1.2500  10.2500  32.2500 Du        
   4569 ****         1.2500  10.2500  32.5000 Du        
   4570 ****         1.2500  10.2500  32.7500 Du        
   4571 ****         1.2500  10.2500  33.0000 Du        
   4572 ****         1.2500  10.2500  33.2500 Du        
   4573 ****         1.2500  10.2500  33.5000 Du        
   4574 ****         1.2500  10.2500  33.7500 Du        
   4575 ****         1.2500  10.5000  31.0000 Du        
   4576 ****         1.2500  10.5000  31.2500 Du        
   4577 ****         1.2500  10.5000  31.5000 Du        
   4578 ****         1.2500  10.5000  31.7500 Du        
   4579 ****         1.2500  10.5000  32.0000 Du        
   4580 ****         1.2500  10.5000  32.2500 Du        
   4581 ****         1.2500  10.5000  32.5000 Du        
   4582 ****         1.2500  10.5000  32.7500 Du        
   4583 ****         1.2500  10.5000  33.0000 Du        
   4584 ****         1.2500  10.5000  33.2500 Du        
   4585 ****         1.2500  10.5000  33.5000 Du        
   4586 ****         1.2500  10.5000  33.7500 Du        
   4587 ****         1.2500  10.7500  31.0000 Du        
   4588 ****         1.2500  10.7500  31.2500 Du        
   4589 ****         1.2500  10.7500  31.5000 Du        
   4590 ****         1.2500  10.7500  31.7500 Du        
   4591 ****         1.2500  10.7500  32.0000 Du        
   4592 ****         1.2500  10.7500  32.2500 Du        
   4593 ****         1.2500  10.7500  32.5000 Du        
   4594 ****         1.2500  10.7500  32.7500 Du        
   4595 ****         1.2500  10.7500  33.0000 Du        
   4596 ****         1.2500  10.7500  33.2500 Du        
   4597 ****         1.2500  10.7500  33.5000 Du        
   4598 ****         1.2500  11.0000  31.2500 Du        
   4599 ****         1.2500  11.0000  31.5000 Du        
   4600 ****         1.2500  11.0000  31.7500 Du        
   4601 ****         1.2500  11.0000  32.0000 Du        
   4602 ****         1.2500  11.0000  32.2500 Du        
   4603 ****         1.2500  11.0000  32.5000 Du        
   4604 ****         1.2500  11.0000  32.7500 Du        
   4605 ****         1.2500  11.0000  33.0000 Du        
   4606 ****         1.2500  11.0000  33.2500 Du        
   4607 ****         1.2500  11.0000  33.5000 Du        
   4608 ****         1.2500  11.2500  31.7500 Du        
   4609 ****         1.2500  11.2500  32.0000 Du        
   4610 ****         1.2500  11.2500  32.2500 Du        
   4611 ****         1.2500  11.2500  32.5000 Du        
   4612 ****         1.2500  11.2500  32.7500 Du        
   4613 ****         1.2500  11.2500  33.0000 Du        
   4614 ****         1.2500  11.2500  33.2500 Du        
   4615 ****         1.2500  11.2500  33.5000 Du        
   4616 ****         1.2500  11.5000  32.2500 Du        
   4617 ****         1.2500  11.5000  32.5000 Du        
   4618 ****         1.2500  11.5000  32.7500 Du        
   4619 ****         1.2500  11.5000  33.0000 Du        
   4620 ****         1.2500  11.5000  33.2500 Du        
   4621 ****         1.2500  22.5000  34.2500 Du        
   4622 ****         1.2500  22.5000  34.5000 Du        
   4623 ****         1.2500  22.7500  34.0000 Du        
   4624 ****         1.2500  22.7500  34.2500 Du        
   4625 ****         1.2500  22.7500  34.5000 Du        
   4626 ****         1.2500  23.0000  34.0000 Du        
   4627 ****         1.2500  23.0000  34.2500 Du        
   4628 ****         1.5000   0.0000  33.5000 Du        
   4629 ****         1.5000   0.0000  33.7500 Du        
   4630 ****         1.5000   0.0000  34.0000 Du        
   4631 ****         1.5000   0.0000  34.2500 Du        
   4632 ****         1.5000   0.0000  41.5000 Du        
   4633 ****         1.5000   0.0000  41.7500 Du        
   4634 ****         1.5000   0.0000  42.0000 Du        
   4635 ****         1.5000   0.0000  42.2500 Du        
   4636 ****         1.5000   0.2500  33.5000 Du        
   4637 ****         1.5000   0.2500  33.7500 Du        
   4638 ****         1.5000   0.2500  41.2500 Du        
   4639 ****         1.5000   0.2500  41.5000 Du        
   4640 ****         1.5000   0.2500  41.7500 Du        
   4641 ****         1.5000   0.2500  42.0000 Du        
   4642 ****         1.5000   0.2500  42.2500 Du        
   4643 ****         1.5000   0.2500  42.5000 Du        
   4644 ****         1.5000   0.5000  40.7500 Du        
   4645 ****         1.5000   0.5000  41.0000 Du        
   4646 ****         1.5000   0.5000  41.2500 Du        
   4647 ****         1.5000   0.5000  41.5000 Du        
   4648 ****         1.5000   0.5000  41.7500 Du        
   4649 ****         1.5000   0.5000  42.0000 Du        
   4650 ****         1.5000   0.5000  42.2500 Du        
   4651 ****         1.5000   0.5000  42.5000 Du        
   4652 ****         1.5000   0.5000  42.7500 Du        
   4653 ****         1.5000   0.5000  45.0000 Du        
   4654 ****         1.5000   0.5000  45.2500 Du        
   4655 ****         1.5000   0.5000  45.5000 Du        
   4656 ****         1.5000   0.5000  45.7500 Du        
   4657 ****         1.5000   0.7500  40.7500 Du        
   4658 ****         1.5000   0.7500  41.0000 Du        
   4659 ****         1.5000   0.7500  41.2500 Du        
   4660 ****         1.5000   0.7500  41.5000 Du        
   4661 ****         1.5000   0.7500  41.7500 Du        
   4662 ****         1.5000   0.7500  42.0000 Du        
   4663 ****         1.5000   0.7500  42.2500 Du        
   4664 ****         1.5000   0.7500  42.5000 Du        
   4665 ****         1.5000   0.7500  42.7500 Du        
   4666 ****         1.5000   0.7500  45.0000 Du        
   4667 ****         1.5000   0.7500  45.2500 Du        
   4668 ****         1.5000   0.7500  45.5000 Du        
   4669 ****         1.5000   0.7500  45.7500 Du        
   4670 ****         1.5000   1.0000  40.7500 Du        
   4671 ****         1.5000   1.0000  41.0000 Du        
   4672 ****         1.5000   1.0000  41.2500 Du        
   4673 ****         1.5000   1.0000  41.5000 Du        
   4674 ****         1.5000   1.0000  41.7500 Du        
   4675 ****         1.5000   1.0000  42.0000 Du        
   4676 ****         1.5000   1.0000  42.2500 Du        
   4677 ****         1.5000   1.0000  42.5000 Du        
   4678 ****         1.5000   1.0000  42.7500 Du        
   4679 ****         1.5000   1.0000  43.0000 Du        
   4680 ****         1.5000   1.0000  44.7500 Du        
   4681 ****         1.5000   1.0000  45.0000 Du        
   4682 ****         1.5000   1.0000  45.2500 Du        
   4683 ****         1.5000   1.0000  45.5000 Du        
   4684 ****         1.5000   1.0000  45.7500 Du        
   4685 ****         1.5000   1.0000  46.0000 Du        
   4686 ****         1.5000   1.0000  46.2500 Du        
   4687 ****         1.5000   1.2500  41.5000 Du        
   4688 ****         1.5000   1.2500  41.7500 Du        
   4689 ****         1.5000   1.2500  42.0000 Du        
   4690 ****         1.5000   1.2500  42.2500 Du        
   4691 ****         1.5000   1.2500  42.5000 Du        
   4692 ****         1.5000   1.2500  42.7500 Du        
   4693 ****         1.5000   1.2500  43.0000 Du        
   4694 ****         1.5000   1.2500  43.2500 Du        
   4695 ****         1.5000   1.2500  44.5000 Du        
   4696 ****         1.5000   1.2500  44.7500 Du        
   4697 ****         1.5000   1.2500  45.0000 Du        
   4698 ****         1.5000   1.2500  45.2500 Du        
   4699 ****         1.5000   1.2500  45.5000 Du        
   4700 ****         1.5000   1.2500  45.7500 Du        
   4701 ****         1.5000   1.2500  46.0000 Du        
   4702 ****         1.5000   1.5000  37.7500 Du        
   4703 ****         1.5000   1.5000  42.7500 Du        
   4704 ****         1.5000   1.5000  43.0000 Du        
   4705 ****         1.5000   1.5000  43.2500 Du        
   4706 ****         1.5000   1.5000  43.5000 Du        
   4707 ****         1.5000   1.5000  43.7500 Du        
   4708 ****         1.5000   1.5000  44.0000 Du        
   4709 ****         1.5000   1.5000  44.2500 Du        
   4710 ****         1.5000   1.5000  44.5000 Du        
   4711 ****         1.5000   1.5000  44.7500 Du        
   4712 ****         1.5000   1.5000  45.0000 Du        
   4713 ****         1.5000   1.5000  45.2500 Du        
   4714 ****         1.5000   1.5000  45.5000 Du        
   4715 ****         1.5000   1.5000  45.7500 Du        
   4716 ****         1.5000   1.7500  37.2500 Du        
   4717 ****         1.5000   1.7500  37.7500 Du        
   4718 ****         1.5000   1.7500  43.2500 Du        
   4719 ****         1.5000   1.7500  43.5000 Du        
   4720 ****         1.5000   1.7500  43.7500 Du        
   4721 ****         1.5000   1.7500  44.0000 Du        
   4722 ****         1.5000   1.7500  44.2500 Du        
   4723 ****         1.5000   1.7500  44.5000 Du        
   4724 ****         1.5000   1.7500  44.7500 Du        
   4725 ****         1.5000   1.7500  45.0000 Du        
   4726 ****         1.5000   1.7500  45.2500 Du        
   4727 ****         1.5000   2.0000  37.2500 Du        
   4728 ****         1.5000   2.0000  37.5000 Du        
   4729 ****         1.5000   2.0000  37.7500 Du        
   4730 ****         1.5000   2.0000  43.7500 Du        
   4731 ****         1.5000   2.0000  44.0000 Du        
   4732 ****         1.5000   2.0000  44.2500 Du        
   4733 ****         1.5000   2.0000  44.5000 Du        
   4734 ****         1.5000   2.0000  44.7500 Du        
   4735 ****         1.5000   2.0000  45.0000 Du        
   4736 ****         1.5000   2.2500  37.2500 Du        
   4737 ****         1.5000   2.2500  37.5000 Du        
   4738 ****         1.5000   2.2500  37.7500 Du        
   4739 ****         1.5000   2.5000  37.2500 Du        
   4740 ****         1.5000   2.5000  37.5000 Du        
   4741 ****         1.5000   2.7500  37.0000 Du        
   4742 ****         1.5000   2.7500  37.2500 Du        
   4743 ****         1.5000   3.0000  37.0000 Du        
   4744 ****         1.5000   3.0000  37.2500 Du        
   4745 ****         1.5000   3.2500  37.0000 Du        
   4746 ****         1.5000   3.2500  37.2500 Du        
   4747 ****         1.5000   3.5000  36.7500 Du        
   4748 ****         1.5000   3.5000  37.0000 Du        
   4749 ****         1.5000   3.5000  37.2500 Du        
   4750 ****         1.5000   3.5000  37.5000 Du        
   4751 ****         1.5000   3.7500  36.7500 Du        
   4752 ****         1.5000   3.7500  37.0000 Du        
   4753 ****         1.5000   3.7500  37.2500 Du        
   4754 ****         1.5000   3.7500  37.5000 Du        
   4755 ****         1.5000   4.0000  36.5000 Du        
   4756 ****         1.5000   4.0000  36.7500 Du        
   4757 ****         1.5000   4.0000  37.0000 Du        
   4758 ****         1.5000   4.0000  37.2500 Du        
   4759 ****         1.5000   4.0000  37.5000 Du        
   4760 ****         1.5000   4.2500  36.5000 Du        
   4761 ****         1.5000   4.2500  36.7500 Du        
   4762 ****         1.5000   4.2500  37.0000 Du        
   4763 ****         1.5000   4.2500  37.2500 Du        
   4764 ****         1.5000   4.2500  37.5000 Du        
   4765 ****         1.5000   4.5000  36.2500 Du        
   4766 ****         1.5000   4.5000  36.5000 Du        
   4767 ****         1.5000   4.5000  36.7500 Du        
   4768 ****         1.5000   4.5000  37.0000 Du        
   4769 ****         1.5000   4.5000  37.2500 Du        
   4770 ****         1.5000   4.5000  37.5000 Du        
   4771 ****         1.5000   4.7500  36.2500 Du        
   4772 ****         1.5000   4.7500  36.5000 Du        
   4773 ****         1.5000   4.7500  36.7500 Du        
   4774 ****         1.5000   4.7500  37.0000 Du        
   4775 ****         1.5000   4.7500  37.2500 Du        
   4776 ****         1.5000   4.7500  37.5000 Du        
   4777 ****         1.5000   5.0000  36.0000 Du        
   4778 ****         1.5000   5.0000  36.2500 Du        
   4779 ****         1.5000   5.0000  36.5000 Du        
   4780 ****         1.5000   5.0000  36.7500 Du        
   4781 ****         1.5000   5.0000  37.0000 Du        
   4782 ****         1.5000   5.0000  37.2500 Du        
   4783 ****         1.5000   5.0000  37.5000 Du        
   4784 ****         1.5000   5.2500  36.0000 Du        
   4785 ****         1.5000   5.2500  36.2500 Du        
   4786 ****         1.5000   5.2500  36.5000 Du        
   4787 ****         1.5000   5.2500  36.7500 Du        
   4788 ****         1.5000   5.2500  37.0000 Du        
   4789 ****         1.5000   5.2500  37.2500 Du        
   4790 ****         1.5000   5.2500  37.5000 Du        
   4791 ****         1.5000   5.2500  37.7500 Du        
   4792 ****         1.5000   5.5000  36.0000 Du        
   4793 ****         1.5000   5.5000  36.2500 Du        
   4794 ****         1.5000   5.5000  36.5000 Du        
   4795 ****         1.5000   5.5000  36.7500 Du        
   4796 ****         1.5000   5.5000  37.0000 Du        
   4797 ****         1.5000   5.5000  37.2500 Du        
   4798 ****         1.5000   5.5000  37.5000 Du        
   4799 ****         1.5000   5.7500  36.0000 Du        
   4800 ****         1.5000   5.7500  36.2500 Du        
   4801 ****         1.5000   5.7500  36.5000 Du        
   4802 ****         1.5000   5.7500  36.7500 Du        
   4803 ****         1.5000   5.7500  37.0000 Du        
   4804 ****         1.5000   5.7500  37.2500 Du        
   4805 ****         1.5000   5.7500  37.5000 Du        
   4806 ****         1.5000   6.0000  35.7500 Du        
   4807 ****         1.5000   6.0000  36.0000 Du        
   4808 ****         1.5000   6.0000  36.2500 Du        
   4809 ****         1.5000   6.0000  36.5000 Du        
   4810 ****         1.5000   6.0000  36.7500 Du        
   4811 ****         1.5000   6.0000  37.0000 Du        
   4812 ****         1.5000   6.0000  37.2500 Du        
   4813 ****         1.5000   6.0000  37.5000 Du        
   4814 ****         1.5000   6.2500  35.7500 Du        
   4815 ****         1.5000   6.2500  36.0000 Du        
   4816 ****         1.5000   6.2500  36.2500 Du        
   4817 ****         1.5000   6.2500  36.5000 Du        
   4818 ****         1.5000   6.2500  36.7500 Du        
   4819 ****         1.5000   6.2500  37.0000 Du        
   4820 ****         1.5000   6.2500  37.2500 Du        
   4821 ****         1.5000   6.5000  36.0000 Du        
   4822 ****         1.5000   6.5000  36.2500 Du        
   4823 ****         1.5000   6.5000  36.5000 Du        
   4824 ****         1.5000   6.5000  36.7500 Du        
   4825 ****         1.5000   6.5000  37.0000 Du        
   4826 ****         1.5000   6.5000  37.2500 Du        
   4827 ****         1.5000   6.7500  36.0000 Du        
   4828 ****         1.5000   6.7500  36.2500 Du        
   4829 ****         1.5000   6.7500  36.5000 Du        
   4830 ****         1.5000   6.7500  36.7500 Du        
   4831 ****         1.5000   6.7500  37.0000 Du        
   4832 ****         1.5000   7.0000  36.0000 Du        
   4833 ****         1.5000   7.0000  36.2500 Du        
   4834 ****         1.5000   7.0000  36.5000 Du        
   4835 ****         1.5000   7.0000  36.7500 Du        
   4836 ****         1.5000   7.2500  36.0000 Du        
   4837 ****         1.5000   7.2500  36.2500 Du        
   4838 ****         1.5000   7.2500  36.5000 Du        
   4839 ****         1.5000   8.0000  32.7500 Du        
   4840 ****         1.5000   8.0000  33.0000 Du        
   4841 ****         1.5000   8.0000  33.2500 Du        
   4842 ****         1.5000   8.2500  32.2500 Du        
   4843 ****         1.5000   8.2500  32.5000 Du        
   4844 ****         1.5000   8.2500  32.7500 Du        
   4845 ****         1.5000   8.2500  33.0000 Du        
   4846 ****         1.5000   8.2500  33.2500 Du        
   4847 ****         1.5000   8.2500  33.5000 Du        
   4848 ****         1.5000   8.2500  33.7500 Du        
   4849 ****         1.5000   8.5000  32.0000 Du        
   4850 ****         1.5000   8.5000  32.2500 Du        
   4851 ****         1.5000   8.5000  32.5000 Du        
   4852 ****         1.5000   8.5000  32.7500 Du        
   4853 ****         1.5000   8.5000  33.0000 Du        
   4854 ****         1.5000   8.5000  33.2500 Du        
   4855 ****         1.5000   8.5000  33.5000 Du        
   4856 ****         1.5000   8.5000  33.7500 Du        
   4857 ****         1.5000   8.5000  34.0000 Du        
   4858 ****         1.5000   8.7500  31.7500 Du        
   4859 ****         1.5000   8.7500  32.0000 Du        
   4860 ****         1.5000   8.7500  32.2500 Du        
   4861 ****         1.5000   8.7500  32.5000 Du        
   4862 ****         1.5000   8.7500  32.7500 Du        
   4863 ****         1.5000   8.7500  33.0000 Du        
   4864 ****         1.5000   8.7500  33.2500 Du        
   4865 ****         1.5000   8.7500  33.5000 Du        
   4866 ****         1.5000   8.7500  33.7500 Du        
   4867 ****         1.5000   8.7500  34.0000 Du        
   4868 ****         1.5000   8.7500  34.2500 Du        
   4869 ****         1.5000   9.0000  31.5000 Du        
   4870 ****         1.5000   9.0000  31.7500 Du        
   4871 ****         1.5000   9.0000  32.0000 Du        
   4872 ****         1.5000   9.0000  32.2500 Du        
   4873 ****         1.5000   9.0000  32.5000 Du        
   4874 ****         1.5000   9.0000  32.7500 Du        
   4875 ****         1.5000   9.0000  33.0000 Du        
   4876 ****         1.5000   9.0000  33.2500 Du        
   4877 ****         1.5000   9.0000  33.5000 Du        
   4878 ****         1.5000   9.0000  33.7500 Du        
   4879 ****         1.5000   9.0000  34.0000 Du        
   4880 ****         1.5000   9.2500  31.2500 Du        
   4881 ****         1.5000   9.2500  31.5000 Du        
   4882 ****         1.5000   9.2500  31.7500 Du        
   4883 ****         1.5000   9.2500  32.0000 Du        
   4884 ****         1.5000   9.2500  32.2500 Du        
   4885 ****         1.5000   9.2500  32.5000 Du        
   4886 ****         1.5000   9.2500  32.7500 Du        
   4887 ****         1.5000   9.2500  33.0000 Du        
   4888 ****         1.5000   9.2500  33.2500 Du        
   4889 ****         1.5000   9.2500  33.5000 Du        
   4890 ****         1.5000   9.2500  33.7500 Du        
   4891 ****         1.5000   9.2500  34.0000 Du        
   4892 ****         1.5000   9.5000  31.0000 Du        
   4893 ****         1.5000   9.5000  31.2500 Du        
   4894 ****         1.5000   9.5000  31.5000 Du        
   4895 ****         1.5000   9.5000  31.7500 Du        
   4896 ****         1.5000   9.5000  32.0000 Du        
   4897 ****         1.5000   9.5000  32.2500 Du        
   4898 ****         1.5000   9.5000  32.5000 Du        
   4899 ****         1.5000   9.5000  32.7500 Du        
   4900 ****         1.5000   9.5000  33.0000 Du        
   4901 ****         1.5000   9.5000  33.2500 Du        
   4902 ****         1.5000   9.5000  33.5000 Du        
   4903 ****         1.5000   9.5000  33.7500 Du        
   4904 ****         1.5000   9.5000  34.0000 Du        
   4905 ****         1.5000   9.7500  31.0000 Du        
   4906 ****         1.5000   9.7500  31.2500 Du        
   4907 ****         1.5000   9.7500  31.5000 Du        
   4908 ****         1.5000   9.7500  31.7500 Du        
   4909 ****         1.5000   9.7500  32.0000 Du        
   4910 ****         1.5000   9.7500  32.2500 Du        
   4911 ****         1.5000   9.7500  32.5000 Du        
   4912 ****         1.5000   9.7500  32.7500 Du        
   4913 ****         1.5000   9.7500  33.0000 Du        
   4914 ****         1.5000   9.7500  33.2500 Du        
   4915 ****         1.5000   9.7500  33.5000 Du        
   4916 ****         1.5000   9.7500  33.7500 Du        
   4917 ****         1.5000  10.0000  30.7500 Du        
   4918 ****         1.5000  10.0000  31.0000 Du        
   4919 ****         1.5000  10.0000  31.2500 Du        
   4920 ****         1.5000  10.0000  31.5000 Du        
   4921 ****         1.5000  10.0000  31.7500 Du        
   4922 ****         1.5000  10.0000  32.0000 Du        
   4923 ****         1.5000  10.0000  32.2500 Du        
   4924 ****         1.5000  10.0000  32.5000 Du        
   4925 ****         1.5000  10.0000  32.7500 Du        
   4926 ****         1.5000  10.0000  33.0000 Du        
   4927 ****         1.5000  10.0000  33.2500 Du        
   4928 ****         1.5000  10.0000  33.5000 Du        
   4929 ****         1.5000  10.0000  33.7500 Du        
   4930 ****         1.5000  10.2500  31.0000 Du        
   4931 ****         1.5000  10.2500  31.2500 Du        
   4932 ****         1.5000  10.2500  31.5000 Du        
   4933 ****         1.5000  10.2500  31.7500 Du        
   4934 ****         1.5000  10.2500  32.0000 Du        
   4935 ****         1.5000  10.2500  32.2500 Du        
   4936 ****         1.5000  10.2500  32.5000 Du        
   4937 ****         1.5000  10.2500  32.7500 Du        
   4938 ****         1.5000  10.2500  33.0000 Du        
   4939 ****         1.5000  10.2500  33.2500 Du        
   4940 ****         1.5000  10.2500  33.5000 Du        
   4941 ****         1.5000  10.2500  33.7500 Du        
   4942 ****         1.5000  10.5000  31.0000 Du        
   4943 ****         1.5000  10.5000  31.2500 Du        
   4944 ****         1.5000  10.5000  31.5000 Du        
   4945 ****         1.5000  10.5000  31.7500 Du        
   4946 ****         1.5000  10.5000  32.0000 Du        
   4947 ****         1.5000  10.5000  32.2500 Du        
   4948 ****         1.5000  10.5000  32.5000 Du        
   4949 ****         1.5000  10.5000  32.7500 Du        
   4950 ****         1.5000  10.5000  33.0000 Du        
   4951 ****         1.5000  10.5000  33.2500 Du        
   4952 ****         1.5000  10.5000  33.5000 Du        
   4953 ****         1.5000  10.5000  33.7500 Du        
   4954 ****         1.5000  10.7500  31.0000 Du        
   4955 ****         1.5000  10.7500  31.2500 Du        
   4956 ****         1.5000  10.7500  31.5000 Du        
   4957 ****         1.5000  10.7500  31.7500 Du        
   4958 ****         1.5000  10.7500  32.0000 Du        
   4959 ****         1.5000  10.7500  32.2500 Du        
   4960 ****         1.5000  10.7500  32.5000 Du        
   4961 ****         1.5000  10.7500  32.7500 Du        
   4962 ****         1.5000  10.7500  33.0000 Du        
   4963 ****         1.5000  10.7500  33.2500 Du        
   4964 ****         1.5000  10.7500  33.5000 Du        
   4965 ****         1.5000  10.7500  33.7500 Du        
   4966 ****         1.5000  11.0000  31.0000 Du        
   4967 ****         1.5000  11.0000  31.2500 Du        
   4968 ****         1.5000  11.0000  31.5000 Du        
   4969 ****         1.5000  11.0000  31.7500 Du        
   4970 ****         1.5000  11.0000  32.0000 Du        
   4971 ****         1.5000  11.0000  32.2500 Du        
   4972 ****         1.5000  11.0000  32.5000 Du        
   4973 ****         1.5000  11.0000  32.7500 Du        
   4974 ****         1.5000  11.0000  33.0000 Du        
   4975 ****         1.5000  11.0000  33.2500 Du        
   4976 ****         1.5000  11.0000  33.5000 Du        
   4977 ****         1.5000  11.2500  31.2500 Du        
   4978 ****         1.5000  11.2500  31.5000 Du        
   4979 ****         1.5000  11.2500  31.7500 Du        
   4980 ****         1.5000  11.2500  32.0000 Du        
   4981 ****         1.5000  11.2500  32.2500 Du        
   4982 ****         1.5000  11.2500  32.5000 Du        
   4983 ****         1.5000  11.2500  32.7500 Du        
   4984 ****         1.5000  11.2500  33.0000 Du        
   4985 ****         1.5000  11.2500  33.2500 Du        
   4986 ****         1.5000  11.2500  33.5000 Du        
   4987 ****         1.5000  11.5000  31.7500 Du        
   4988 ****         1.5000  11.5000  32.0000 Du        
   4989 ****         1.5000  11.5000  32.2500 Du        
   4990 ****         1.5000  11.5000  32.5000 Du        
   4991 ****         1.5000  11.5000  32.7500 Du        
   4992 ****         1.5000  11.5000  33.0000 Du        
   4993 ****         1.5000  11.5000  33.2500 Du        
   4994 ****         1.5000  11.7500  32.5000 Du        
   4995 ****         1.5000  11.7500  32.7500 Du        
   4996 ****         1.5000  11.7500  33.0000 Du        
   4997 ****         1.5000  11.7500  33.2500 Du        
   4998 ****         1.5000  22.5000  34.5000 Du        
   4999 ****         1.5000  22.7500  34.2500 Du        
   5000 ****         1.5000  22.7500  34.5000 Du        
   5001 ****         1.5000  23.0000  34.2500 Du        
   5002 ****         1.7500   0.0000  33.5000 Du        
   5003 ****         1.7500   0.0000  33.7500 Du        
   5004 ****         1.7500   0.0000  34.0000 Du        
   5005 ****         1.7500   0.0000  41.5000 Du        
   5006 ****         1.7500   0.0000  41.7500 Du        
   5007 ****         1.7500   0.0000  42.0000 Du        
   5008 ****         1.7500   0.0000  42.2500 Du        
   5009 ****         1.7500   0.0000  42.5000 Du        
   5010 ****         1.7500   0.0000  42.7500 Du        
   5011 ****         1.7500   0.0000  43.0000 Du        
   5012 ****         1.7500   0.0000  43.2500 Du        
   5013 ****         1.7500   0.0000  44.0000 Du        
   5014 ****         1.7500   0.0000  44.2500 Du        
   5015 ****         1.7500   0.0000  44.5000 Du        
   5016 ****         1.7500   0.0000  44.7500 Du        
   5017 ****         1.7500   0.2500  41.2500 Du        
   5018 ****         1.7500   0.2500  41.5000 Du        
   5019 ****         1.7500   0.2500  41.7500 Du        
   5020 ****         1.7500   0.2500  42.0000 Du        
   5021 ****         1.7500   0.2500  42.2500 Du        
   5022 ****         1.7500   0.2500  42.5000 Du        
   5023 ****         1.7500   0.2500  42.7500 Du        
   5024 ****         1.7500   0.2500  43.0000 Du        
   5025 ****         1.7500   0.2500  43.2500 Du        
   5026 ****         1.7500   0.2500  43.5000 Du        
   5027 ****         1.7500   0.2500  43.7500 Du        
   5028 ****         1.7500   0.2500  44.0000 Du        
   5029 ****         1.7500   0.2500  44.2500 Du        
   5030 ****         1.7500   0.2500  44.5000 Du        
   5031 ****         1.7500   0.2500  44.7500 Du        
   5032 ****         1.7500   0.5000  41.0000 Du        
   5033 ****         1.7500   0.5000  41.2500 Du        
   5034 ****         1.7500   0.5000  41.5000 Du        
   5035 ****         1.7500   0.5000  41.7500 Du        
   5036 ****         1.7500   0.5000  42.0000 Du        
   5037 ****         1.7500   0.5000  42.2500 Du        
   5038 ****         1.7500   0.5000  42.5000 Du        
   5039 ****         1.7500   0.5000  42.7500 Du        
   5040 ****         1.7500   0.5000  43.0000 Du        
   5041 ****         1.7500   0.5000  43.2500 Du        
   5042 ****         1.7500   0.5000  43.5000 Du        
   5043 ****         1.7500   0.5000  43.7500 Du        
   5044 ****         1.7500   0.5000  44.0000 Du        
   5045 ****         1.7500   0.5000  44.2500 Du        
   5046 ****         1.7500   0.5000  44.5000 Du        
   5047 ****         1.7500   0.5000  44.7500 Du        
   5048 ****         1.7500   0.5000  45.0000 Du        
   5049 ****         1.7500   0.5000  45.2500 Du        
   5050 ****         1.7500   0.5000  45.5000 Du        
   5051 ****         1.7500   0.5000  45.7500 Du        
   5052 ****         1.7500   0.7500  41.2500 Du        
   5053 ****         1.7500   0.7500  41.5000 Du        
   5054 ****         1.7500   0.7500  41.7500 Du        
   5055 ****         1.7500   0.7500  42.0000 Du        
   5056 ****         1.7500   0.7500  42.2500 Du        
   5057 ****         1.7500   0.7500  42.5000 Du        
   5058 ****         1.7500   0.7500  42.7500 Du        
   5059 ****         1.7500   0.7500  43.0000 Du        
   5060 ****         1.7500   0.7500  43.2500 Du        
   5061 ****         1.7500   0.7500  43.5000 Du        
   5062 ****         1.7500   0.7500  43.7500 Du        
   5063 ****         1.7500   0.7500  44.0000 Du        
   5064 ****         1.7500   0.7500  44.2500 Du        
   5065 ****         1.7500   0.7500  44.5000 Du        
   5066 ****         1.7500   0.7500  44.7500 Du        
   5067 ****         1.7500   0.7500  45.0000 Du        
   5068 ****         1.7500   0.7500  45.2500 Du        
   5069 ****         1.7500   0.7500  45.5000 Du        
   5070 ****         1.7500   0.7500  45.7500 Du        
   5071 ****         1.7500   1.0000  41.7500 Du        
   5072 ****         1.7500   1.0000  42.0000 Du        
   5073 ****         1.7500   1.0000  42.2500 Du        
   5074 ****         1.7500   1.0000  42.5000 Du        
   5075 ****         1.7500   1.0000  42.7500 Du        
   5076 ****         1.7500   1.0000  43.0000 Du        
   5077 ****         1.7500   1.0000  43.2500 Du        
   5078 ****         1.7500   1.0000  43.5000 Du        
   5079 ****         1.7500   1.0000  43.7500 Du        
   5080 ****         1.7500   1.0000  44.0000 Du        
   5081 ****         1.7500   1.0000  44.2500 Du        
   5082 ****         1.7500   1.0000  44.5000 Du        
   5083 ****         1.7500   1.0000  44.7500 Du        
   5084 ****         1.7500   1.0000  45.0000 Du        
   5085 ****         1.7500   1.0000  45.2500 Du        
   5086 ****         1.7500   1.0000  45.5000 Du        
   5087 ****         1.7500   1.0000  45.7500 Du        
   5088 ****         1.7500   1.0000  46.0000 Du        
   5089 ****         1.7500   1.0000  46.2500 Du        
   5090 ****         1.7500   1.2500  42.7500 Du        
   5091 ****         1.7500   1.2500  43.0000 Du        
   5092 ****         1.7500   1.2500  43.2500 Du        
   5093 ****         1.7500   1.2500  43.5000 Du        
   5094 ****         1.7500   1.2500  43.7500 Du        
   5095 ****         1.7500   1.2500  44.0000 Du        
   5096 ****         1.7500   1.2500  44.2500 Du        
   5097 ****         1.7500   1.2500  44.5000 Du        
   5098 ****         1.7500   1.2500  44.7500 Du        
   5099 ****         1.7500   1.2500  45.0000 Du        
   5100 ****         1.7500   1.2500  45.2500 Du        
   5101 ****         1.7500   1.2500  45.5000 Du        
   5102 ****         1.7500   1.2500  45.7500 Du        
   5103 ****         1.7500   1.5000  37.7500 Du        
   5104 ****         1.7500   1.5000  43.2500 Du        
   5105 ****         1.7500   1.5000  43.5000 Du        
   5106 ****         1.7500   1.5000  43.7500 Du        
   5107 ****         1.7500   1.5000  44.0000 Du        
   5108 ****         1.7500   1.5000  44.2500 Du        
   5109 ****         1.7500   1.5000  44.5000 Du        
   5110 ****         1.7500   1.5000  44.7500 Du        
   5111 ****         1.7500   1.5000  45.0000 Du        
   5112 ****         1.7500   1.5000  45.2500 Du        
   5113 ****         1.7500   1.5000  45.5000 Du        
   5114 ****         1.7500   1.7500  37.5000 Du        
   5115 ****         1.7500   1.7500  37.7500 Du        
   5116 ****         1.7500   1.7500  43.7500 Du        
   5117 ****         1.7500   1.7500  44.0000 Du        
   5118 ****         1.7500   1.7500  44.2500 Du        
   5119 ****         1.7500   1.7500  44.5000 Du        
   5120 ****         1.7500   1.7500  44.7500 Du        
   5121 ****         1.7500   1.7500  45.0000 Du        
   5122 ****         1.7500   1.7500  45.2500 Du        
   5123 ****         1.7500   2.0000  37.7500 Du        
   5124 ****         1.7500   3.7500  37.2500 Du        
   5125 ****         1.7500   4.0000  37.0000 Du        
   5126 ****         1.7500   4.0000  37.2500 Du        
   5127 ****         1.7500   4.2500  36.7500 Du        
   5128 ****         1.7500   4.2500  37.0000 Du        
   5129 ****         1.7500   4.2500  37.2500 Du        
   5130 ****         1.7500   4.5000  36.5000 Du        
   5131 ****         1.7500   4.5000  36.7500 Du        
   5132 ****         1.7500   4.5000  37.0000 Du        
   5133 ****         1.7500   4.5000  37.2500 Du        
   5134 ****         1.7500   4.5000  37.5000 Du        
   5135 ****         1.7500   4.7500  36.2500 Du        
   5136 ****         1.7500   4.7500  36.5000 Du        
   5137 ****         1.7500   4.7500  36.7500 Du        
   5138 ****         1.7500   4.7500  37.0000 Du        
   5139 ****         1.7500   4.7500  37.2500 Du        
   5140 ****         1.7500   4.7500  37.5000 Du        
   5141 ****         1.7500   5.0000  36.2500 Du        
   5142 ****         1.7500   5.0000  36.5000 Du        
   5143 ****         1.7500   5.0000  36.7500 Du        
   5144 ****         1.7500   5.0000  37.0000 Du        
   5145 ****         1.7500   5.0000  37.2500 Du        
   5146 ****         1.7500   5.0000  37.5000 Du        
   5147 ****         1.7500   5.2500  36.0000 Du        
   5148 ****         1.7500   5.2500  36.2500 Du        
   5149 ****         1.7500   5.2500  36.5000 Du        
   5150 ****         1.7500   5.2500  36.7500 Du        
   5151 ****         1.7500   5.2500  37.0000 Du        
   5152 ****         1.7500   5.2500  37.2500 Du        
   5153 ****         1.7500   5.2500  37.5000 Du        
   5154 ****         1.7500   5.2500  37.7500 Du        
   5155 ****         1.7500   5.5000  36.0000 Du        
   5156 ****         1.7500   5.5000  36.2500 Du        
   5157 ****         1.7500   5.5000  36.5000 Du        
   5158 ****         1.7500   5.5000  36.7500 Du        
   5159 ****         1.7500   5.5000  37.0000 Du        
   5160 ****         1.7500   5.5000  37.2500 Du        
   5161 ****         1.7500   5.5000  37.5000 Du        
   5162 ****         1.7500   5.5000  37.7500 Du        
   5163 ****         1.7500   5.7500  35.7500 Du        
   5164 ****         1.7500   5.7500  36.0000 Du        
   5165 ****         1.7500   5.7500  36.2500 Du        
   5166 ****         1.7500   5.7500  36.5000 Du        
   5167 ****         1.7500   5.7500  36.7500 Du        
   5168 ****         1.7500   5.7500  37.0000 Du        
   5169 ****         1.7500   5.7500  37.2500 Du        
   5170 ****         1.7500   5.7500  37.5000 Du        
   5171 ****         1.7500   5.7500  37.7500 Du        
   5172 ****         1.7500   6.0000  35.7500 Du        
   5173 ****         1.7500   6.0000  36.0000 Du        
   5174 ****         1.7500   6.0000  36.2500 Du        
   5175 ****         1.7500   6.0000  36.5000 Du        
   5176 ****         1.7500   6.0000  36.7500 Du        
   5177 ****         1.7500   6.0000  37.0000 Du        
   5178 ****         1.7500   6.0000  37.2500 Du        
   5179 ****         1.7500   6.0000  37.5000 Du        
   5180 ****         1.7500   6.0000  37.7500 Du        
   5181 ****         1.7500   6.2500  35.7500 Du        
   5182 ****         1.7500   6.2500  36.0000 Du        
   5183 ****         1.7500   6.2500  36.2500 Du        
   5184 ****         1.7500   6.2500  36.5000 Du        
   5185 ****         1.7500   6.2500  36.7500 Du        
   5186 ****         1.7500   6.2500  37.0000 Du        
   5187 ****         1.7500   6.2500  37.2500 Du        
   5188 ****         1.7500   6.2500  37.5000 Du        
   5189 ****         1.7500   6.2500  37.7500 Du        
   5190 ****         1.7500   6.5000  35.5000 Du        
   5191 ****         1.7500   6.5000  35.7500 Du        
   5192 ****         1.7500   6.5000  36.0000 Du        
   5193 ****         1.7500   6.5000  36.2500 Du        
   5194 ****         1.7500   6.5000  36.5000 Du        
   5195 ****         1.7500   6.5000  36.7500 Du        
   5196 ****         1.7500   6.5000  37.0000 Du        
   5197 ****         1.7500   6.5000  37.2500 Du        
   5198 ****         1.7500   6.5000  37.5000 Du        
   5199 ****         1.7500   6.5000  37.7500 Du        
   5200 ****         1.7500   6.7500  35.5000 Du        
   5201 ****         1.7500   6.7500  35.7500 Du        
   5202 ****         1.7500   6.7500  36.0000 Du        
   5203 ****         1.7500   6.7500  36.2500 Du        
   5204 ****         1.7500   6.7500  36.5000 Du        
   5205 ****         1.7500   6.7500  36.7500 Du        
   5206 ****         1.7500   6.7500  37.0000 Du        
   5207 ****         1.7500   6.7500  37.2500 Du        
   5208 ****         1.7500   6.7500  37.5000 Du        
   5209 ****         1.7500   6.7500  37.7500 Du        
   5210 ****         1.7500   7.0000  35.2500 Du        
   5211 ****         1.7500   7.0000  35.5000 Du        
   5212 ****         1.7500   7.0000  35.7500 Du        
   5213 ****         1.7500   7.0000  36.0000 Du        
   5214 ****         1.7500   7.0000  36.2500 Du        
   5215 ****         1.7500   7.0000  36.5000 Du        
   5216 ****         1.7500   7.0000  36.7500 Du        
   5217 ****         1.7500   7.0000  37.0000 Du        
   5218 ****         1.7500   7.0000  37.2500 Du        
   5219 ****         1.7500   7.2500  35.2500 Du        
   5220 ****         1.7500   7.2500  35.5000 Du        
   5221 ****         1.7500   7.2500  35.7500 Du        
   5222 ****         1.7500   7.2500  36.0000 Du        
   5223 ****         1.7500   7.2500  36.2500 Du        
   5224 ****         1.7500   7.2500  36.5000 Du        
   5225 ****         1.7500   7.2500  36.7500 Du        
   5226 ****         1.7500   7.2500  37.0000 Du        
   5227 ****         1.7500   7.5000  35.2500 Du        
   5228 ****         1.7500   7.5000  35.5000 Du        
   5229 ****         1.7500   7.5000  35.7500 Du        
   5230 ****         1.7500   7.5000  36.0000 Du        
   5231 ****         1.7500   7.5000  36.2500 Du        
   5232 ****         1.7500   7.5000  36.5000 Du        
   5233 ****         1.7500   7.7500  33.0000 Du        
   5234 ****         1.7500   7.7500  33.2500 Du        
   5235 ****         1.7500   7.7500  33.5000 Du        
   5236 ****         1.7500   7.7500  33.7500 Du        
   5237 ****         1.7500   7.7500  34.0000 Du        
   5238 ****         1.7500   7.7500  34.2500 Du        
   5239 ****         1.7500   7.7500  34.7500 Du        
   5240 ****         1.7500   7.7500  35.0000 Du        
   5241 ****         1.7500   7.7500  35.2500 Du        
   5242 ****         1.7500   7.7500  35.5000 Du        
   5243 ****         1.7500   7.7500  35.7500 Du        
   5244 ****         1.7500   7.7500  36.0000 Du        
   5245 ****         1.7500   8.0000  32.5000 Du        
   5246 ****         1.7500   8.0000  32.7500 Du        
   5247 ****         1.7500   8.0000  33.0000 Du        
   5248 ****         1.7500   8.0000  33.2500 Du        
   5249 ****         1.7500   8.0000  33.5000 Du        
   5250 ****         1.7500   8.0000  33.7500 Du        
   5251 ****         1.7500   8.0000  34.0000 Du        
   5252 ****         1.7500   8.0000  34.2500 Du        
   5253 ****         1.7500   8.0000  34.5000 Du        
   5254 ****         1.7500   8.0000  34.7500 Du        
   5255 ****         1.7500   8.0000  35.0000 Du        
   5256 ****         1.7500   8.2500  32.2500 Du        
   5257 ****         1.7500   8.2500  32.5000 Du        
   5258 ****         1.7500   8.2500  32.7500 Du        
   5259 ****         1.7500   8.2500  33.0000 Du        
   5260 ****         1.7500   8.2500  33.2500 Du        
   5261 ****         1.7500   8.2500  33.5000 Du        
   5262 ****         1.7500   8.2500  33.7500 Du        
   5263 ****         1.7500   8.2500  34.0000 Du        
   5264 ****         1.7500   8.2500  34.2500 Du        
   5265 ****         1.7500   8.2500  34.5000 Du        
   5266 ****         1.7500   8.2500  34.7500 Du        
   5267 ****         1.7500   8.5000  32.0000 Du        
   5268 ****         1.7500   8.5000  32.2500 Du        
   5269 ****         1.7500   8.5000  32.5000 Du        
   5270 ****         1.7500   8.5000  32.7500 Du        
   5271 ****         1.7500   8.5000  33.0000 Du        
   5272 ****         1.7500   8.5000  33.2500 Du        
   5273 ****         1.7500   8.5000  33.5000 Du        
   5274 ****         1.7500   8.5000  33.7500 Du        
   5275 ****         1.7500   8.5000  34.0000 Du        
   5276 ****         1.7500   8.5000  34.2500 Du        
   5277 ****         1.7500   8.5000  34.5000 Du        
   5278 ****         1.7500   8.7500  32.0000 Du        
   5279 ****         1.7500   8.7500  32.2500 Du        
   5280 ****         1.7500   8.7500  32.5000 Du        
   5281 ****         1.7500   8.7500  32.7500 Du        
   5282 ****         1.7500   8.7500  33.0000 Du        
   5283 ****         1.7500   8.7500  33.2500 Du        
   5284 ****         1.7500   8.7500  33.5000 Du        
   5285 ****         1.7500   8.7500  33.7500 Du        
   5286 ****         1.7500   8.7500  34.0000 Du        
   5287 ****         1.7500   8.7500  34.2500 Du        
   5288 ****         1.7500   9.0000  31.7500 Du        
   5289 ****         1.7500   9.0000  32.0000 Du        
   5290 ****         1.7500   9.0000  32.2500 Du        
   5291 ****         1.7500   9.0000  32.5000 Du        
   5292 ****         1.7500   9.0000  32.7500 Du        
   5293 ****         1.7500   9.0000  33.0000 Du        
   5294 ****         1.7500   9.0000  33.2500 Du        
   5295 ****         1.7500   9.0000  33.5000 Du        
   5296 ****         1.7500   9.0000  33.7500 Du        
   5297 ****         1.7500   9.0000  34.0000 Du        
   5298 ****         1.7500   9.2500  31.5000 Du        
   5299 ****         1.7500   9.2500  31.7500 Du        
   5300 ****         1.7500   9.2500  32.0000 Du        
   5301 ****         1.7500   9.2500  32.2500 Du        
   5302 ****         1.7500   9.2500  32.5000 Du        
   5303 ****         1.7500   9.2500  32.7500 Du        
   5304 ****         1.7500   9.2500  33.0000 Du        
   5305 ****         1.7500   9.2500  33.2500 Du        
   5306 ****         1.7500   9.2500  33.5000 Du        
   5307 ****         1.7500   9.2500  33.7500 Du        
   5308 ****         1.7500   9.2500  34.0000 Du        
   5309 ****         1.7500   9.5000  31.2500 Du        
   5310 ****         1.7500   9.5000  31.5000 Du        
   5311 ****         1.7500   9.5000  31.7500 Du        
   5312 ****         1.7500   9.5000  32.0000 Du        
   5313 ****         1.7500   9.5000  32.2500 Du        
   5314 ****         1.7500   9.5000  32.5000 Du        
   5315 ****         1.7500   9.5000  32.7500 Du        
   5316 ****         1.7500   9.5000  33.0000 Du        
   5317 ****         1.7500   9.5000  33.2500 Du        
   5318 ****         1.7500   9.5000  33.5000 Du        
   5319 ****         1.7500   9.5000  33.7500 Du        
   5320 ****         1.7500   9.5000  34.0000 Du        
   5321 ****         1.7500   9.7500  31.0000 Du        
   5322 ****         1.7500   9.7500  31.2500 Du        
   5323 ****         1.7500   9.7500  31.5000 Du        
   5324 ****         1.7500   9.7500  31.7500 Du        
   5325 ****         1.7500   9.7500  32.0000 Du        
   5326 ****         1.7500   9.7500  32.2500 Du        
   5327 ****         1.7500   9.7500  32.5000 Du        
   5328 ****         1.7500   9.7500  32.7500 Du        
   5329 ****         1.7500   9.7500  33.0000 Du        
   5330 ****         1.7500   9.7500  33.2500 Du        
   5331 ****         1.7500   9.7500  33.5000 Du        
   5332 ****         1.7500   9.7500  33.7500 Du        
   5333 ****         1.7500  10.0000  31.0000 Du        
   5334 ****         1.7500  10.0000  31.2500 Du        
   5335 ****         1.7500  10.0000  31.5000 Du        
   5336 ****         1.7500  10.0000  31.7500 Du        
   5337 ****         1.7500  10.0000  32.0000 Du        
   5338 ****         1.7500  10.0000  32.2500 Du        
   5339 ****         1.7500  10.0000  32.5000 Du        
   5340 ****         1.7500  10.0000  32.7500 Du        
   5341 ****         1.7500  10.0000  33.0000 Du        
   5342 ****         1.7500  10.0000  33.2500 Du        
   5343 ****         1.7500  10.0000  33.5000 Du        
   5344 ****         1.7500  10.0000  33.7500 Du        
   5345 ****         1.7500  10.2500  31.0000 Du        
   5346 ****         1.7500  10.2500  31.2500 Du        
   5347 ****         1.7500  10.2500  31.5000 Du        
   5348 ****         1.7500  10.2500  31.7500 Du        
   5349 ****         1.7500  10.2500  32.0000 Du        
   5350 ****         1.7500  10.2500  32.2500 Du        
   5351 ****         1.7500  10.2500  32.5000 Du        
   5352 ****         1.7500  10.2500  32.7500 Du        
   5353 ****         1.7500  10.2500  33.0000 Du        
   5354 ****         1.7500  10.2500  33.2500 Du        
   5355 ****         1.7500  10.2500  33.5000 Du        
   5356 ****         1.7500  10.2500  33.7500 Du        
   5357 ****         1.7500  10.5000  31.0000 Du        
   5358 ****         1.7500  10.5000  31.2500 Du        
   5359 ****         1.7500  10.5000  31.5000 Du        
   5360 ****         1.7500  10.5000  31.7500 Du        
   5361 ****         1.7500  10.5000  32.0000 Du        
   5362 ****         1.7500  10.5000  32.2500 Du        
   5363 ****         1.7500  10.5000  32.5000 Du        
   5364 ****         1.7500  10.5000  32.7500 Du        
   5365 ****         1.7500  10.5000  33.0000 Du        
   5366 ****         1.7500  10.5000  33.2500 Du        
   5367 ****         1.7500  10.5000  33.5000 Du        
   5368 ****         1.7500  10.5000  33.7500 Du        
   5369 ****         1.7500  10.7500  31.0000 Du        
   5370 ****         1.7500  10.7500  31.2500 Du        
   5371 ****         1.7500  10.7500  31.5000 Du        
   5372 ****         1.7500  10.7500  31.7500 Du        
   5373 ****         1.7500  10.7500  32.0000 Du        
   5374 ****         1.7500  10.7500  32.2500 Du        
   5375 ****         1.7500  10.7500  32.5000 Du        
   5376 ****         1.7500  10.7500  32.7500 Du        
   5377 ****         1.7500  10.7500  33.0000 Du        
   5378 ****         1.7500  10.7500  33.2500 Du        
   5379 ****         1.7500  10.7500  33.5000 Du        
   5380 ****         1.7500  10.7500  33.7500 Du        
   5381 ****         1.7500  11.0000  31.0000 Du        
   5382 ****         1.7500  11.0000  31.2500 Du        
   5383 ****         1.7500  11.0000  31.5000 Du        
   5384 ****         1.7500  11.0000  31.7500 Du        
   5385 ****         1.7500  11.0000  32.0000 Du        
   5386 ****         1.7500  11.0000  32.2500 Du        
   5387 ****         1.7500  11.0000  32.5000 Du        
   5388 ****         1.7500  11.0000  32.7500 Du        
   5389 ****         1.7500  11.0000  33.0000 Du        
   5390 ****         1.7500  11.0000  33.2500 Du        
   5391 ****         1.7500  11.0000  33.5000 Du        
   5392 ****         1.7500  11.2500  31.0000 Du        
   5393 ****         1.7500  11.2500  31.2500 Du        
   5394 ****         1.7500  11.2500  31.5000 Du        
   5395 ****         1.7500  11.2500  31.7500 Du        
   5396 ****         1.7500  11.2500  32.0000 Du        
   5397 ****         1.7500  11.2500  32.2500 Du        
   5398 ****         1.7500  11.2500  32.5000 Du        
   5399 ****         1.7500  11.2500  32.7500 Du        
   5400 ****         1.7500  11.2500  33.0000 Du        
   5401 ****         1.7500  11.2500  33.2500 Du        
   5402 ****         1.7500  11.2500  33.5000 Du        
   5403 ****         1.7500  11.5000  31.2500 Du        
   5404 ****         1.7500  11.5000  31.5000 Du        
   5405 ****         1.7500  11.5000  31.7500 Du        
   5406 ****         1.7500  11.5000  32.0000 Du        
   5407 ****         1.7500  11.5000  32.2500 Du        
   5408 ****         1.7500  11.5000  32.5000 Du        
   5409 ****         1.7500  11.5000  32.7500 Du        
   5410 ****         1.7500  11.5000  33.0000 Du        
   5411 ****         1.7500  11.5000  33.2500 Du        
   5412 ****         1.7500  11.5000  33.5000 Du        
   5413 ****         1.7500  11.7500  31.5000 Du        
   5414 ****         1.7500  11.7500  31.7500 Du        
   5415 ****         1.7500  11.7500  32.0000 Du        
   5416 ****         1.7500  11.7500  32.2500 Du        
   5417 ****         1.7500  11.7500  32.5000 Du        
   5418 ****         1.7500  11.7500  32.7500 Du        
   5419 ****         1.7500  11.7500  33.0000 Du        
   5420 ****         1.7500  11.7500  33.2500 Du        
   5421 ****         1.7500  12.0000  32.2500 Du        
   5422 ****         1.7500  12.0000  32.5000 Du        
   5423 ****         1.7500  12.0000  32.7500 Du        
   5424 ****         1.7500  12.0000  33.0000 Du        
   5425 ****         1.7500  22.5000  34.5000 Du        
   5426 ****         1.7500  22.5000  34.7500 Du        
   5427 ****         1.7500  22.7500  34.2500 Du        
   5428 ****         1.7500  22.7500  34.5000 Du        
   5429 ****         1.7500  22.7500  34.7500 Du        
   5430 ****         1.7500  23.0000  34.2500 Du        
   5431 ****         1.7500  23.0000  34.5000 Du        
   5432 ****         2.0000   0.0000  33.5000 Du        
   5433 ****         2.0000   0.0000  33.7500 Du        
   5434 ****         2.0000   0.0000  41.5000 Du        
   5435 ****         2.0000   0.0000  41.7500 Du        
   5436 ****         2.0000   0.0000  42.0000 Du        
   5437 ****         2.0000   0.0000  42.2500 Du        
   5438 ****         2.0000   0.0000  42.5000 Du        
   5439 ****         2.0000   0.0000  42.7500 Du        
   5440 ****         2.0000   0.0000  43.0000 Du        
   5441 ****         2.0000   0.0000  43.2500 Du        
   5442 ****         2.0000   0.0000  43.5000 Du        
   5443 ****         2.0000   0.0000  43.7500 Du        
   5444 ****         2.0000   0.0000  44.0000 Du        
   5445 ****         2.0000   0.0000  44.2500 Du        
   5446 ****         2.0000   0.0000  44.5000 Du        
   5447 ****         2.0000   0.0000  44.7500 Du        
   5448 ****         2.0000   0.2500  41.5000 Du        
   5449 ****         2.0000   0.2500  41.7500 Du        
   5450 ****         2.0000   0.2500  42.0000 Du        
   5451 ****         2.0000   0.2500  42.2500 Du        
   5452 ****         2.0000   0.2500  42.5000 Du        
   5453 ****         2.0000   0.2500  42.7500 Du        
   5454 ****         2.0000   0.2500  43.0000 Du        
   5455 ****         2.0000   0.2500  43.2500 Du        
   5456 ****         2.0000   0.2500  43.5000 Du        
   5457 ****         2.0000   0.2500  43.7500 Du        
   5458 ****         2.0000   0.2500  44.0000 Du        
   5459 ****         2.0000   0.2500  44.2500 Du        
   5460 ****         2.0000   0.2500  44.5000 Du        
   5461 ****         2.0000   0.2500  44.7500 Du        
   5462 ****         2.0000   0.5000  41.5000 Du        
   5463 ****         2.0000   0.5000  41.7500 Du        
   5464 ****         2.0000   0.5000  42.0000 Du        
   5465 ****         2.0000   0.5000  42.2500 Du        
   5466 ****         2.0000   0.5000  42.5000 Du        
   5467 ****         2.0000   0.5000  42.7500 Du        
   5468 ****         2.0000   0.5000  43.0000 Du        
   5469 ****         2.0000   0.5000  43.2500 Du        
   5470 ****         2.0000   0.5000  43.5000 Du        
   5471 ****         2.0000   0.5000  43.7500 Du        
   5472 ****         2.0000   0.5000  44.0000 Du        
   5473 ****         2.0000   0.5000  44.2500 Du        
   5474 ****         2.0000   0.5000  44.5000 Du        
   5475 ****         2.0000   0.5000  44.7500 Du        
   5476 ****         2.0000   0.5000  45.0000 Du        
   5477 ****         2.0000   0.5000  45.2500 Du        
   5478 ****         2.0000   0.5000  45.5000 Du        
   5479 ****         2.0000   0.5000  45.7500 Du        
   5480 ****         2.0000   0.7500  42.0000 Du        
   5481 ****         2.0000   0.7500  42.2500 Du        
   5482 ****         2.0000   0.7500  42.5000 Du        
   5483 ****         2.0000   0.7500  42.7500 Du        
   5484 ****         2.0000   0.7500  43.0000 Du        
   5485 ****         2.0000   0.7500  43.2500 Du        
   5486 ****         2.0000   0.7500  43.5000 Du        
   5487 ****         2.0000   0.7500  43.7500 Du        
   5488 ****         2.0000   0.7500  44.0000 Du        
   5489 ****         2.0000   0.7500  44.2500 Du        
   5490 ****         2.0000   0.7500  44.5000 Du        
   5491 ****         2.0000   0.7500  44.7500 Du        
   5492 ****         2.0000   0.7500  45.0000 Du        
   5493 ****         2.0000   0.7500  45.2500 Du        
   5494 ****         2.0000   0.7500  45.5000 Du        
   5495 ****         2.0000   0.7500  45.7500 Du        
   5496 ****         2.0000   1.0000  38.0000 Du        
   5497 ****         2.0000   1.0000  42.7500 Du        
   5498 ****         2.0000   1.0000  43.0000 Du        
   5499 ****         2.0000   1.0000  43.2500 Du        
   5500 ****         2.0000   1.0000  43.5000 Du        
   5501 ****         2.0000   1.0000  43.7500 Du        
   5502 ****         2.0000   1.0000  44.0000 Du        
   5503 ****         2.0000   1.0000  44.2500 Du        
   5504 ****         2.0000   1.0000  44.5000 Du        
   5505 ****         2.0000   1.0000  44.7500 Du        
   5506 ****         2.0000   1.0000  45.0000 Du        
   5507 ****         2.0000   1.0000  45.2500 Du        
   5508 ****         2.0000   1.0000  45.5000 Du        
   5509 ****         2.0000   1.2500  43.2500 Du        
   5510 ****         2.0000   1.2500  43.5000 Du        
   5511 ****         2.0000   1.2500  43.7500 Du        
   5512 ****         2.0000   1.2500  44.0000 Du        
   5513 ****         2.0000   1.2500  44.2500 Du        
   5514 ****         2.0000   1.2500  44.5000 Du        
   5515 ****         2.0000   1.2500  44.7500 Du        
   5516 ****         2.0000   1.2500  45.0000 Du        
   5517 ****         2.0000   1.2500  45.2500 Du        
   5518 ****         2.0000   1.5000  43.7500 Du        
   5519 ****         2.0000   1.5000  44.0000 Du        
   5520 ****         2.0000   1.5000  44.2500 Du        
   5521 ****         2.0000   1.5000  44.5000 Du        
   5522 ****         2.0000   1.5000  44.7500 Du        
   5523 ****         2.0000   1.5000  45.0000 Du        
   5524 ****         2.0000   4.2500  37.2500 Du        
   5525 ****         2.0000   4.5000  36.7500 Du        
   5526 ****         2.0000   4.5000  37.0000 Du        
   5527 ****         2.0000   4.5000  37.2500 Du        
   5528 ****         2.0000   4.7500  36.5000 Du        
   5529 ****         2.0000   4.7500  36.7500 Du        
   5530 ****         2.0000   4.7500  37.0000 Du        
   5531 ****         2.0000   4.7500  37.2500 Du        
   5532 ****         2.0000   4.7500  37.5000 Du        
   5533 ****         2.0000   5.0000  36.2500 Du        
   5534 ****         2.0000   5.0000  36.5000 Du        
   5535 ****         2.0000   5.0000  36.7500 Du        
   5536 ****         2.0000   5.0000  37.0000 Du        
   5537 ****         2.0000   5.0000  37.2500 Du        
   5538 ****         2.0000   5.0000  37.5000 Du        
   5539 ****         2.0000   5.2500  36.2500 Du        
   5540 ****         2.0000   5.2500  36.5000 Du        
   5541 ****         2.0000   5.2500  36.7500 Du        
   5542 ****         2.0000   5.2500  37.0000 Du        
   5543 ****         2.0000   5.2500  37.2500 Du        
   5544 ****         2.0000   5.2500  37.5000 Du        
   5545 ****         2.0000   5.2500  37.7500 Du        
   5546 ****         2.0000   5.5000  36.0000 Du        
   5547 ****         2.0000   5.5000  36.2500 Du        
   5548 ****         2.0000   5.5000  36.5000 Du        
   5549 ****         2.0000   5.5000  36.7500 Du        
   5550 ****         2.0000   5.5000  37.0000 Du        
   5551 ****         2.0000   5.5000  37.2500 Du        
   5552 ****         2.0000   5.5000  37.5000 Du        
   5553 ****         2.0000   5.5000  37.7500 Du        
   5554 ****         2.0000   5.7500  36.0000 Du        
   5555 ****         2.0000   5.7500  36.2500 Du        
   5556 ****         2.0000   5.7500  36.5000 Du        
   5557 ****         2.0000   5.7500  36.7500 Du        
   5558 ****         2.0000   5.7500  37.0000 Du        
   5559 ****         2.0000   5.7500  37.2500 Du        
   5560 ****         2.0000   5.7500  37.5000 Du        
   5561 ****         2.0000   5.7500  37.7500 Du        
   5562 ****         2.0000   6.0000  35.7500 Du        
   5563 ****         2.0000   6.0000  36.0000 Du        
   5564 ****         2.0000   6.0000  36.2500 Du        
   5565 ****         2.0000   6.0000  36.5000 Du        
   5566 ****         2.0000   6.0000  36.7500 Du        
   5567 ****         2.0000   6.0000  37.0000 Du        
   5568 ****         2.0000   6.0000  37.2500 Du        
   5569 ****         2.0000   6.0000  37.5000 Du        
   5570 ****         2.0000   6.0000  37.7500 Du        
   5571 ****         2.0000   6.0000  38.0000 Du        
   5572 ****         2.0000   6.2500  35.7500 Du        
   5573 ****         2.0000   6.2500  36.0000 Du        
   5574 ****         2.0000   6.2500  36.2500 Du        
   5575 ****         2.0000   6.2500  36.5000 Du        
   5576 ****         2.0000   6.2500  36.7500 Du        
   5577 ****         2.0000   6.2500  37.0000 Du        
   5578 ****         2.0000   6.2500  37.2500 Du        
   5579 ****         2.0000   6.2500  37.5000 Du        
   5580 ****         2.0000   6.2500  37.7500 Du        
   5581 ****         2.0000   6.2500  38.0000 Du        
   5582 ****         2.0000   6.5000  35.5000 Du        
   5583 ****         2.0000   6.5000  35.7500 Du        
   5584 ****         2.0000   6.5000  36.0000 Du        
   5585 ****         2.0000   6.5000  36.2500 Du        
   5586 ****         2.0000   6.5000  36.5000 Du        
   5587 ****         2.0000   6.5000  36.7500 Du        
   5588 ****         2.0000   6.5000  37.0000 Du        
   5589 ****         2.0000   6.5000  37.2500 Du        
   5590 ****         2.0000   6.5000  37.5000 Du        
   5591 ****         2.0000   6.5000  37.7500 Du        
   5592 ****         2.0000   6.5000  38.0000 Du        
   5593 ****         2.0000   6.7500  35.2500 Du        
   5594 ****         2.0000   6.7500  35.5000 Du        
   5595 ****         2.0000   6.7500  35.7500 Du        
   5596 ****         2.0000   6.7500  36.0000 Du        
   5597 ****         2.0000   6.7500  36.2500 Du        
   5598 ****         2.0000   6.7500  36.5000 Du        
   5599 ****         2.0000   6.7500  36.7500 Du        
   5600 ****         2.0000   6.7500  37.0000 Du        
   5601 ****         2.0000   6.7500  37.2500 Du        
   5602 ****         2.0000   6.7500  37.5000 Du        
   5603 ****         2.0000   6.7500  37.7500 Du        
   5604 ****         2.0000   6.7500  38.0000 Du        
   5605 ****         2.0000   7.0000  35.0000 Du        
   5606 ****         2.0000   7.0000  35.2500 Du        
   5607 ****         2.0000   7.0000  35.5000 Du        
   5608 ****         2.0000   7.0000  35.7500 Du        
   5609 ****         2.0000   7.0000  36.0000 Du        
   5610 ****         2.0000   7.0000  36.2500 Du        
   5611 ****         2.0000   7.0000  36.5000 Du        
   5612 ****         2.0000   7.0000  36.7500 Du        
   5613 ****         2.0000   7.0000  37.0000 Du        
   5614 ****         2.0000   7.0000  37.2500 Du        
   5615 ****         2.0000   7.0000  37.5000 Du        
   5616 ****         2.0000   7.0000  37.7500 Du        
   5617 ****         2.0000   7.2500  34.7500 Du        
   5618 ****         2.0000   7.2500  35.0000 Du        
   5619 ****         2.0000   7.2500  35.2500 Du        
   5620 ****         2.0000   7.2500  35.5000 Du        
   5621 ****         2.0000   7.2500  35.7500 Du        
   5622 ****         2.0000   7.2500  36.0000 Du        
   5623 ****         2.0000   7.2500  36.2500 Du        
   5624 ****         2.0000   7.2500  36.5000 Du        
   5625 ****         2.0000   7.2500  36.7500 Du        
   5626 ****         2.0000   7.2500  37.0000 Du        
   5627 ****         2.0000   7.2500  37.2500 Du        
   5628 ****         2.0000   7.5000  34.0000 Du        
   5629 ****         2.0000   7.5000  34.2500 Du        
   5630 ****         2.0000   7.5000  34.5000 Du        
   5631 ****         2.0000   7.5000  34.7500 Du        
   5632 ****         2.0000   7.5000  35.0000 Du        
   5633 ****         2.0000   7.5000  35.2500 Du        
   5634 ****         2.0000   7.5000  35.5000 Du        
   5635 ****         2.0000   7.5000  35.7500 Du        
   5636 ****         2.0000   7.5000  36.0000 Du        
   5637 ****         2.0000   7.5000  36.2500 Du        
   5638 ****         2.0000   7.5000  36.5000 Du        
   5639 ****         2.0000   7.5000  36.7500 Du        
   5640 ****         2.0000   7.7500  32.7500 Du        
   5641 ****         2.0000   7.7500  33.0000 Du        
   5642 ****         2.0000   7.7500  33.2500 Du        
   5643 ****         2.0000   7.7500  33.5000 Du        
   5644 ****         2.0000   7.7500  33.7500 Du        
   5645 ****         2.0000   7.7500  34.0000 Du        
   5646 ****         2.0000   7.7500  34.2500 Du        
   5647 ****         2.0000   7.7500  34.5000 Du        
   5648 ****         2.0000   7.7500  34.7500 Du        
   5649 ****         2.0000   7.7500  35.0000 Du        
   5650 ****         2.0000   7.7500  35.2500 Du        
   5651 ****         2.0000   7.7500  35.5000 Du        
   5652 ****         2.0000   7.7500  35.7500 Du        
   5653 ****         2.0000   7.7500  36.0000 Du        
   5654 ****         2.0000   7.7500  36.2500 Du        
   5655 ****         2.0000   8.0000  32.5000 Du        
   5656 ****         2.0000   8.0000  32.7500 Du        
   5657 ****         2.0000   8.0000  33.0000 Du        
   5658 ****         2.0000   8.0000  33.2500 Du        
   5659 ****         2.0000   8.0000  33.5000 Du        
   5660 ****         2.0000   8.0000  33.7500 Du        
   5661 ****         2.0000   8.0000  34.0000 Du        
   5662 ****         2.0000   8.0000  34.2500 Du        
   5663 ****         2.0000   8.0000  34.5000 Du        
   5664 ****         2.0000   8.0000  34.7500 Du        
   5665 ****         2.0000   8.0000  35.0000 Du        
   5666 ****         2.0000   8.0000  35.2500 Du        
   5667 ****         2.0000   8.2500  32.5000 Du        
   5668 ****         2.0000   8.2500  32.7500 Du        
   5669 ****         2.0000   8.2500  33.0000 Du        
   5670 ****         2.0000   8.2500  33.2500 Du        
   5671 ****         2.0000   8.2500  33.5000 Du        
   5672 ****         2.0000   8.2500  33.7500 Du        
   5673 ****         2.0000   8.2500  34.0000 Du        
   5674 ****         2.0000   8.2500  34.2500 Du        
   5675 ****         2.0000   8.2500  34.5000 Du        
   5676 ****         2.0000   8.2500  34.7500 Du        
   5677 ****         2.0000   8.2500  35.0000 Du        
   5678 ****         2.0000   8.5000  32.2500 Du        
   5679 ****         2.0000   8.5000  32.5000 Du        
   5680 ****         2.0000   8.5000  32.7500 Du        
   5681 ****         2.0000   8.5000  33.0000 Du        
   5682 ****         2.0000   8.5000  33.2500 Du        
   5683 ****         2.0000   8.5000  33.5000 Du        
   5684 ****         2.0000   8.5000  33.7500 Du        
   5685 ****         2.0000   8.5000  34.0000 Du        
   5686 ****         2.0000   8.5000  34.2500 Du        
   5687 ****         2.0000   8.5000  34.5000 Du        
   5688 ****         2.0000   8.7500  32.0000 Du        
   5689 ****         2.0000   8.7500  32.2500 Du        
   5690 ****         2.0000   8.7500  32.5000 Du        
   5691 ****         2.0000   8.7500  32.7500 Du        
   5692 ****         2.0000   8.7500  33.0000 Du        
   5693 ****         2.0000   8.7500  33.2500 Du        
   5694 ****         2.0000   8.7500  33.5000 Du        
   5695 ****         2.0000   8.7500  33.7500 Du        
   5696 ****         2.0000   8.7500  34.0000 Du        
   5697 ****         2.0000   8.7500  34.2500 Du        
   5698 ****         2.0000   9.0000  32.0000 Du        
   5699 ****         2.0000   9.0000  32.2500 Du        
   5700 ****         2.0000   9.0000  32.5000 Du        
   5701 ****         2.0000   9.0000  32.7500 Du        
   5702 ****         2.0000   9.0000  33.0000 Du        
   5703 ****         2.0000   9.0000  33.2500 Du        
   5704 ****         2.0000   9.0000  33.5000 Du        
   5705 ****         2.0000   9.0000  33.7500 Du        
   5706 ****         2.0000   9.0000  34.0000 Du        
   5707 ****         2.0000   9.0000  34.2500 Du        
   5708 ****         2.0000   9.2500  31.7500 Du        
   5709 ****         2.0000   9.2500  32.0000 Du        
   5710 ****         2.0000   9.2500  32.2500 Du        
   5711 ****         2.0000   9.2500  32.5000 Du        
   5712 ****         2.0000   9.2500  32.7500 Du        
   5713 ****         2.0000   9.2500  33.0000 Du        
   5714 ****         2.0000   9.2500  33.2500 Du        
   5715 ****         2.0000   9.2500  33.5000 Du        
   5716 ****         2.0000   9.2500  33.7500 Du        
   5717 ****         2.0000   9.2500  34.0000 Du        
   5718 ****         2.0000   9.5000  31.5000 Du        
   5719 ****         2.0000   9.5000  31.7500 Du        
   5720 ****         2.0000   9.5000  32.0000 Du        
   5721 ****         2.0000   9.5000  32.2500 Du        
   5722 ****         2.0000   9.5000  32.5000 Du        
   5723 ****         2.0000   9.5000  32.7500 Du        
   5724 ****         2.0000   9.5000  33.0000 Du        
   5725 ****         2.0000   9.5000  33.2500 Du        
   5726 ****         2.0000   9.5000  33.5000 Du        
   5727 ****         2.0000   9.5000  33.7500 Du        
   5728 ****         2.0000   9.5000  34.0000 Du        
   5729 ****         2.0000   9.7500  31.2500 Du        
   5730 ****         2.0000   9.7500  31.5000 Du        
   5731 ****         2.0000   9.7500  31.7500 Du        
   5732 ****         2.0000   9.7500  32.0000 Du        
   5733 ****         2.0000   9.7500  32.2500 Du        
   5734 ****         2.0000   9.7500  32.5000 Du        
   5735 ****         2.0000   9.7500  32.7500 Du        
   5736 ****         2.0000   9.7500  33.0000 Du        
   5737 ****         2.0000   9.7500  33.2500 Du        
   5738 ****         2.0000   9.7500  33.5000 Du        
   5739 ****         2.0000   9.7500  33.7500 Du        
   5740 ****         2.0000  10.0000  31.0000 Du        
   5741 ****         2.0000  10.0000  31.2500 Du        
   5742 ****         2.0000  10.0000  31.5000 Du        
   5743 ****         2.0000  10.0000  31.7500 Du        
   5744 ****         2.0000  10.0000  32.0000 Du        
   5745 ****         2.0000  10.0000  32.2500 Du        
   5746 ****         2.0000  10.0000  32.5000 Du        
   5747 ****         2.0000  10.0000  32.7500 Du        
   5748 ****         2.0000  10.0000  33.0000 Du        
   5749 ****         2.0000  10.0000  33.2500 Du        
   5750 ****         2.0000  10.0000  33.5000 Du        
   5751 ****         2.0000  10.0000  33.7500 Du        
   5752 ****         2.0000  10.2500  31.0000 Du        
   5753 ****         2.0000  10.2500  31.2500 Du        
   5754 ****         2.0000  10.2500  31.5000 Du        
   5755 ****         2.0000  10.2500  31.7500 Du        
   5756 ****         2.0000  10.2500  32.0000 Du        
   5757 ****         2.0000  10.2500  32.2500 Du        
   5758 ****         2.0000  10.2500  32.5000 Du        
   5759 ****         2.0000  10.2500  32.7500 Du        
   5760 ****         2.0000  10.2500  33.0000 Du        
   5761 ****         2.0000  10.2500  33.2500 Du        
   5762 ****         2.0000  10.2500  33.5000 Du        
   5763 ****         2.0000  10.2500  33.7500 Du        
   5764 ****         2.0000  10.5000  31.0000 Du        
   5765 ****         2.0000  10.5000  31.2500 Du        
   5766 ****         2.0000  10.5000  31.5000 Du        
   5767 ****         2.0000  10.5000  31.7500 Du        
   5768 ****         2.0000  10.5000  32.0000 Du        
   5769 ****         2.0000  10.5000  32.2500 Du        
   5770 ****         2.0000  10.5000  32.5000 Du        
   5771 ****         2.0000  10.5000  32.7500 Du        
   5772 ****         2.0000  10.5000  33.0000 Du        
   5773 ****         2.0000  10.5000  33.2500 Du        
   5774 ****         2.0000  10.5000  33.5000 Du        
   5775 ****         2.0000  10.5000  33.7500 Du        
   5776 ****         2.0000  10.7500  31.0000 Du        
   5777 ****         2.0000  10.7500  31.2500 Du        
   5778 ****         2.0000  10.7500  31.5000 Du        
   5779 ****         2.0000  10.7500  31.7500 Du        
   5780 ****         2.0000  10.7500  32.0000 Du        
   5781 ****         2.0000  10.7500  32.2500 Du        
   5782 ****         2.0000  10.7500  32.5000 Du        
   5783 ****         2.0000  10.7500  32.7500 Du        
   5784 ****         2.0000  10.7500  33.0000 Du        
   5785 ****         2.0000  10.7500  33.2500 Du        
   5786 ****         2.0000  10.7500  33.5000 Du        
   5787 ****         2.0000  10.7500  33.7500 Du        
   5788 ****         2.0000  11.0000  31.0000 Du        
   5789 ****         2.0000  11.0000  31.2500 Du        
   5790 ****         2.0000  11.0000  31.5000 Du        
   5791 ****         2.0000  11.0000  31.7500 Du        
   5792 ****         2.0000  11.0000  32.0000 Du        
   5793 ****         2.0000  11.0000  32.2500 Du        
   5794 ****         2.0000  11.0000  32.5000 Du        
   5795 ****         2.0000  11.0000  32.7500 Du        
   5796 ****         2.0000  11.0000  33.0000 Du        
   5797 ****         2.0000  11.0000  33.2500 Du        
   5798 ****         2.0000  11.0000  33.5000 Du        
   5799 ****         2.0000  11.0000  33.7500 Du        
   5800 ****         2.0000  11.2500  31.0000 Du        
   5801 ****         2.0000  11.2500  31.2500 Du        
   5802 ****         2.0000  11.2500  31.5000 Du        
   5803 ****         2.0000  11.2500  31.7500 Du        
   5804 ****         2.0000  11.2500  32.0000 Du        
   5805 ****         2.0000  11.2500  32.2500 Du        
   5806 ****         2.0000  11.2500  32.5000 Du        
   5807 ****         2.0000  11.2500  32.7500 Du        
   5808 ****         2.0000  11.2500  33.0000 Du        
   5809 ****         2.0000  11.2500  33.2500 Du        
   5810 ****         2.0000  11.2500  33.5000 Du        
   5811 ****         2.0000  11.5000  31.0000 Du        
   5812 ****         2.0000  11.5000  31.2500 Du        
   5813 ****         2.0000  11.5000  31.5000 Du        
   5814 ****         2.0000  11.5000  31.7500 Du        
   5815 ****         2.0000  11.5000  32.0000 Du        
   5816 ****         2.0000  11.5000  32.2500 Du        
   5817 ****         2.0000  11.5000  32.5000 Du        
   5818 ****         2.0000  11.5000  32.7500 Du        
   5819 ****         2.0000  11.5000  33.0000 Du        
   5820 ****         2.0000  11.5000  33.2500 Du        
   5821 ****         2.0000  11.5000  33.5000 Du        
   5822 ****         2.0000  11.7500  31.0000 Du        
   5823 ****         2.0000  11.7500  31.2500 Du        
   5824 ****         2.0000  11.7500  31.5000 Du        
   5825 ****         2.0000  11.7500  31.7500 Du        
   5826 ****         2.0000  11.7500  32.0000 Du        
   5827 ****         2.0000  11.7500  32.2500 Du        
   5828 ****         2.0000  11.7500  32.5000 Du        
   5829 ****         2.0000  11.7500  32.7500 Du        
   5830 ****         2.0000  11.7500  33.0000 Du        
   5831 ****         2.0000  11.7500  33.2500 Du        
   5832 ****         2.0000  11.7500  33.5000 Du        
   5833 ****         2.0000  12.0000  31.2500 Du        
   5834 ****         2.0000  12.0000  31.5000 Du        
   5835 ****         2.0000  12.0000  31.7500 Du        
   5836 ****         2.0000  12.0000  32.0000 Du        
   5837 ****         2.0000  12.0000  32.2500 Du        
   5838 ****         2.0000  12.0000  32.5000 Du        
   5839 ****         2.0000  12.0000  32.7500 Du        
   5840 ****         2.0000  12.0000  33.0000 Du        
   5841 ****         2.0000  12.0000  33.2500 Du        
   5842 ****         2.0000  12.2500  32.0000 Du        
   5843 ****         2.0000  12.2500  32.2500 Du        
   5844 ****         2.0000  22.5000  34.2500 Du        
   5845 ****         2.0000  22.5000  34.5000 Du        
   5846 ****         2.0000  22.5000  34.7500 Du        
   5847 ****         2.0000  22.5000  35.0000 Du        
   5848 ****         2.0000  22.7500  34.2500 Du        
   5849 ****         2.0000  22.7500  34.5000 Du        
   5850 ****         2.0000  22.7500  34.7500 Du        
   5851 ****         2.0000  23.0000  34.2500 Du        
   5852 ****         2.0000  23.0000  34.5000 Du        
   5853 ****         2.0000  23.0000  34.7500 Du        
   5854 ****         2.2500   0.0000  41.7500 Du        
   5855 ****         2.2500   0.0000  42.0000 Du        
   5856 ****         2.2500   0.0000  42.2500 Du        
   5857 ****         2.2500   0.0000  42.5000 Du        
   5858 ****         2.2500   0.0000  42.7500 Du        
   5859 ****         2.2500   0.0000  43.0000 Du        
   5860 ****         2.2500   0.0000  43.2500 Du        
   5861 ****         2.2500   0.0000  43.5000 Du        
   5862 ****         2.2500   0.0000  43.7500 Du        
   5863 ****         2.2500   0.0000  44.0000 Du        
   5864 ****         2.2500   0.0000  44.2500 Du        
   5865 ****         2.2500   0.0000  44.5000 Du        
   5866 ****         2.2500   0.0000  44.7500 Du        
   5867 ****         2.2500   0.0000  45.0000 Du        
   5868 ****         2.2500   0.0000  45.2500 Du        
   5869 ****         2.2500   0.2500  41.7500 Du        
   5870 ****         2.2500   0.2500  42.0000 Du        
   5871 ****         2.2500   0.2500  42.2500 Du        
   5872 ****         2.2500   0.2500  42.5000 Du        
   5873 ****         2.2500   0.2500  42.7500 Du        
   5874 ****         2.2500   0.2500  43.0000 Du        
   5875 ****         2.2500   0.2500  43.2500 Du        
   5876 ****         2.2500   0.2500  43.5000 Du        
   5877 ****         2.2500   0.2500  43.7500 Du        
   5878 ****         2.2500   0.2500  44.0000 Du        
   5879 ****         2.2500   0.2500  44.2500 Du        
   5880 ****         2.2500   0.2500  44.5000 Du        
   5881 ****         2.2500   0.2500  44.7500 Du        
   5882 ****         2.2500   0.2500  45.0000 Du        
   5883 ****         2.2500   0.2500  45.2500 Du        
   5884 ****         2.2500   0.5000  42.2500 Du        
   5885 ****         2.2500   0.5000  42.5000 Du        
   5886 ****         2.2500   0.5000  42.7500 Du        
   5887 ****         2.2500   0.5000  43.0000 Du        
   5888 ****         2.2500   0.5000  43.2500 Du        
   5889 ****         2.2500   0.5000  43.5000 Du        
   5890 ****         2.2500   0.5000  43.7500 Du        
   5891 ****         2.2500   0.5000  44.0000 Du        
   5892 ****         2.2500   0.5000  44.2500 Du        
   5893 ****         2.2500   0.5000  44.5000 Du        
   5894 ****         2.2500   0.5000  44.7500 Du        
   5895 ****         2.2500   0.5000  45.0000 Du        
   5896 ****         2.2500   0.5000  45.2500 Du        
   5897 ****         2.2500   0.7500  42.7500 Du        
   5898 ****         2.2500   0.7500  43.0000 Du        
   5899 ****         2.2500   0.7500  43.2500 Du        
   5900 ****         2.2500   0.7500  43.5000 Du        
   5901 ****         2.2500   0.7500  43.7500 Du        
   5902 ****         2.2500   0.7500  44.0000 Du        
   5903 ****         2.2500   0.7500  44.2500 Du        
   5904 ****         2.2500   0.7500  44.5000 Du        
   5905 ****         2.2500   0.7500  44.7500 Du        
   5906 ****         2.2500   0.7500  45.0000 Du        
   5907 ****         2.2500   0.7500  45.2500 Du        
   5908 ****         2.2500   1.0000  43.2500 Du        
   5909 ****         2.2500   1.0000  43.5000 Du        
   5910 ****         2.2500   1.0000  43.7500 Du        
   5911 ****         2.2500   1.0000  44.0000 Du        
   5912 ****         2.2500   1.0000  44.2500 Du        
   5913 ****         2.2500   1.0000  44.5000 Du        
   5914 ****         2.2500   1.0000  44.7500 Du        
   5915 ****         2.2500   1.0000  45.0000 Du        
   5916 ****         2.2500   1.2500  43.7500 Du        
   5917 ****         2.2500   1.2500  44.0000 Du        
   5918 ****         2.2500   1.2500  44.2500 Du        
   5919 ****         2.2500   1.2500  44.5000 Du        
   5920 ****         2.2500   4.7500  37.0000 Du        
   5921 ****         2.2500   4.7500  37.2500 Du        
   5922 ****         2.2500   5.0000  36.5000 Du        
   5923 ****         2.2500   5.0000  36.7500 Du        
   5924 ****         2.2500   5.0000  37.0000 Du        
   5925 ****         2.2500   5.0000  37.2500 Du        
   5926 ****         2.2500   5.0000  37.5000 Du        
   5927 ****         2.2500   5.2500  36.2500 Du        
   5928 ****         2.2500   5.2500  36.5000 Du        
   5929 ****         2.2500   5.2500  36.7500 Du        
   5930 ****         2.2500   5.2500  37.0000 Du        
   5931 ****         2.2500   5.2500  37.2500 Du        
   5932 ****         2.2500   5.2500  37.5000 Du        
   5933 ****         2.2500   5.5000  36.2500 Du        
   5934 ****         2.2500   5.5000  36.5000 Du        
   5935 ****         2.2500   5.5000  36.7500 Du        
   5936 ****         2.2500   5.5000  37.0000 Du        
   5937 ****         2.2500   5.5000  37.2500 Du        
   5938 ****         2.2500   5.5000  37.5000 Du        
   5939 ****         2.2500   5.5000  37.7500 Du        
   5940 ****         2.2500   5.7500  36.0000 Du        
   5941 ****         2.2500   5.7500  36.2500 Du        
   5942 ****         2.2500   5.7500  36.5000 Du        
   5943 ****         2.2500   5.7500  36.7500 Du        
   5944 ****         2.2500   5.7500  37.0000 Du        
   5945 ****         2.2500   5.7500  37.2500 Du        
   5946 ****         2.2500   5.7500  37.5000 Du        
   5947 ****         2.2500   5.7500  37.7500 Du        
   5948 ****         2.2500   6.0000  36.0000 Du        
   5949 ****         2.2500   6.0000  36.2500 Du        
   5950 ****         2.2500   6.0000  36.5000 Du        
   5951 ****         2.2500   6.0000  36.7500 Du        
   5952 ****         2.2500   6.0000  37.0000 Du        
   5953 ****         2.2500   6.0000  37.2500 Du        
   5954 ****         2.2500   6.0000  37.5000 Du        
   5955 ****         2.2500   6.0000  37.7500 Du        
   5956 ****         2.2500   6.0000  38.0000 Du        
   5957 ****         2.2500   6.2500  35.7500 Du        
   5958 ****         2.2500   6.2500  36.0000 Du        
   5959 ****         2.2500   6.2500  36.2500 Du        
   5960 ****         2.2500   6.2500  36.5000 Du        
   5961 ****         2.2500   6.2500  36.7500 Du        
   5962 ****         2.2500   6.2500  37.0000 Du        
   5963 ****         2.2500   6.2500  37.2500 Du        
   5964 ****         2.2500   6.2500  37.5000 Du        
   5965 ****         2.2500   6.2500  37.7500 Du        
   5966 ****         2.2500   6.2500  38.0000 Du        
   5967 ****         2.2500   6.5000  35.5000 Du        
   5968 ****         2.2500   6.5000  35.7500 Du        
   5969 ****         2.2500   6.5000  36.0000 Du        
   5970 ****         2.2500   6.5000  36.2500 Du        
   5971 ****         2.2500   6.5000  36.5000 Du        
   5972 ****         2.2500   6.5000  36.7500 Du        
   5973 ****         2.2500   6.5000  37.0000 Du        
   5974 ****         2.2500   6.5000  37.2500 Du        
   5975 ****         2.2500   6.5000  37.5000 Du        
   5976 ****         2.2500   6.5000  37.7500 Du        
   5977 ****         2.2500   6.5000  38.0000 Du        
   5978 ****         2.2500   6.7500  35.2500 Du        
   5979 ****         2.2500   6.7500  35.5000 Du        
   5980 ****         2.2500   6.7500  35.7500 Du        
   5981 ****         2.2500   6.7500  36.0000 Du        
   5982 ****         2.2500   6.7500  36.2500 Du        
   5983 ****         2.2500   6.7500  36.5000 Du        
   5984 ****         2.2500   6.7500  36.7500 Du        
   5985 ****         2.2500   6.7500  37.0000 Du        
   5986 ****         2.2500   6.7500  37.2500 Du        
   5987 ****         2.2500   6.7500  37.5000 Du        
   5988 ****         2.2500   6.7500  37.7500 Du        
   5989 ****         2.2500   6.7500  38.0000 Du        
   5990 ****         2.2500   7.0000  35.0000 Du        
   5991 ****         2.2500   7.0000  35.2500 Du        
   5992 ****         2.2500   7.0000  35.5000 Du        
   5993 ****         2.2500   7.0000  35.7500 Du        
   5994 ****         2.2500   7.0000  36.0000 Du        
   5995 ****         2.2500   7.0000  36.2500 Du        
   5996 ****         2.2500   7.0000  36.5000 Du        
   5997 ****         2.2500   7.0000  36.7500 Du        
   5998 ****         2.2500   7.0000  37.0000 Du        
   5999 ****         2.2500   7.0000  37.2500 Du        
   6000 ****         2.2500   7.0000  37.5000 Du        
   6001 ****         2.2500   7.0000  37.7500 Du        
   6002 ****         2.2500   7.0000  38.0000 Du        
   6003 ****         2.2500   7.2500  34.7500 Du        
   6004 ****         2.2500   7.2500  35.0000 Du        
   6005 ****         2.2500   7.2500  35.2500 Du        
   6006 ****         2.2500   7.2500  35.5000 Du        
   6007 ****         2.2500   7.2500  35.7500 Du        
   6008 ****         2.2500   7.2500  36.0000 Du        
   6009 ****         2.2500   7.2500  36.2500 Du        
   6010 ****         2.2500   7.2500  36.5000 Du        
   6011 ****         2.2500   7.2500  36.7500 Du        
   6012 ****         2.2500   7.2500  37.0000 Du        
   6013 ****         2.2500   7.2500  37.2500 Du        
   6014 ****         2.2500   7.2500  37.5000 Du        
   6015 ****         2.2500   7.2500  37.7500 Du        
   6016 ****         2.2500   7.5000  34.2500 Du        
   6017 ****         2.2500   7.5000  34.5000 Du        
   6018 ****         2.2500   7.5000  34.7500 Du        
   6019 ****         2.2500   7.5000  35.0000 Du        
   6020 ****         2.2500   7.5000  35.2500 Du        
   6021 ****         2.2500   7.5000  35.5000 Du        
   6022 ****         2.2500   7.5000  35.7500 Du        
   6023 ****         2.2500   7.5000  36.0000 Du        
   6024 ****         2.2500   7.5000  36.2500 Du        
   6025 ****         2.2500   7.5000  36.5000 Du        
   6026 ****         2.2500   7.5000  36.7500 Du        
   6027 ****         2.2500   7.5000  37.0000 Du        
   6028 ****         2.2500   7.7500  33.0000 Du        
   6029 ****         2.2500   7.7500  33.2500 Du        
   6030 ****         2.2500   7.7500  33.5000 Du        
   6031 ****         2.2500   7.7500  33.7500 Du        
   6032 ****         2.2500   7.7500  34.0000 Du        
   6033 ****         2.2500   7.7500  34.2500 Du        
   6034 ****         2.2500   7.7500  34.5000 Du        
   6035 ****         2.2500   7.7500  34.7500 Du        
   6036 ****         2.2500   7.7500  35.0000 Du        
   6037 ****         2.2500   7.7500  35.2500 Du        
   6038 ****         2.2500   7.7500  35.5000 Du        
   6039 ****         2.2500   7.7500  35.7500 Du        
   6040 ****         2.2500   7.7500  36.0000 Du        
   6041 ****         2.2500   7.7500  36.2500 Du        
   6042 ****         2.2500   7.7500  36.5000 Du        
   6043 ****         2.2500   8.0000  32.7500 Du        
   6044 ****         2.2500   8.0000  33.0000 Du        
   6045 ****         2.2500   8.0000  33.2500 Du        
   6046 ****         2.2500   8.0000  33.5000 Du        
   6047 ****         2.2500   8.0000  33.7500 Du        
   6048 ****         2.2500   8.0000  34.0000 Du        
   6049 ****         2.2500   8.0000  34.2500 Du        
   6050 ****         2.2500   8.0000  34.5000 Du        
   6051 ****         2.2500   8.0000  34.7500 Du        
   6052 ****         2.2500   8.0000  35.0000 Du        
   6053 ****         2.2500   8.0000  35.2500 Du        
   6054 ****         2.2500   8.0000  35.5000 Du        
   6055 ****         2.2500   8.2500  32.5000 Du        
   6056 ****         2.2500   8.2500  32.7500 Du        
   6057 ****         2.2500   8.2500  33.0000 Du        
   6058 ****         2.2500   8.2500  33.2500 Du        
   6059 ****         2.2500   8.2500  33.5000 Du        
   6060 ****         2.2500   8.2500  33.7500 Du        
   6061 ****         2.2500   8.2500  34.0000 Du        
   6062 ****         2.2500   8.2500  34.2500 Du        
   6063 ****         2.2500   8.2500  34.5000 Du        
   6064 ****         2.2500   8.2500  34.7500 Du        
   6065 ****         2.2500   8.2500  35.0000 Du        
   6066 ****         2.2500   8.5000  32.5000 Du        
   6067 ****         2.2500   8.5000  32.7500 Du        
   6068 ****         2.2500   8.5000  33.0000 Du        
   6069 ****         2.2500   8.5000  33.2500 Du        
   6070 ****         2.2500   8.5000  33.5000 Du        
   6071 ****         2.2500   8.5000  33.7500 Du        
   6072 ****         2.2500   8.5000  34.0000 Du        
   6073 ****         2.2500   8.5000  34.2500 Du        
   6074 ****         2.2500   8.5000  34.5000 Du        
   6075 ****         2.2500   8.7500  32.2500 Du        
   6076 ****         2.2500   8.7500  32.5000 Du        
   6077 ****         2.2500   8.7500  32.7500 Du        
   6078 ****         2.2500   8.7500  33.0000 Du        
   6079 ****         2.2500   8.7500  33.2500 Du        
   6080 ****         2.2500   8.7500  33.5000 Du        
   6081 ****         2.2500   8.7500  33.7500 Du        
   6082 ****         2.2500   8.7500  34.0000 Du        
   6083 ****         2.2500   8.7500  34.2500 Du        
   6084 ****         2.2500   9.0000  32.0000 Du        
   6085 ****         2.2500   9.0000  32.2500 Du        
   6086 ****         2.2500   9.0000  32.5000 Du        
   6087 ****         2.2500   9.0000  32.7500 Du        
   6088 ****         2.2500   9.0000  33.0000 Du        
   6089 ****         2.2500   9.0000  33.2500 Du        
   6090 ****         2.2500   9.0000  33.5000 Du        
   6091 ****         2.2500   9.0000  33.7500 Du        
   6092 ****         2.2500   9.0000  34.0000 Du        
   6093 ****         2.2500   9.0000  34.2500 Du        
   6094 ****         2.2500   9.2500  32.0000 Du        
   6095 ****         2.2500   9.2500  32.2500 Du        
   6096 ****         2.2500   9.2500  32.5000 Du        
   6097 ****         2.2500   9.2500  32.7500 Du        
   6098 ****         2.2500   9.2500  33.0000 Du        
   6099 ****         2.2500   9.2500  33.2500 Du        
   6100 ****         2.2500   9.2500  33.5000 Du        
   6101 ****         2.2500   9.2500  33.7500 Du        
   6102 ****         2.2500   9.2500  34.0000 Du        
   6103 ****         2.2500   9.5000  31.7500 Du        
   6104 ****         2.2500   9.5000  32.0000 Du        
   6105 ****         2.2500   9.5000  32.2500 Du        
   6106 ****         2.2500   9.5000  32.5000 Du        
   6107 ****         2.2500   9.5000  32.7500 Du        
   6108 ****         2.2500   9.5000  33.0000 Du        
   6109 ****         2.2500   9.5000  33.2500 Du        
   6110 ****         2.2500   9.5000  33.5000 Du        
   6111 ****         2.2500   9.5000  33.7500 Du        
   6112 ****         2.2500   9.5000  34.0000 Du        
   6113 ****         2.2500   9.7500  31.5000 Du        
   6114 ****         2.2500   9.7500  31.7500 Du        
   6115 ****         2.2500   9.7500  32.0000 Du        
   6116 ****         2.2500   9.7500  32.2500 Du        
   6117 ****         2.2500   9.7500  32.5000 Du        
   6118 ****         2.2500   9.7500  32.7500 Du        
   6119 ****         2.2500   9.7500  33.0000 Du        
   6120 ****         2.2500   9.7500  33.2500 Du        
   6121 ****         2.2500   9.7500  33.5000 Du        
   6122 ****         2.2500   9.7500  33.7500 Du        
   6123 ****         2.2500  10.0000  31.2500 Du        
   6124 ****         2.2500  10.0000  31.5000 Du        
   6125 ****         2.2500  10.0000  31.7500 Du        
   6126 ****         2.2500  10.0000  32.0000 Du        
   6127 ****         2.2500  10.0000  32.2500 Du        
   6128 ****         2.2500  10.0000  32.5000 Du        
   6129 ****         2.2500  10.0000  32.7500 Du        
   6130 ****         2.2500  10.0000  33.0000 Du        
   6131 ****         2.2500  10.0000  33.2500 Du        
   6132 ****         2.2500  10.0000  33.5000 Du        
   6133 ****         2.2500  10.0000  33.7500 Du        
   6134 ****         2.2500  10.2500  31.0000 Du        
   6135 ****         2.2500  10.2500  31.2500 Du        
   6136 ****         2.2500  10.2500  31.5000 Du        
   6137 ****         2.2500  10.2500  31.7500 Du        
   6138 ****         2.2500  10.2500  32.0000 Du        
   6139 ****         2.2500  10.2500  32.2500 Du        
   6140 ****         2.2500  10.2500  32.5000 Du        
   6141 ****         2.2500  10.2500  32.7500 Du        
   6142 ****         2.2500  10.2500  33.0000 Du        
   6143 ****         2.2500  10.2500  33.2500 Du        
   6144 ****         2.2500  10.2500  33.5000 Du        
   6145 ****         2.2500  10.2500  33.7500 Du        
   6146 ****         2.2500  10.5000  31.0000 Du        
   6147 ****         2.2500  10.5000  31.2500 Du        
   6148 ****         2.2500  10.5000  31.5000 Du        
   6149 ****         2.2500  10.5000  31.7500 Du        
   6150 ****         2.2500  10.5000  32.0000 Du        
   6151 ****         2.2500  10.5000  32.2500 Du        
   6152 ****         2.2500  10.5000  32.5000 Du        
   6153 ****         2.2500  10.5000  32.7500 Du        
   6154 ****         2.2500  10.5000  33.0000 Du        
   6155 ****         2.2500  10.5000  33.2500 Du        
   6156 ****         2.2500  10.5000  33.5000 Du        
   6157 ****         2.2500  10.5000  33.7500 Du        
   6158 ****         2.2500  10.7500  31.0000 Du        
   6159 ****         2.2500  10.7500  31.2500 Du        
   6160 ****         2.2500  10.7500  31.5000 Du        
   6161 ****         2.2500  10.7500  31.7500 Du        
   6162 ****         2.2500  10.7500  32.0000 Du        
   6163 ****         2.2500  10.7500  32.2500 Du        
   6164 ****         2.2500  10.7500  32.5000 Du        
   6165 ****         2.2500  10.7500  32.7500 Du        
   6166 ****         2.2500  10.7500  33.0000 Du        
   6167 ****         2.2500  10.7500  33.2500 Du        
   6168 ****         2.2500  10.7500  33.5000 Du        
   6169 ****         2.2500  10.7500  33.7500 Du        
   6170 ****         2.2500  11.0000  31.0000 Du        
   6171 ****         2.2500  11.0000  31.2500 Du        
   6172 ****         2.2500  11.0000  31.5000 Du        
   6173 ****         2.2500  11.0000  31.7500 Du        
   6174 ****         2.2500  11.0000  32.0000 Du        
   6175 ****         2.2500  11.0000  32.2500 Du        
   6176 ****         2.2500  11.0000  32.5000 Du        
   6177 ****         2.2500  11.0000  32.7500 Du        
   6178 ****         2.2500  11.0000  33.0000 Du        
   6179 ****         2.2500  11.0000  33.2500 Du        
   6180 ****         2.2500  11.0000  33.5000 Du        
   6181 ****         2.2500  11.0000  33.7500 Du        
   6182 ****         2.2500  11.2500  31.0000 Du        
   6183 ****         2.2500  11.2500  31.2500 Du        
   6184 ****         2.2500  11.2500  31.5000 Du        
   6185 ****         2.2500  11.2500  31.7500 Du        
   6186 ****         2.2500  11.2500  32.0000 Du        
   6187 ****         2.2500  11.2500  32.2500 Du        
   6188 ****         2.2500  11.2500  32.5000 Du        
   6189 ****         2.2500  11.2500  32.7500 Du        
   6190 ****         2.2500  11.2500  33.0000 Du        
   6191 ****         2.2500  11.2500  33.2500 Du        
   6192 ****         2.2500  11.2500  33.5000 Du        
   6193 ****         2.2500  11.2500  33.7500 Du        
   6194 ****         2.2500  11.5000  31.0000 Du        
   6195 ****         2.2500  11.5000  31.2500 Du        
   6196 ****         2.2500  11.5000  31.5000 Du        
   6197 ****         2.2500  11.5000  31.7500 Du        
   6198 ****         2.2500  11.5000  32.0000 Du        
   6199 ****         2.2500  11.5000  32.2500 Du        
   6200 ****         2.2500  11.5000  32.5000 Du        
   6201 ****         2.2500  11.5000  32.7500 Du        
   6202 ****         2.2500  11.5000  33.0000 Du        
   6203 ****         2.2500  11.5000  33.2500 Du        
   6204 ****         2.2500  11.5000  33.5000 Du        
   6205 ****         2.2500  11.7500  31.0000 Du        
   6206 ****         2.2500  11.7500  31.2500 Du        
   6207 ****         2.2500  11.7500  31.5000 Du        
   6208 ****         2.2500  11.7500  31.7500 Du        
   6209 ****         2.2500  11.7500  32.0000 Du        
   6210 ****         2.2500  11.7500  32.2500 Du        
   6211 ****         2.2500  11.7500  32.5000 Du        
   6212 ****         2.2500  11.7500  32.7500 Du        
   6213 ****         2.2500  11.7500  33.0000 Du        
   6214 ****         2.2500  11.7500  33.2500 Du        
   6215 ****         2.2500  11.7500  33.5000 Du        
   6216 ****         2.2500  12.0000  31.0000 Du        
   6217 ****         2.2500  12.0000  31.2500 Du        
   6218 ****         2.2500  12.0000  31.5000 Du        
   6219 ****         2.2500  12.0000  31.7500 Du        
   6220 ****         2.2500  12.0000  32.0000 Du        
   6221 ****         2.2500  12.0000  32.2500 Du        
   6222 ****         2.2500  12.0000  32.5000 Du        
   6223 ****         2.2500  12.0000  32.7500 Du        
   6224 ****         2.2500  12.0000  33.0000 Du        
   6225 ****         2.2500  12.0000  33.2500 Du        
   6226 ****         2.2500  12.2500  31.2500 Du        
   6227 ****         2.2500  12.2500  31.5000 Du        
   6228 ****         2.2500  12.2500  31.7500 Du        
   6229 ****         2.2500  12.2500  32.0000 Du        
   6230 ****         2.2500  12.2500  32.2500 Du        
   6231 ****         2.2500  12.2500  32.5000 Du        
   6232 ****         2.2500  12.2500  32.7500 Du        
   6233 ****         2.2500  12.2500  33.0000 Du        
   6234 ****         2.2500  22.2500  35.0000 Du        
   6235 ****         2.2500  22.5000  34.2500 Du        
   6236 ****         2.2500  22.5000  34.5000 Du        
   6237 ****         2.2500  22.5000  34.7500 Du        
   6238 ****         2.2500  22.5000  35.0000 Du        
   6239 ****         2.2500  22.5000  35.2500 Du        
   6240 ****         2.2500  22.7500  34.2500 Du        
   6241 ****         2.2500  22.7500  34.5000 Du        
   6242 ****         2.2500  22.7500  34.7500 Du        
   6243 ****         2.2500  22.7500  35.0000 Du        
   6244 ****         2.2500  23.0000  34.2500 Du        
   6245 ****         2.2500  23.0000  34.5000 Du        
   6246 ****         2.2500  23.0000  34.7500 Du        
   6247 ****         2.2500  23.2500  34.5000 Du        
   6248 ****         2.5000   0.0000  42.5000 Du        
   6249 ****         2.5000   0.0000  42.7500 Du        
   6250 ****         2.5000   0.0000  43.0000 Du        
   6251 ****         2.5000   0.0000  43.2500 Du        
   6252 ****         2.5000   0.0000  43.5000 Du        
   6253 ****         2.5000   0.0000  43.7500 Du        
   6254 ****         2.5000   0.0000  44.0000 Du        
   6255 ****         2.5000   0.0000  44.2500 Du        
   6256 ****         2.5000   0.0000  44.5000 Du        
   6257 ****         2.5000   0.0000  44.7500 Du        
   6258 ****         2.5000   0.0000  45.0000 Du        
   6259 ****         2.5000   0.0000  45.2500 Du        
   6260 ****         2.5000   0.2500  42.7500 Du        
   6261 ****         2.5000   0.2500  43.0000 Du        
   6262 ****         2.5000   0.2500  43.2500 Du        
   6263 ****         2.5000   0.2500  43.5000 Du        
   6264 ****         2.5000   0.2500  43.7500 Du        
   6265 ****         2.5000   0.2500  44.0000 Du        
   6266 ****         2.5000   0.2500  44.2500 Du        
   6267 ****         2.5000   0.2500  44.5000 Du        
   6268 ****         2.5000   0.2500  44.7500 Du        
   6269 ****         2.5000   0.2500  45.0000 Du        
   6270 ****         2.5000   0.5000  42.7500 Du        
   6271 ****         2.5000   0.5000  43.0000 Du        
   6272 ****         2.5000   0.5000  43.2500 Du        
   6273 ****         2.5000   0.5000  43.5000 Du        
   6274 ****         2.5000   0.5000  43.7500 Du        
   6275 ****         2.5000   0.5000  44.0000 Du        
   6276 ****         2.5000   0.5000  44.2500 Du        
   6277 ****         2.5000   0.5000  44.5000 Du        
   6278 ****         2.5000   0.5000  44.7500 Du        
   6279 ****         2.5000   0.7500  43.2500 Du        
   6280 ****         2.5000   0.7500  43.5000 Du        
   6281 ****         2.5000   0.7500  43.7500 Du        
   6282 ****         2.5000   0.7500  44.0000 Du        
   6283 ****         2.5000   0.7500  44.2500 Du        
   6284 ****         2.5000   0.7500  44.5000 Du        
   6285 ****         2.5000   1.0000  43.7500 Du        
   6286 ****         2.5000   1.0000  44.0000 Du        
   6287 ****         2.5000   1.0000  44.2500 Du        
   6288 ****         2.5000   5.0000  37.0000 Du        
   6289 ****         2.5000   5.0000  37.2500 Du        
   6290 ****         2.5000   5.0000  37.5000 Du        
   6291 ****         2.5000   5.2500  36.5000 Du        
   6292 ****         2.5000   5.2500  36.7500 Du        
   6293 ****         2.5000   5.2500  37.0000 Du        
   6294 ****         2.5000   5.2500  37.2500 Du        
   6295 ****         2.5000   5.2500  37.5000 Du        
   6296 ****         2.5000   5.5000  36.2500 Du        
   6297 ****         2.5000   5.5000  36.5000 Du        
   6298 ****         2.5000   5.5000  36.7500 Du        
   6299 ****         2.5000   5.5000  37.0000 Du        
   6300 ****         2.5000   5.5000  37.2500 Du        
   6301 ****         2.5000   5.5000  37.5000 Du        
   6302 ****         2.5000   5.5000  37.7500 Du        
   6303 ****         2.5000   5.7500  36.2500 Du        
   6304 ****         2.5000   5.7500  36.5000 Du        
   6305 ****         2.5000   5.7500  36.7500 Du        
   6306 ****         2.5000   5.7500  37.0000 Du        
   6307 ****         2.5000   5.7500  37.2500 Du        
   6308 ****         2.5000   5.7500  37.5000 Du        
   6309 ****         2.5000   5.7500  37.7500 Du        
   6310 ****         2.5000   6.0000  36.0000 Du        
   6311 ****         2.5000   6.0000  36.2500 Du        
   6312 ****         2.5000   6.0000  36.5000 Du        
   6313 ****         2.5000   6.0000  36.7500 Du        
   6314 ****         2.5000   6.0000  37.0000 Du        
   6315 ****         2.5000   6.0000  37.2500 Du        
   6316 ****         2.5000   6.0000  37.5000 Du        
   6317 ****         2.5000   6.0000  37.7500 Du        
   6318 ****         2.5000   6.0000  38.0000 Du        
   6319 ****         2.5000   6.2500  35.7500 Du        
   6320 ****         2.5000   6.2500  36.0000 Du        
   6321 ****         2.5000   6.2500  36.2500 Du        
   6322 ****         2.5000   6.2500  36.5000 Du        
   6323 ****         2.5000   6.2500  36.7500 Du        
   6324 ****         2.5000   6.2500  37.0000 Du        
   6325 ****         2.5000   6.2500  37.2500 Du        
   6326 ****         2.5000   6.2500  37.5000 Du        
   6327 ****         2.5000   6.2500  37.7500 Du        
   6328 ****         2.5000   6.2500  38.0000 Du        
   6329 ****         2.5000   6.5000  35.7500 Du        
   6330 ****         2.5000   6.5000  36.0000 Du        
   6331 ****         2.5000   6.5000  36.2500 Du        
   6332 ****         2.5000   6.5000  36.5000 Du        
   6333 ****         2.5000   6.5000  36.7500 Du        
   6334 ****         2.5000   6.5000  37.0000 Du        
   6335 ****         2.5000   6.5000  37.2500 Du        
   6336 ****         2.5000   6.5000  37.5000 Du        
   6337 ****         2.5000   6.5000  37.7500 Du        
   6338 ****         2.5000   6.5000  38.0000 Du        
   6339 ****         2.5000   6.7500  35.5000 Du        
   6340 ****         2.5000   6.7500  35.7500 Du        
   6341 ****         2.5000   6.7500  36.0000 Du        
   6342 ****         2.5000   6.7500  36.2500 Du        
   6343 ****         2.5000   6.7500  36.5000 Du        
   6344 ****         2.5000   6.7500  36.7500 Du        
   6345 ****         2.5000   6.7500  37.0000 Du        
   6346 ****         2.5000   6.7500  37.2500 Du        
   6347 ****         2.5000   6.7500  37.5000 Du        
   6348 ****         2.5000   6.7500  37.7500 Du        
   6349 ****         2.5000   6.7500  38.0000 Du        
   6350 ****         2.5000   6.7500  38.2500 Du        
   6351 ****         2.5000   7.0000  35.2500 Du        
   6352 ****         2.5000   7.0000  35.5000 Du        
   6353 ****         2.5000   7.0000  35.7500 Du        
   6354 ****         2.5000   7.0000  36.0000 Du        
   6355 ****         2.5000   7.0000  36.2500 Du        
   6356 ****         2.5000   7.0000  36.5000 Du        
   6357 ****         2.5000   7.0000  36.7500 Du        
   6358 ****         2.5000   7.0000  37.0000 Du        
   6359 ****         2.5000   7.0000  37.2500 Du        
   6360 ****         2.5000   7.0000  37.5000 Du        
   6361 ****         2.5000   7.0000  37.7500 Du        
   6362 ****         2.5000   7.0000  38.0000 Du        
   6363 ****         2.5000   7.0000  38.2500 Du        
   6364 ****         2.5000   7.2500  35.0000 Du        
   6365 ****         2.5000   7.2500  35.2500 Du        
   6366 ****         2.5000   7.2500  35.5000 Du        
   6367 ****         2.5000   7.2500  35.7500 Du        
   6368 ****         2.5000   7.2500  36.0000 Du        
   6369 ****         2.5000   7.2500  36.2500 Du        
   6370 ****         2.5000   7.2500  36.5000 Du        
   6371 ****         2.5000   7.2500  36.7500 Du        
   6372 ****         2.5000   7.2500  37.0000 Du        
   6373 ****         2.5000   7.2500  37.2500 Du        
   6374 ****         2.5000   7.2500  37.5000 Du        
   6375 ****         2.5000   7.2500  37.7500 Du        
   6376 ****         2.5000   7.2500  38.0000 Du        
   6377 ****         2.5000   7.5000  34.7500 Du        
   6378 ****         2.5000   7.5000  35.0000 Du        
   6379 ****         2.5000   7.5000  35.2500 Du        
   6380 ****         2.5000   7.5000  35.5000 Du        
   6381 ****         2.5000   7.5000  35.7500 Du        
   6382 ****         2.5000   7.5000  36.0000 Du        
   6383 ****         2.5000   7.5000  36.2500 Du        
   6384 ****         2.5000   7.5000  36.5000 Du        
   6385 ****         2.5000   7.5000  36.7500 Du        
   6386 ****         2.5000   7.5000  37.0000 Du        
   6387 ****         2.5000   7.5000  37.2500 Du        
   6388 ****         2.5000   7.5000  37.5000 Du        
   6389 ****         2.5000   7.7500  34.5000 Du        
   6390 ****         2.5000   7.7500  34.7500 Du        
   6391 ****         2.5000   7.7500  35.0000 Du        
   6392 ****         2.5000   7.7500  35.2500 Du        
   6393 ****         2.5000   7.7500  35.5000 Du        
   6394 ****         2.5000   7.7500  35.7500 Du        
   6395 ****         2.5000   7.7500  36.0000 Du        
   6396 ****         2.5000   7.7500  36.2500 Du        
   6397 ****         2.5000   7.7500  36.5000 Du        
   6398 ****         2.5000   7.7500  36.7500 Du        
   6399 ****         2.5000   8.0000  34.2500 Du        
   6400 ****         2.5000   8.0000  34.5000 Du        
   6401 ****         2.5000   8.0000  34.7500 Du        
   6402 ****         2.5000   8.0000  35.0000 Du        
   6403 ****         2.5000   8.0000  35.2500 Du        
   6404 ****         2.5000   8.0000  35.5000 Du        
   6405 ****         2.5000   8.0000  35.7500 Du        
   6406 ****         2.5000   8.2500  33.0000 Du        
   6407 ****         2.5000   8.2500  33.2500 Du        
   6408 ****         2.5000   8.2500  33.5000 Du        
   6409 ****         2.5000   8.2500  33.7500 Du        
   6410 ****         2.5000   8.2500  34.0000 Du        
   6411 ****         2.5000   8.2500  34.2500 Du        
   6412 ****         2.5000   8.2500  34.5000 Du        
   6413 ****         2.5000   8.2500  34.7500 Du        
   6414 ****         2.5000   8.2500  35.0000 Du        
   6415 ****         2.5000   8.5000  32.7500 Du        
   6416 ****         2.5000   8.5000  33.0000 Du        
   6417 ****         2.5000   8.5000  33.2500 Du        
   6418 ****         2.5000   8.5000  33.5000 Du        
   6419 ****         2.5000   8.5000  33.7500 Du        
   6420 ****         2.5000   8.5000  34.0000 Du        
   6421 ****         2.5000   8.5000  34.2500 Du        
   6422 ****         2.5000   8.5000  34.5000 Du        
   6423 ****         2.5000   8.7500  32.5000 Du        
   6424 ****         2.5000   8.7500  32.7500 Du        
   6425 ****         2.5000   8.7500  33.0000 Du        
   6426 ****         2.5000   8.7500  33.2500 Du        
   6427 ****         2.5000   8.7500  33.5000 Du        
   6428 ****         2.5000   8.7500  33.7500 Du        
   6429 ****         2.5000   8.7500  34.0000 Du        
   6430 ****         2.5000   8.7500  34.2500 Du        
   6431 ****         2.5000   9.0000  32.5000 Du        
   6432 ****         2.5000   9.0000  32.7500 Du        
   6433 ****         2.5000   9.0000  33.0000 Du        
   6434 ****         2.5000   9.0000  33.2500 Du        
   6435 ****         2.5000   9.0000  33.5000 Du        
   6436 ****         2.5000   9.0000  33.7500 Du        
   6437 ****         2.5000   9.0000  34.0000 Du        
   6438 ****         2.5000   9.2500  32.0000 Du        
   6439 ****         2.5000   9.2500  32.2500 Du        
   6440 ****         2.5000   9.2500  32.5000 Du        
   6441 ****         2.5000   9.2500  32.7500 Du        
   6442 ****         2.5000   9.2500  33.0000 Du        
   6443 ****         2.5000   9.2500  33.2500 Du        
   6444 ****         2.5000   9.2500  33.5000 Du        
   6445 ****         2.5000   9.2500  33.7500 Du        
   6446 ****         2.5000   9.2500  34.0000 Du        
   6447 ****         2.5000   9.5000  32.0000 Du        
   6448 ****         2.5000   9.5000  32.2500 Du        
   6449 ****         2.5000   9.5000  32.5000 Du        
   6450 ****         2.5000   9.5000  32.7500 Du        
   6451 ****         2.5000   9.5000  33.0000 Du        
   6452 ****         2.5000   9.5000  33.2500 Du        
   6453 ****         2.5000   9.5000  33.5000 Du        
   6454 ****         2.5000   9.5000  33.7500 Du        
   6455 ****         2.5000   9.5000  34.0000 Du        
   6456 ****         2.5000   9.7500  31.5000 Du        
   6457 ****         2.5000   9.7500  31.7500 Du        
   6458 ****         2.5000   9.7500  32.0000 Du        
   6459 ****         2.5000   9.7500  32.2500 Du        
   6460 ****         2.5000   9.7500  32.5000 Du        
   6461 ****         2.5000   9.7500  32.7500 Du        
   6462 ****         2.5000   9.7500  33.0000 Du        
   6463 ****         2.5000   9.7500  33.2500 Du        
   6464 ****         2.5000   9.7500  33.5000 Du        
   6465 ****         2.5000   9.7500  33.7500 Du        
   6466 ****         2.5000  10.0000  31.5000 Du        
   6467 ****         2.5000  10.0000  31.7500 Du        
   6468 ****         2.5000  10.0000  32.0000 Du        
   6469 ****         2.5000  10.0000  32.2500 Du        
   6470 ****         2.5000  10.0000  32.5000 Du        
   6471 ****         2.5000  10.0000  32.7500 Du        
   6472 ****         2.5000  10.0000  33.0000 Du        
   6473 ****         2.5000  10.0000  33.2500 Du        
   6474 ****         2.5000  10.0000  33.5000 Du        
   6475 ****         2.5000  10.0000  33.7500 Du        
   6476 ****         2.5000  10.2500  31.2500 Du        
   6477 ****         2.5000  10.2500  31.5000 Du        
   6478 ****         2.5000  10.2500  31.7500 Du        
   6479 ****         2.5000  10.2500  32.0000 Du        
   6480 ****         2.5000  10.2500  32.2500 Du        
   6481 ****         2.5000  10.2500  32.5000 Du        
   6482 ****         2.5000  10.2500  32.7500 Du        
   6483 ****         2.5000  10.2500  33.0000 Du        
   6484 ****         2.5000  10.2500  33.2500 Du        
   6485 ****         2.5000  10.2500  33.5000 Du        
   6486 ****         2.5000  10.2500  33.7500 Du        
   6487 ****         2.5000  10.5000  31.0000 Du        
   6488 ****         2.5000  10.5000  31.2500 Du        
   6489 ****         2.5000  10.5000  31.5000 Du        
   6490 ****         2.5000  10.5000  31.7500 Du        
   6491 ****         2.5000  10.5000  32.0000 Du        
   6492 ****         2.5000  10.5000  32.2500 Du        
   6493 ****         2.5000  10.5000  32.5000 Du        
   6494 ****         2.5000  10.5000  32.7500 Du        
   6495 ****         2.5000  10.5000  33.0000 Du        
   6496 ****         2.5000  10.5000  33.2500 Du        
   6497 ****         2.5000  10.5000  33.5000 Du        
   6498 ****         2.5000  10.5000  33.7500 Du        
   6499 ****         2.5000  10.7500  31.0000 Du        
   6500 ****         2.5000  10.7500  31.2500 Du        
   6501 ****         2.5000  10.7500  31.5000 Du        
   6502 ****         2.5000  10.7500  31.7500 Du        
   6503 ****         2.5000  10.7500  32.0000 Du        
   6504 ****         2.5000  10.7500  32.2500 Du        
   6505 ****         2.5000  10.7500  32.5000 Du        
   6506 ****         2.5000  10.7500  32.7500 Du        
   6507 ****         2.5000  10.7500  33.0000 Du        
   6508 ****         2.5000  10.7500  33.2500 Du        
   6509 ****         2.5000  10.7500  33.5000 Du        
   6510 ****         2.5000  10.7500  33.7500 Du        
   6511 ****         2.5000  11.0000  31.0000 Du        
   6512 ****         2.5000  11.0000  31.2500 Du        
   6513 ****         2.5000  11.0000  31.5000 Du        
   6514 ****         2.5000  11.0000  31.7500 Du        
   6515 ****         2.5000  11.0000  32.0000 Du        
   6516 ****         2.5000  11.0000  32.2500 Du        
   6517 ****         2.5000  11.0000  32.5000 Du        
   6518 ****         2.5000  11.0000  32.7500 Du        
   6519 ****         2.5000  11.0000  33.0000 Du        
   6520 ****         2.5000  11.0000  33.2500 Du        
   6521 ****         2.5000  11.0000  33.5000 Du        
   6522 ****         2.5000  11.0000  33.7500 Du        
   6523 ****         2.5000  11.2500  30.7500 Du        
   6524 ****         2.5000  11.2500  31.0000 Du        
   6525 ****         2.5000  11.2500  31.2500 Du        
   6526 ****         2.5000  11.2500  31.5000 Du        
   6527 ****         2.5000  11.2500  31.7500 Du        
   6528 ****         2.5000  11.2500  32.0000 Du        
   6529 ****         2.5000  11.2500  32.2500 Du        
   6530 ****         2.5000  11.2500  32.5000 Du        
   6531 ****         2.5000  11.2500  32.7500 Du        
   6532 ****         2.5000  11.2500  33.0000 Du        
   6533 ****         2.5000  11.2500  33.2500 Du        
   6534 ****         2.5000  11.2500  33.5000 Du        
   6535 ****         2.5000  11.2500  33.7500 Du        
   6536 ****         2.5000  11.5000  30.7500 Du        
   6537 ****         2.5000  11.5000  31.0000 Du        
   6538 ****         2.5000  11.5000  31.2500 Du        
   6539 ****         2.5000  11.5000  31.5000 Du        
   6540 ****         2.5000  11.5000  31.7500 Du        
   6541 ****         2.5000  11.5000  32.0000 Du        
   6542 ****         2.5000  11.5000  32.2500 Du        
   6543 ****         2.5000  11.5000  32.5000 Du        
   6544 ****         2.5000  11.5000  32.7500 Du        
   6545 ****         2.5000  11.5000  33.0000 Du        
   6546 ****         2.5000  11.5000  33.2500 Du        
   6547 ****         2.5000  11.5000  33.5000 Du        
   6548 ****         2.5000  11.5000  33.7500 Du        
   6549 ****         2.5000  11.7500  30.7500 Du        
   6550 ****         2.5000  11.7500  31.0000 Du        
   6551 ****         2.5000  11.7500  31.2500 Du        
   6552 ****         2.5000  11.7500  31.5000 Du        
   6553 ****         2.5000  11.7500  31.7500 Du        
   6554 ****         2.5000  11.7500  32.0000 Du        
   6555 ****         2.5000  11.7500  32.2500 Du        
   6556 ****         2.5000  11.7500  32.5000 Du        
   6557 ****         2.5000  11.7500  32.7500 Du        
   6558 ****         2.5000  11.7500  33.0000 Du        
   6559 ****         2.5000  11.7500  33.2500 Du        
   6560 ****         2.5000  11.7500  33.5000 Du        
   6561 ****         2.5000  12.0000  31.0000 Du        
   6562 ****         2.5000  12.0000  31.2500 Du        
   6563 ****         2.5000  12.0000  31.5000 Du        
   6564 ****         2.5000  12.0000  31.7500 Du        
   6565 ****         2.5000  12.0000  32.0000 Du        
   6566 ****         2.5000  12.0000  32.2500 Du        
   6567 ****         2.5000  12.0000  32.5000 Du        
   6568 ****         2.5000  12.0000  32.7500 Du        
   6569 ****         2.5000  12.0000  33.0000 Du        
   6570 ****         2.5000  12.0000  33.2500 Du        
   6571 ****         2.5000  12.0000  33.5000 Du        
   6572 ****         2.5000  12.2500  31.0000 Du        
   6573 ****         2.5000  12.2500  31.2500 Du        
   6574 ****         2.5000  12.2500  31.5000 Du        
   6575 ****         2.5000  12.2500  31.7500 Du        
   6576 ****         2.5000  12.2500  32.0000 Du        
   6577 ****         2.5000  12.2500  32.2500 Du        
   6578 ****         2.5000  12.2500  32.5000 Du        
   6579 ****         2.5000  12.2500  32.7500 Du        
   6580 ****         2.5000  12.2500  33.0000 Du        
   6581 ****         2.5000  12.2500  33.2500 Du        
   6582 ****         2.5000  12.5000  31.2500 Du        
   6583 ****         2.5000  12.5000  31.5000 Du        
   6584 ****         2.5000  12.5000  31.7500 Du        
   6585 ****         2.5000  12.5000  32.0000 Du        
   6586 ****         2.5000  12.5000  32.2500 Du        
   6587 ****         2.5000  12.5000  32.5000 Du        
   6588 ****         2.5000  12.7500  31.5000 Du        
   6589 ****         2.5000  12.7500  31.7500 Du        
   6590 ****         2.5000  12.7500  32.0000 Du        
   6591 ****         2.5000  22.2500  34.7500 Du        
   6592 ****         2.5000  22.2500  35.0000 Du        
   6593 ****         2.5000  22.2500  35.2500 Du        
   6594 ****         2.5000  22.5000  34.2500 Du        
   6595 ****         2.5000  22.5000  34.5000 Du        
   6596 ****         2.5000  22.5000  34.7500 Du        
   6597 ****         2.5000  22.5000  35.0000 Du        
   6598 ****         2.5000  22.5000  35.2500 Du        
   6599 ****         2.5000  22.7500  34.2500 Du        
   6600 ****         2.5000  22.7500  34.5000 Du        
   6601 ****         2.5000  22.7500  34.7500 Du        
   6602 ****         2.5000  22.7500  35.0000 Du        
   6603 ****         2.5000  22.7500  35.2500 Du        
   6604 ****         2.5000  23.0000  34.2500 Du        
   6605 ****         2.5000  23.0000  34.5000 Du        
   6606 ****         2.5000  23.0000  34.7500 Du        
   6607 ****         2.5000  23.0000  35.0000 Du        
   6608 ****         2.5000  23.2500  34.5000 Du        
   6609 ****         2.5000  23.2500  34.7500 Du        
   6610 ****         2.5000  24.0000  39.5000 Du        
   6611 ****         2.5000  24.0000  39.7500 Du        
   6612 ****         2.5000  24.2500  39.5000 Du        
   6613 ****         2.5000  24.2500  39.7500 Du        
   6614 ****         2.5000  24.5000  39.7500 Du        
   6615 ****         2.5000  24.7500  39.7500 Du        
   6616 ****         2.7500   0.0000  42.7500 Du        
   6617 ****         2.7500   0.0000  43.0000 Du        
   6618 ****         2.7500   0.0000  43.2500 Du        
   6619 ****         2.7500   0.0000  43.5000 Du        
   6620 ****         2.7500   0.0000  43.7500 Du        
   6621 ****         2.7500   0.0000  44.0000 Du        
   6622 ****         2.7500   0.0000  44.2500 Du        
   6623 ****         2.7500   0.0000  44.5000 Du        
   6624 ****         2.7500   0.0000  44.7500 Du        
   6625 ****         2.7500   0.2500  43.0000 Du        
   6626 ****         2.7500   0.2500  43.2500 Du        
   6627 ****         2.7500   0.2500  43.5000 Du        
   6628 ****         2.7500   0.2500  43.7500 Du        
   6629 ****         2.7500   0.2500  44.0000 Du        
   6630 ****         2.7500   0.2500  44.2500 Du        
   6631 ****         2.7500   0.2500  44.5000 Du        
   6632 ****         2.7500   0.5000  43.0000 Du        
   6633 ****         2.7500   0.5000  43.2500 Du        
   6634 ****         2.7500   0.5000  43.5000 Du        
   6635 ****         2.7500   0.5000  43.7500 Du        
   6636 ****         2.7500   0.5000  44.0000 Du        
   6637 ****         2.7500   0.5000  44.2500 Du        
   6638 ****         2.7500   0.5000  44.5000 Du        
   6639 ****         2.7500   0.7500  43.5000 Du        
   6640 ****         2.7500   0.7500  43.7500 Du        
   6641 ****         2.7500   0.7500  44.0000 Du        
   6642 ****         2.7500   0.7500  44.2500 Du        
   6643 ****         2.7500   5.0000  37.2500 Du        
   6644 ****         2.7500   5.0000  37.5000 Du        
   6645 ****         2.7500   5.2500  36.7500 Du        
   6646 ****         2.7500   5.2500  37.0000 Du        
   6647 ****         2.7500   5.2500  37.2500 Du        
   6648 ****         2.7500   5.2500  37.5000 Du        
   6649 ****         2.7500   5.5000  36.5000 Du        
   6650 ****         2.7500   5.5000  36.7500 Du        
   6651 ****         2.7500   5.5000  37.0000 Du        
   6652 ****         2.7500   5.5000  37.2500 Du        
   6653 ****         2.7500   5.5000  37.5000 Du        
   6654 ****         2.7500   5.5000  37.7500 Du        
   6655 ****         2.7500   5.7500  36.2500 Du        
   6656 ****         2.7500   5.7500  36.5000 Du        
   6657 ****         2.7500   5.7500  36.7500 Du        
   6658 ****         2.7500   5.7500  37.0000 Du        
   6659 ****         2.7500   5.7500  37.2500 Du        
   6660 ****         2.7500   5.7500  37.5000 Du        
   6661 ****         2.7500   5.7500  37.7500 Du        
   6662 ****         2.7500   6.0000  36.0000 Du        
   6663 ****         2.7500   6.0000  36.2500 Du        
   6664 ****         2.7500   6.0000  36.5000 Du        
   6665 ****         2.7500   6.0000  36.7500 Du        
   6666 ****         2.7500   6.0000  37.0000 Du        
   6667 ****         2.7500   6.0000  37.2500 Du        
   6668 ****         2.7500   6.0000  37.5000 Du        
   6669 ****         2.7500   6.0000  37.7500 Du        
   6670 ****         2.7500   6.2500  36.0000 Du        
   6671 ****         2.7500   6.2500  36.2500 Du        
   6672 ****         2.7500   6.2500  36.5000 Du        
   6673 ****         2.7500   6.2500  36.7500 Du        
   6674 ****         2.7500   6.2500  37.0000 Du        
   6675 ****         2.7500   6.2500  37.2500 Du        
   6676 ****         2.7500   6.2500  37.5000 Du        
   6677 ****         2.7500   6.2500  37.7500 Du        
   6678 ****         2.7500   6.2500  38.0000 Du        
   6679 ****         2.7500   6.5000  35.7500 Du        
   6680 ****         2.7500   6.5000  36.0000 Du        
   6681 ****         2.7500   6.5000  36.2500 Du        
   6682 ****         2.7500   6.5000  36.5000 Du        
   6683 ****         2.7500   6.5000  36.7500 Du        
   6684 ****         2.7500   6.5000  37.0000 Du        
   6685 ****         2.7500   6.5000  37.2500 Du        
   6686 ****         2.7500   6.5000  37.5000 Du        
   6687 ****         2.7500   6.5000  37.7500 Du        
   6688 ****         2.7500   6.5000  38.0000 Du        
   6689 ****         2.7500   6.7500  35.5000 Du        
   6690 ****         2.7500   6.7500  35.7500 Du        
   6691 ****         2.7500   6.7500  36.0000 Du        
   6692 ****         2.7500   6.7500  36.2500 Du        
   6693 ****         2.7500   6.7500  36.5000 Du        
   6694 ****         2.7500   6.7500  36.7500 Du        
   6695 ****         2.7500   6.7500  37.0000 Du        
   6696 ****         2.7500   6.7500  37.2500 Du        
   6697 ****         2.7500   6.7500  37.5000 Du        
   6698 ****         2.7500   6.7500  37.7500 Du        
   6699 ****         2.7500   6.7500  38.0000 Du        
   6700 ****         2.7500   6.7500  38.2500 Du        
   6701 ****         2.7500   7.0000  35.5000 Du        
   6702 ****         2.7500   7.0000  35.7500 Du        
   6703 ****         2.7500   7.0000  36.0000 Du        
   6704 ****         2.7500   7.0000  36.2500 Du        
   6705 ****         2.7500   7.0000  36.5000 Du        
   6706 ****         2.7500   7.0000  36.7500 Du        
   6707 ****         2.7500   7.0000  37.0000 Du        
   6708 ****         2.7500   7.0000  37.2500 Du        
   6709 ****         2.7500   7.0000  37.5000 Du        
   6710 ****         2.7500   7.0000  37.7500 Du        
   6711 ****         2.7500   7.0000  38.0000 Du        
   6712 ****         2.7500   7.0000  38.2500 Du        
   6713 ****         2.7500   7.2500  35.2500 Du        
   6714 ****         2.7500   7.2500  35.5000 Du        
   6715 ****         2.7500   7.2500  35.7500 Du        
   6716 ****         2.7500   7.2500  36.0000 Du        
   6717 ****         2.7500   7.2500  36.2500 Du        
   6718 ****         2.7500   7.2500  36.5000 Du        
   6719 ****         2.7500   7.2500  36.7500 Du        
   6720 ****         2.7500   7.2500  37.0000 Du        
   6721 ****         2.7500   7.2500  37.2500 Du        
   6722 ****         2.7500   7.2500  37.5000 Du        
   6723 ****         2.7500   7.2500  37.7500 Du        
   6724 ****         2.7500   7.2500  38.0000 Du        
   6725 ****         2.7500   7.2500  38.2500 Du        
   6726 ****         2.7500   7.5000  35.2500 Du        
   6727 ****         2.7500   7.5000  35.5000 Du        
   6728 ****         2.7500   7.5000  35.7500 Du        
   6729 ****         2.7500   7.5000  36.0000 Du        
   6730 ****         2.7500   7.5000  36.2500 Du        
   6731 ****         2.7500   7.5000  36.5000 Du        
   6732 ****         2.7500   7.5000  36.7500 Du        
   6733 ****         2.7500   7.5000  37.0000 Du        
   6734 ****         2.7500   7.5000  37.2500 Du        
   6735 ****         2.7500   7.5000  37.5000 Du        
   6736 ****         2.7500   7.5000  37.7500 Du        
   6737 ****         2.7500   7.5000  38.0000 Du        
   6738 ****         2.7500   7.7500  35.0000 Du        
   6739 ****         2.7500   7.7500  35.2500 Du        
   6740 ****         2.7500   7.7500  35.5000 Du        
   6741 ****         2.7500   7.7500  35.7500 Du        
   6742 ****         2.7500   7.7500  36.0000 Du        
   6743 ****         2.7500   7.7500  36.2500 Du        
   6744 ****         2.7500   7.7500  36.5000 Du        
   6745 ****         2.7500   7.7500  36.7500 Du        
   6746 ****         2.7500   7.7500  37.0000 Du        
   6747 ****         2.7500   7.7500  37.2500 Du        
   6748 ****         2.7500   8.0000  35.2500 Du        
   6749 ****         2.7500   8.0000  35.5000 Du        
   6750 ****         2.7500   8.0000  35.7500 Du        
   6751 ****         2.7500   8.0000  36.0000 Du        
   6752 ****         2.7500   8.0000  36.2500 Du        
   6753 ****         2.7500   9.0000  32.5000 Du        
   6754 ****         2.7500   9.0000  32.7500 Du        
   6755 ****         2.7500   9.0000  33.0000 Du        
   6756 ****         2.7500   9.0000  33.2500 Du        
   6757 ****         2.7500   9.2500  32.2500 Du        
   6758 ****         2.7500   9.2500  32.5000 Du        
   6759 ****         2.7500   9.2500  32.7500 Du        
   6760 ****         2.7500   9.2500  33.0000 Du        
   6761 ****         2.7500   9.2500  33.2500 Du        
   6762 ****         2.7500   9.2500  33.5000 Du        
   6763 ****         2.7500   9.5000  32.0000 Du        
   6764 ****         2.7500   9.5000  32.2500 Du        
   6765 ****         2.7500   9.5000  32.5000 Du        
   6766 ****         2.7500   9.5000  32.7500 Du        
   6767 ****         2.7500   9.5000  33.0000 Du        
   6768 ****         2.7500   9.5000  33.2500 Du        
   6769 ****         2.7500   9.5000  33.5000 Du        
   6770 ****         2.7500   9.5000  33.7500 Du        
   6771 ****         2.7500   9.7500  31.7500 Du        
   6772 ****         2.7500   9.7500  32.0000 Du        
   6773 ****         2.7500   9.7500  32.2500 Du        
   6774 ****         2.7500   9.7500  32.5000 Du        
   6775 ****         2.7500   9.7500  32.7500 Du        
   6776 ****         2.7500   9.7500  33.0000 Du        
   6777 ****         2.7500   9.7500  33.2500 Du        
   6778 ****         2.7500   9.7500  33.5000 Du        
   6779 ****         2.7500   9.7500  33.7500 Du        
   6780 ****         2.7500   9.7500  34.0000 Du        
   6781 ****         2.7500  10.0000  31.5000 Du        
   6782 ****         2.7500  10.0000  31.7500 Du        
   6783 ****         2.7500  10.0000  32.0000 Du        
   6784 ****         2.7500  10.0000  32.2500 Du        
   6785 ****         2.7500  10.0000  32.5000 Du        
   6786 ****         2.7500  10.0000  32.7500 Du        
   6787 ****         2.7500  10.0000  33.0000 Du        
   6788 ****         2.7500  10.0000  33.2500 Du        
   6789 ****         2.7500  10.0000  33.5000 Du        
   6790 ****         2.7500  10.0000  33.7500 Du        
   6791 ****         2.7500  10.2500  31.0000 Du        
   6792 ****         2.7500  10.2500  31.2500 Du        
   6793 ****         2.7500  10.2500  31.5000 Du        
   6794 ****         2.7500  10.2500  31.7500 Du        
   6795 ****         2.7500  10.2500  32.0000 Du        
   6796 ****         2.7500  10.2500  32.2500 Du        
   6797 ****         2.7500  10.2500  32.5000 Du        
   6798 ****         2.7500  10.2500  32.7500 Du        
   6799 ****         2.7500  10.2500  33.0000 Du        
   6800 ****         2.7500  10.2500  33.2500 Du        
   6801 ****         2.7500  10.2500  33.5000 Du        
   6802 ****         2.7500  10.2500  33.7500 Du        
   6803 ****         2.7500  10.5000  31.0000 Du        
   6804 ****         2.7500  10.5000  31.2500 Du        
   6805 ****         2.7500  10.5000  31.5000 Du        
   6806 ****         2.7500  10.5000  31.7500 Du        
   6807 ****         2.7500  10.5000  32.0000 Du        
   6808 ****         2.7500  10.5000  32.2500 Du        
   6809 ****         2.7500  10.5000  32.5000 Du        
   6810 ****         2.7500  10.5000  32.7500 Du        
   6811 ****         2.7500  10.5000  33.0000 Du        
   6812 ****         2.7500  10.5000  33.2500 Du        
   6813 ****         2.7500  10.5000  33.5000 Du        
   6814 ****         2.7500  10.5000  33.7500 Du        
   6815 ****         2.7500  10.7500  31.0000 Du        
   6816 ****         2.7500  10.7500  31.2500 Du        
   6817 ****         2.7500  10.7500  31.5000 Du        
   6818 ****         2.7500  10.7500  31.7500 Du        
   6819 ****         2.7500  10.7500  32.0000 Du        
   6820 ****         2.7500  10.7500  32.2500 Du        
   6821 ****         2.7500  10.7500  32.5000 Du        
   6822 ****         2.7500  10.7500  32.7500 Du        
   6823 ****         2.7500  10.7500  33.0000 Du        
   6824 ****         2.7500  10.7500  33.2500 Du        
   6825 ****         2.7500  10.7500  33.5000 Du        
   6826 ****         2.7500  10.7500  33.7500 Du        
   6827 ****         2.7500  11.0000  30.7500 Du        
   6828 ****         2.7500  11.0000  31.0000 Du        
   6829 ****         2.7500  11.0000  31.2500 Du        
   6830 ****         2.7500  11.0000  31.5000 Du        
   6831 ****         2.7500  11.0000  31.7500 Du        
   6832 ****         2.7500  11.0000  32.0000 Du        
   6833 ****         2.7500  11.0000  32.2500 Du        
   6834 ****         2.7500  11.0000  32.5000 Du        
   6835 ****         2.7500  11.0000  32.7500 Du        
   6836 ****         2.7500  11.0000  33.0000 Du        
   6837 ****         2.7500  11.0000  33.2500 Du        
   6838 ****         2.7500  11.0000  33.5000 Du        
   6839 ****         2.7500  11.0000  33.7500 Du        
   6840 ****         2.7500  11.2500  30.7500 Du        
   6841 ****         2.7500  11.2500  31.0000 Du        
   6842 ****         2.7500  11.2500  31.2500 Du        
   6843 ****         2.7500  11.2500  31.5000 Du        
   6844 ****         2.7500  11.2500  31.7500 Du        
   6845 ****         2.7500  11.2500  32.0000 Du        
   6846 ****         2.7500  11.2500  32.2500 Du        
   6847 ****         2.7500  11.2500  32.5000 Du        
   6848 ****         2.7500  11.2500  32.7500 Du        
   6849 ****         2.7500  11.2500  33.0000 Du        
   6850 ****         2.7500  11.2500  33.2500 Du        
   6851 ****         2.7500  11.2500  33.5000 Du        
   6852 ****         2.7500  11.2500  33.7500 Du        
   6853 ****         2.7500  11.5000  30.7500 Du        
   6854 ****         2.7500  11.5000  31.0000 Du        
   6855 ****         2.7500  11.5000  31.2500 Du        
   6856 ****         2.7500  11.5000  31.5000 Du        
   6857 ****         2.7500  11.5000  31.7500 Du        
   6858 ****         2.7500  11.5000  32.0000 Du        
   6859 ****         2.7500  11.5000  32.2500 Du        
   6860 ****         2.7500  11.5000  32.5000 Du        
   6861 ****         2.7500  11.5000  32.7500 Du        
   6862 ****         2.7500  11.5000  33.0000 Du        
   6863 ****         2.7500  11.5000  33.2500 Du        
   6864 ****         2.7500  11.5000  33.5000 Du        
   6865 ****         2.7500  11.5000  33.7500 Du        
   6866 ****         2.7500  11.7500  30.7500 Du        
   6867 ****         2.7500  11.7500  31.0000 Du        
   6868 ****         2.7500  11.7500  31.2500 Du        
   6869 ****         2.7500  11.7500  31.5000 Du        
   6870 ****         2.7500  11.7500  31.7500 Du        
   6871 ****         2.7500  11.7500  32.0000 Du        
   6872 ****         2.7500  11.7500  32.2500 Du        
   6873 ****         2.7500  11.7500  32.5000 Du        
   6874 ****         2.7500  11.7500  32.7500 Du        
   6875 ****         2.7500  11.7500  33.0000 Du        
   6876 ****         2.7500  11.7500  33.2500 Du        
   6877 ****         2.7500  11.7500  33.5000 Du        
   6878 ****         2.7500  11.7500  33.7500 Du        
   6879 ****         2.7500  12.0000  30.7500 Du        
   6880 ****         2.7500  12.0000  31.0000 Du        
   6881 ****         2.7500  12.0000  31.2500 Du        
   6882 ****         2.7500  12.0000  31.5000 Du        
   6883 ****         2.7500  12.0000  31.7500 Du        
   6884 ****         2.7500  12.0000  32.0000 Du        
   6885 ****         2.7500  12.0000  32.2500 Du        
   6886 ****         2.7500  12.0000  32.5000 Du        
   6887 ****         2.7500  12.0000  32.7500 Du        
   6888 ****         2.7500  12.0000  33.0000 Du        
   6889 ****         2.7500  12.0000  33.2500 Du        
   6890 ****         2.7500  12.0000  33.5000 Du        
   6891 ****         2.7500  12.0000  33.7500 Du        
   6892 ****         2.7500  12.2500  31.0000 Du        
   6893 ****         2.7500  12.2500  31.2500 Du        
   6894 ****         2.7500  12.2500  31.5000 Du        
   6895 ****         2.7500  12.2500  31.7500 Du        
   6896 ****         2.7500  12.2500  32.0000 Du        
   6897 ****         2.7500  12.2500  32.2500 Du        
   6898 ****         2.7500  12.2500  32.5000 Du        
   6899 ****         2.7500  12.2500  32.7500 Du        
   6900 ****         2.7500  12.2500  33.0000 Du        
   6901 ****         2.7500  12.2500  33.2500 Du        
   6902 ****         2.7500  12.2500  33.5000 Du        
   6903 ****         2.7500  12.5000  31.0000 Du        
   6904 ****         2.7500  12.5000  31.2500 Du        
   6905 ****         2.7500  12.5000  31.5000 Du        
   6906 ****         2.7500  12.5000  31.7500 Du        
   6907 ****         2.7500  12.5000  32.0000 Du        
   6908 ****         2.7500  12.5000  32.2500 Du        
   6909 ****         2.7500  12.5000  32.5000 Du        
   6910 ****         2.7500  12.5000  32.7500 Du        
   6911 ****         2.7500  12.5000  33.0000 Du        
   6912 ****         2.7500  12.7500  31.0000 Du        
   6913 ****         2.7500  12.7500  31.2500 Du        
   6914 ****         2.7500  12.7500  31.5000 Du        
   6915 ****         2.7500  12.7500  31.7500 Du        
   6916 ****         2.7500  12.7500  32.0000 Du        
   6917 ****         2.7500  12.7500  32.2500 Du        
   6918 ****         2.7500  13.0000  31.2500 Du        
   6919 ****         2.7500  13.0000  31.5000 Du        
   6920 ****         2.7500  13.0000  31.7500 Du        
   6921 ****         2.7500  13.0000  32.0000 Du        
   6922 ****         2.7500  22.0000  36.0000 Du        
   6923 ****         2.7500  22.2500  34.5000 Du        
   6924 ****         2.7500  22.2500  34.7500 Du        
   6925 ****         2.7500  22.2500  35.0000 Du        
   6926 ****         2.7500  22.2500  35.2500 Du        
   6927 ****         2.7500  22.2500  35.5000 Du        
   6928 ****         2.7500  22.2500  38.0000 Du        
   6929 ****         2.7500  22.2500  38.2500 Du        
   6930 ****         2.7500  22.5000  34.2500 Du        
   6931 ****         2.7500  22.5000  34.5000 Du        
   6932 ****         2.7500  22.5000  34.7500 Du        
   6933 ****         2.7500  22.5000  35.0000 Du        
   6934 ****         2.7500  22.5000  35.2500 Du        
   6935 ****         2.7500  22.5000  35.5000 Du        
   6936 ****         2.7500  22.7500  34.2500 Du        
   6937 ****         2.7500  22.7500  34.5000 Du        
   6938 ****         2.7500  22.7500  34.7500 Du        
   6939 ****         2.7500  22.7500  35.0000 Du        
   6940 ****         2.7500  22.7500  35.2500 Du        
   6941 ****         2.7500  22.7500  38.5000 Du        
   6942 ****         2.7500  23.0000  34.2500 Du        
   6943 ****         2.7500  23.0000  34.5000 Du        
   6944 ****         2.7500  23.0000  34.7500 Du        
   6945 ****         2.7500  23.0000  35.0000 Du        
   6946 ****         2.7500  23.0000  35.2500 Du        
   6947 ****         2.7500  23.0000  38.7500 Du        
   6948 ****         2.7500  23.2500  34.5000 Du        
   6949 ****         2.7500  23.2500  34.7500 Du        
   6950 ****         2.7500  23.2500  35.0000 Du        
   6951 ****         2.7500  23.2500  38.7500 Du        
   6952 ****         2.7500  23.2500  39.0000 Du        
   6953 ****         2.7500  23.5000  39.0000 Du        
   6954 ****         2.7500  23.5000  39.2500 Du        
   6955 ****         2.7500  23.5000  39.5000 Du        
   6956 ****         2.7500  23.7500  39.0000 Du        
   6957 ****         2.7500  23.7500  39.2500 Du        
   6958 ****         2.7500  23.7500  39.5000 Du        
   6959 ****         2.7500  23.7500  39.7500 Du        
   6960 ****         2.7500  23.7500  40.0000 Du        
   6961 ****         2.7500  24.0000  39.0000 Du        
   6962 ****         2.7500  24.0000  39.2500 Du        
   6963 ****         2.7500  24.0000  39.5000 Du        
   6964 ****         2.7500  24.0000  39.7500 Du        
   6965 ****         2.7500  24.0000  40.0000 Du        
   6966 ****         2.7500  24.0000  40.2500 Du        
   6967 ****         2.7500  24.2500  39.2500 Du        
   6968 ****         2.7500  24.2500  39.5000 Du        
   6969 ****         2.7500  24.2500  39.7500 Du        
   6970 ****         2.7500  24.2500  40.0000 Du        
   6971 ****         2.7500  24.2500  40.2500 Du        
   6972 ****         2.7500  24.5000  39.2500 Du        
   6973 ****         2.7500  24.5000  39.5000 Du        
   6974 ****         2.7500  24.5000  39.7500 Du        
   6975 ****         2.7500  24.5000  40.0000 Du        
   6976 ****         2.7500  24.5000  40.2500 Du        
   6977 ****         2.7500  24.7500  39.2500 Du        
   6978 ****         2.7500  24.7500  39.5000 Du        
   6979 ****         2.7500  24.7500  39.7500 Du        
   6980 ****         2.7500  24.7500  40.0000 Du        
   6981 ****         2.7500  24.7500  40.2500 Du        
   6982 ****         3.0000   0.0000  42.7500 Du        
   6983 ****         3.0000   0.0000  43.0000 Du        
   6984 ****         3.0000   0.0000  43.2500 Du        
   6985 ****         3.0000   0.0000  43.5000 Du        
   6986 ****         3.0000   0.0000  43.7500 Du        
   6987 ****         3.0000   0.0000  44.0000 Du        
   6988 ****         3.0000   0.0000  44.2500 Du        
   6989 ****         3.0000   0.0000  44.5000 Du        
   6990 ****         3.0000   0.2500  43.0000 Du        
   6991 ****         3.0000   0.2500  43.2500 Du        
   6992 ****         3.0000   0.2500  43.5000 Du        
   6993 ****         3.0000   0.2500  43.7500 Du        
   6994 ****         3.0000   0.2500  44.0000 Du        
   6995 ****         3.0000   0.2500  44.2500 Du        
   6996 ****         3.0000   0.5000  43.2500 Du        
   6997 ****         3.0000   0.5000  43.5000 Du        
   6998 ****         3.0000   0.5000  43.7500 Du        
   6999 ****         3.0000   0.5000  44.0000 Du        
   7000 ****         3.0000   5.2500  37.0000 Du        
   7001 ****         3.0000   5.2500  37.2500 Du        
   7002 ****         3.0000   5.2500  37.5000 Du        
   7003 ****         3.0000   5.5000  36.5000 Du        
   7004 ****         3.0000   5.5000  36.7500 Du        
   7005 ****         3.0000   5.5000  37.0000 Du        
   7006 ****         3.0000   5.5000  37.2500 Du        
   7007 ****         3.0000   5.5000  37.5000 Du        
   7008 ****         3.0000   5.7500  36.2500 Du        
   7009 ****         3.0000   5.7500  36.5000 Du        
   7010 ****         3.0000   5.7500  36.7500 Du        
   7011 ****         3.0000   5.7500  37.0000 Du        
   7012 ****         3.0000   5.7500  37.2500 Du        
   7013 ****         3.0000   5.7500  37.5000 Du        
   7014 ****         3.0000   5.7500  37.7500 Du        
   7015 ****         3.0000   6.0000  36.0000 Du        
   7016 ****         3.0000   6.0000  36.2500 Du        
   7017 ****         3.0000   6.0000  36.5000 Du        
   7018 ****         3.0000   6.0000  36.7500 Du        
   7019 ****         3.0000   6.0000  37.0000 Du        
   7020 ****         3.0000   6.0000  37.2500 Du        
   7021 ****         3.0000   6.0000  37.5000 Du        
   7022 ****         3.0000   6.0000  37.7500 Du        
   7023 ****         3.0000   6.2500  36.0000 Du        
   7024 ****         3.0000   6.2500  36.2500 Du        
   7025 ****         3.0000   6.2500  36.5000 Du        
   7026 ****         3.0000   6.2500  36.7500 Du        
   7027 ****         3.0000   6.2500  37.0000 Du        
   7028 ****         3.0000   6.2500  37.2500 Du        
   7029 ****         3.0000   6.2500  37.5000 Du        
   7030 ****         3.0000   6.2500  37.7500 Du        
   7031 ****         3.0000   6.2500  38.0000 Du        
   7032 ****         3.0000   6.5000  35.7500 Du        
   7033 ****         3.0000   6.5000  36.0000 Du        
   7034 ****         3.0000   6.5000  36.2500 Du        
   7035 ****         3.0000   6.5000  36.5000 Du        
   7036 ****         3.0000   6.5000  36.7500 Du        
   7037 ****         3.0000   6.5000  37.0000 Du        
   7038 ****         3.0000   6.5000  37.2500 Du        
   7039 ****         3.0000   6.5000  37.5000 Du        
   7040 ****         3.0000   6.5000  37.7500 Du        
   7041 ****         3.0000   6.5000  38.0000 Du        
   7042 ****         3.0000   6.7500  35.7500 Du        
   7043 ****         3.0000   6.7500  36.0000 Du        
   7044 ****         3.0000   6.7500  36.2500 Du        
   7045 ****         3.0000   6.7500  36.5000 Du        
   7046 ****         3.0000   6.7500  36.7500 Du        
   7047 ****         3.0000   6.7500  37.0000 Du        
   7048 ****         3.0000   6.7500  37.2500 Du        
   7049 ****         3.0000   6.7500  37.5000 Du        
   7050 ****         3.0000   6.7500  37.7500 Du        
   7051 ****         3.0000   6.7500  38.0000 Du        
   7052 ****         3.0000   6.7500  38.2500 Du        
   7053 ****         3.0000   7.0000  35.5000 Du        
   7054 ****         3.0000   7.0000  35.7500 Du        
   7055 ****         3.0000   7.0000  36.0000 Du        
   7056 ****         3.0000   7.0000  36.2500 Du        
   7057 ****         3.0000   7.0000  36.5000 Du        
   7058 ****         3.0000   7.0000  36.7500 Du        
   7059 ****         3.0000   7.0000  37.0000 Du        
   7060 ****         3.0000   7.0000  37.2500 Du        
   7061 ****         3.0000   7.0000  37.5000 Du        
   7062 ****         3.0000   7.0000  37.7500 Du        
   7063 ****         3.0000   7.0000  38.0000 Du        
   7064 ****         3.0000   7.0000  38.2500 Du        
   7065 ****         3.0000   7.2500  35.5000 Du        
   7066 ****         3.0000   7.2500  35.7500 Du        
   7067 ****         3.0000   7.2500  36.0000 Du        
   7068 ****         3.0000   7.2500  36.2500 Du        
   7069 ****         3.0000   7.2500  36.5000 Du        
   7070 ****         3.0000   7.2500  36.7500 Du        
   7071 ****         3.0000   7.2500  37.0000 Du        
   7072 ****         3.0000   7.2500  37.2500 Du        
   7073 ****         3.0000   7.2500  37.5000 Du        
   7074 ****         3.0000   7.2500  37.7500 Du        
   7075 ****         3.0000   7.2500  38.0000 Du        
   7076 ****         3.0000   7.2500  38.2500 Du        
   7077 ****         3.0000   7.5000  35.5000 Du        
   7078 ****         3.0000   7.5000  35.7500 Du        
   7079 ****         3.0000   7.5000  36.0000 Du        
   7080 ****         3.0000   7.5000  36.2500 Du        
   7081 ****         3.0000   7.5000  36.5000 Du        
   7082 ****         3.0000   7.5000  36.7500 Du        
   7083 ****         3.0000   7.5000  37.0000 Du        
   7084 ****         3.0000   7.5000  37.2500 Du        
   7085 ****         3.0000   7.5000  37.5000 Du        
   7086 ****         3.0000   7.5000  37.7500 Du        
   7087 ****         3.0000   7.5000  38.0000 Du        
   7088 ****         3.0000   7.7500  35.5000 Du        
   7089 ****         3.0000   7.7500  35.7500 Du        
   7090 ****         3.0000   7.7500  36.0000 Du        
   7091 ****         3.0000   7.7500  36.2500 Du        
   7092 ****         3.0000   7.7500  36.5000 Du        
   7093 ****         3.0000   7.7500  36.7500 Du        
   7094 ****         3.0000   7.7500  37.0000 Du        
   7095 ****         3.0000   7.7500  37.2500 Du        
   7096 ****         3.0000   8.0000  35.7500 Du        
   7097 ****         3.0000   8.0000  36.0000 Du        
   7098 ****         3.0000   8.0000  36.2500 Du        
   7099 ****         3.0000   8.0000  36.5000 Du        
   7100 ****         3.0000   9.5000  32.2500 Du        
   7101 ****         3.0000   9.5000  32.5000 Du        
   7102 ****         3.0000   9.5000  32.7500 Du        
   7103 ****         3.0000   9.5000  33.0000 Du        
   7104 ****         3.0000   9.5000  33.2500 Du        
   7105 ****         3.0000   9.7500  31.7500 Du        
   7106 ****         3.0000   9.7500  32.0000 Du        
   7107 ****         3.0000   9.7500  32.2500 Du        
   7108 ****         3.0000   9.7500  32.5000 Du        
   7109 ****         3.0000   9.7500  32.7500 Du        
   7110 ****         3.0000   9.7500  33.0000 Du        
   7111 ****         3.0000   9.7500  33.2500 Du        
   7112 ****         3.0000   9.7500  33.5000 Du        
   7113 ****         3.0000   9.7500  33.7500 Du        
   7114 ****         3.0000  10.0000  31.5000 Du        
   7115 ****         3.0000  10.0000  31.7500 Du        
   7116 ****         3.0000  10.0000  32.0000 Du        
   7117 ****         3.0000  10.0000  32.2500 Du        
   7118 ****         3.0000  10.0000  32.5000 Du        
   7119 ****         3.0000  10.0000  32.7500 Du        
   7120 ****         3.0000  10.0000  33.0000 Du        
   7121 ****         3.0000  10.0000  33.2500 Du        
   7122 ****         3.0000  10.0000  33.5000 Du        
   7123 ****         3.0000  10.0000  33.7500 Du        
   7124 ****         3.0000  10.2500  31.0000 Du        
   7125 ****         3.0000  10.2500  31.2500 Du        
   7126 ****         3.0000  10.2500  31.5000 Du        
   7127 ****         3.0000  10.2500  31.7500 Du        
   7128 ****         3.0000  10.2500  32.0000 Du        
   7129 ****         3.0000  10.2500  32.2500 Du        
   7130 ****         3.0000  10.2500  32.5000 Du        
   7131 ****         3.0000  10.2500  32.7500 Du        
   7132 ****         3.0000  10.2500  33.0000 Du        
   7133 ****         3.0000  10.2500  33.2500 Du        
   7134 ****         3.0000  10.2500  33.5000 Du        
   7135 ****         3.0000  10.2500  33.7500 Du        
   7136 ****         3.0000  10.2500  34.0000 Du        
   7137 ****         3.0000  10.5000  31.0000 Du        
   7138 ****         3.0000  10.5000  31.2500 Du        
   7139 ****         3.0000  10.5000  31.5000 Du        
   7140 ****         3.0000  10.5000  31.7500 Du        
   7141 ****         3.0000  10.5000  32.0000 Du        
   7142 ****         3.0000  10.5000  32.2500 Du        
   7143 ****         3.0000  10.5000  32.5000 Du        
   7144 ****         3.0000  10.5000  32.7500 Du        
   7145 ****         3.0000  10.5000  33.0000 Du        
   7146 ****         3.0000  10.5000  33.2500 Du        
   7147 ****         3.0000  10.5000  33.5000 Du        
   7148 ****         3.0000  10.5000  33.7500 Du        
   7149 ****         3.0000  10.5000  34.0000 Du        
   7150 ****         3.0000  10.7500  30.7500 Du        
   7151 ****         3.0000  10.7500  31.0000 Du        
   7152 ****         3.0000  10.7500  31.2500 Du        
   7153 ****         3.0000  10.7500  31.5000 Du        
   7154 ****         3.0000  10.7500  31.7500 Du        
   7155 ****         3.0000  10.7500  32.0000 Du        
   7156 ****         3.0000  10.7500  32.2500 Du        
   7157 ****         3.0000  10.7500  32.5000 Du        
   7158 ****         3.0000  10.7500  32.7500 Du        
   7159 ****         3.0000  10.7500  33.0000 Du        
   7160 ****         3.0000  10.7500  33.2500 Du        
   7161 ****         3.0000  10.7500  33.5000 Du        
   7162 ****         3.0000  10.7500  33.7500 Du        
   7163 ****         3.0000  10.7500  34.0000 Du        
   7164 ****         3.0000  11.0000  30.7500 Du        
   7165 ****         3.0000  11.0000  31.0000 Du        
   7166 ****         3.0000  11.0000  31.2500 Du        
   7167 ****         3.0000  11.0000  31.5000 Du        
   7168 ****         3.0000  11.0000  31.7500 Du        
   7169 ****         3.0000  11.0000  32.0000 Du        
   7170 ****         3.0000  11.0000  32.2500 Du        
   7171 ****         3.0000  11.0000  32.5000 Du        
   7172 ****         3.0000  11.0000  32.7500 Du        
   7173 ****         3.0000  11.0000  33.0000 Du        
   7174 ****         3.0000  11.0000  33.2500 Du        
   7175 ****         3.0000  11.0000  33.5000 Du        
   7176 ****         3.0000  11.0000  33.7500 Du        
   7177 ****         3.0000  11.0000  34.0000 Du        
   7178 ****         3.0000  11.2500  30.7500 Du        
   7179 ****         3.0000  11.2500  31.0000 Du        
   7180 ****         3.0000  11.2500  31.2500 Du        
   7181 ****         3.0000  11.2500  31.5000 Du        
   7182 ****         3.0000  11.2500  31.7500 Du        
   7183 ****         3.0000  11.2500  32.0000 Du        
   7184 ****         3.0000  11.2500  32.2500 Du        
   7185 ****         3.0000  11.2500  32.5000 Du        
   7186 ****         3.0000  11.2500  32.7500 Du        
   7187 ****         3.0000  11.2500  33.0000 Du        
   7188 ****         3.0000  11.2500  33.2500 Du        
   7189 ****         3.0000  11.2500  33.5000 Du        
   7190 ****         3.0000  11.2500  33.7500 Du        
   7191 ****         3.0000  11.2500  34.0000 Du        
   7192 ****         3.0000  11.5000  30.7500 Du        
   7193 ****         3.0000  11.5000  31.0000 Du        
   7194 ****         3.0000  11.5000  31.2500 Du        
   7195 ****         3.0000  11.5000  31.5000 Du        
   7196 ****         3.0000  11.5000  31.7500 Du        
   7197 ****         3.0000  11.5000  32.0000 Du        
   7198 ****         3.0000  11.5000  32.2500 Du        
   7199 ****         3.0000  11.5000  32.5000 Du        
   7200 ****         3.0000  11.5000  32.7500 Du        
   7201 ****         3.0000  11.5000  33.0000 Du        
   7202 ****         3.0000  11.5000  33.2500 Du        
   7203 ****         3.0000  11.5000  33.5000 Du        
   7204 ****         3.0000  11.5000  33.7500 Du        
   7205 ****         3.0000  11.5000  34.0000 Du        
   7206 ****         3.0000  11.7500  30.7500 Du        
   7207 ****         3.0000  11.7500  31.0000 Du        
   7208 ****         3.0000  11.7500  31.2500 Du        
   7209 ****         3.0000  11.7500  31.5000 Du        
   7210 ****         3.0000  11.7500  31.7500 Du        
   7211 ****         3.0000  11.7500  32.0000 Du        
   7212 ****         3.0000  11.7500  32.2500 Du        
   7213 ****         3.0000  11.7500  32.5000 Du        
   7214 ****         3.0000  11.7500  32.7500 Du        
   7215 ****         3.0000  11.7500  33.0000 Du        
   7216 ****         3.0000  11.7500  33.2500 Du        
   7217 ****         3.0000  11.7500  33.5000 Du        
   7218 ****         3.0000  11.7500  33.7500 Du        
   7219 ****         3.0000  11.7500  34.0000 Du        
   7220 ****         3.0000  12.0000  30.7500 Du        
   7221 ****         3.0000  12.0000  31.0000 Du        
   7222 ****         3.0000  12.0000  31.2500 Du        
   7223 ****         3.0000  12.0000  31.5000 Du        
   7224 ****         3.0000  12.0000  31.7500 Du        
   7225 ****         3.0000  12.0000  32.0000 Du        
   7226 ****         3.0000  12.0000  32.2500 Du        
   7227 ****         3.0000  12.0000  32.5000 Du        
   7228 ****         3.0000  12.0000  32.7500 Du        
   7229 ****         3.0000  12.0000  33.0000 Du        
   7230 ****         3.0000  12.0000  33.2500 Du        
   7231 ****         3.0000  12.0000  33.5000 Du        
   7232 ****         3.0000  12.0000  33.7500 Du        
   7233 ****         3.0000  12.2500  30.7500 Du        
   7234 ****         3.0000  12.2500  31.0000 Du        
   7235 ****         3.0000  12.2500  31.2500 Du        
   7236 ****         3.0000  12.2500  31.5000 Du        
   7237 ****         3.0000  12.2500  31.7500 Du        
   7238 ****         3.0000  12.2500  32.0000 Du        
   7239 ****         3.0000  12.2500  32.2500 Du        
   7240 ****         3.0000  12.2500  32.5000 Du        
   7241 ****         3.0000  12.2500  32.7500 Du        
   7242 ****         3.0000  12.2500  33.0000 Du        
   7243 ****         3.0000  12.2500  33.2500 Du        
   7244 ****         3.0000  12.2500  33.5000 Du        
   7245 ****         3.0000  12.2500  33.7500 Du        
   7246 ****         3.0000  12.5000  31.0000 Du        
   7247 ****         3.0000  12.5000  31.2500 Du        
   7248 ****         3.0000  12.5000  31.5000 Du        
   7249 ****         3.0000  12.5000  31.7500 Du        
   7250 ****         3.0000  12.5000  32.0000 Du        
   7251 ****         3.0000  12.5000  32.2500 Du        
   7252 ****         3.0000  12.5000  32.5000 Du        
   7253 ****         3.0000  12.5000  32.7500 Du        
   7254 ****         3.0000  12.5000  33.0000 Du        
   7255 ****         3.0000  12.5000  33.2500 Du        
   7256 ****         3.0000  12.5000  33.5000 Du        
   7257 ****         3.0000  12.7500  31.0000 Du        
   7258 ****         3.0000  12.7500  31.2500 Du        
   7259 ****         3.0000  12.7500  31.5000 Du        
   7260 ****         3.0000  12.7500  31.7500 Du        
   7261 ****         3.0000  12.7500  32.0000 Du        
   7262 ****         3.0000  12.7500  32.2500 Du        
   7263 ****         3.0000  12.7500  32.5000 Du        
   7264 ****         3.0000  12.7500  32.7500 Du        
   7265 ****         3.0000  12.7500  33.0000 Du        
   7266 ****         3.0000  13.0000  31.0000 Du        
   7267 ****         3.0000  13.0000  31.2500 Du        
   7268 ****         3.0000  13.0000  31.5000 Du        
   7269 ****         3.0000  13.0000  31.7500 Du        
   7270 ****         3.0000  13.0000  32.0000 Du        
   7271 ****         3.0000  13.0000  32.2500 Du        
   7272 ****         3.0000  13.2500  31.2500 Du        
   7273 ****         3.0000  13.2500  31.5000 Du        
   7274 ****         3.0000  13.2500  31.7500 Du        
   7275 ****         3.0000  13.2500  32.0000 Du        
   7276 ****         3.0000  13.5000  31.2500 Du        
   7277 ****         3.0000  13.5000  31.5000 Du        
   7278 ****         3.0000  22.0000  35.0000 Du        
   7279 ****         3.0000  22.0000  35.2500 Du        
   7280 ****         3.0000  22.0000  35.5000 Du        
   7281 ****         3.0000  22.0000  35.7500 Du        
   7282 ****         3.0000  22.0000  36.0000 Du        
   7283 ****         3.0000  22.0000  36.2500 Du        
   7284 ****         3.0000  22.0000  38.0000 Du        
   7285 ****         3.0000  22.0000  38.2500 Du        
   7286 ****         3.0000  22.2500  34.2500 Du        
   7287 ****         3.0000  22.2500  34.5000 Du        
   7288 ****         3.0000  22.2500  34.7500 Du        
   7289 ****         3.0000  22.2500  35.0000 Du        
   7290 ****         3.0000  22.2500  35.2500 Du        
   7291 ****         3.0000  22.2500  35.5000 Du        
   7292 ****         3.0000  22.2500  35.7500 Du        
   7293 ****         3.0000  22.2500  36.0000 Du        
   7294 ****         3.0000  22.2500  38.0000 Du        
   7295 ****         3.0000  22.2500  38.2500 Du        
   7296 ****         3.0000  22.2500  38.5000 Du        
   7297 ****         3.0000  22.2500  38.7500 Du        
   7298 ****         3.0000  22.5000  34.0000 Du        
   7299 ****         3.0000  22.5000  34.2500 Du        
   7300 ****         3.0000  22.5000  34.5000 Du        
   7301 ****         3.0000  22.5000  34.7500 Du        
   7302 ****         3.0000  22.5000  35.0000 Du        
   7303 ****         3.0000  22.5000  35.2500 Du        
   7304 ****         3.0000  22.5000  35.5000 Du        
   7305 ****         3.0000  22.5000  35.7500 Du        
   7306 ****         3.0000  22.5000  38.5000 Du        
   7307 ****         3.0000  22.5000  38.7500 Du        
   7308 ****         3.0000  22.5000  39.0000 Du        
   7309 ****         3.0000  22.7500  34.2500 Du        
   7310 ****         3.0000  22.7500  34.5000 Du        
   7311 ****         3.0000  22.7500  34.7500 Du        
   7312 ****         3.0000  22.7500  35.0000 Du        
   7313 ****         3.0000  22.7500  35.2500 Du        
   7314 ****         3.0000  22.7500  35.5000 Du        
   7315 ****         3.0000  22.7500  38.5000 Du        
   7316 ****         3.0000  22.7500  38.7500 Du        
   7317 ****         3.0000  22.7500  39.0000 Du        
   7318 ****         3.0000  23.0000  34.2500 Du        
   7319 ****         3.0000  23.0000  34.5000 Du        
   7320 ****         3.0000  23.0000  34.7500 Du        
   7321 ****         3.0000  23.0000  35.0000 Du        
   7322 ****         3.0000  23.0000  35.2500 Du        
   7323 ****         3.0000  23.0000  38.5000 Du        
   7324 ****         3.0000  23.0000  38.7500 Du        
   7325 ****         3.0000  23.0000  39.0000 Du        
   7326 ****         3.0000  23.0000  39.2500 Du        
   7327 ****         3.0000  23.0000  39.5000 Du        
   7328 ****         3.0000  23.2500  34.5000 Du        
   7329 ****         3.0000  23.2500  34.7500 Du        
   7330 ****         3.0000  23.2500  35.0000 Du        
   7331 ****         3.0000  23.2500  35.2500 Du        
   7332 ****         3.0000  23.2500  38.5000 Du        
   7333 ****         3.0000  23.2500  38.7500 Du        
   7334 ****         3.0000  23.2500  39.0000 Du        
   7335 ****         3.0000  23.2500  39.2500 Du        
   7336 ****         3.0000  23.2500  39.5000 Du        
   7337 ****         3.0000  23.2500  39.7500 Du        
   7338 ****         3.0000  23.5000  34.7500 Du        
   7339 ****         3.0000  23.5000  38.5000 Du        
   7340 ****         3.0000  23.5000  38.7500 Du        
   7341 ****         3.0000  23.5000  39.0000 Du        
   7342 ****         3.0000  23.5000  39.2500 Du        
   7343 ****         3.0000  23.5000  39.5000 Du        
   7344 ****         3.0000  23.5000  39.7500 Du        
   7345 ****         3.0000  23.5000  40.0000 Du        
   7346 ****         3.0000  23.7500  38.7500 Du        
   7347 ****         3.0000  23.7500  39.0000 Du        
   7348 ****         3.0000  23.7500  39.2500 Du        
   7349 ****         3.0000  23.7500  39.5000 Du        
   7350 ****         3.0000  23.7500  39.7500 Du        
   7351 ****         3.0000  23.7500  40.0000 Du        
   7352 ****         3.0000  23.7500  40.2500 Du        
   7353 ****         3.0000  24.0000  38.7500 Du        
   7354 ****         3.0000  24.0000  39.0000 Du        
   7355 ****         3.0000  24.0000  39.2500 Du        
   7356 ****         3.0000  24.0000  39.5000 Du        
   7357 ****         3.0000  24.0000  39.7500 Du        
   7358 ****         3.0000  24.0000  40.0000 Du        
   7359 ****         3.0000  24.0000  40.2500 Du        
   7360 ****         3.0000  24.2500  39.0000 Du        
   7361 ****         3.0000  24.2500  39.2500 Du        
   7362 ****         3.0000  24.2500  39.5000 Du        
   7363 ****         3.0000  24.2500  39.7500 Du        
   7364 ****         3.0000  24.2500  40.0000 Du        
   7365 ****         3.0000  24.2500  40.2500 Du        
   7366 ****         3.0000  24.5000  39.0000 Du        
   7367 ****         3.0000  24.5000  39.2500 Du        
   7368 ****         3.0000  24.5000  39.5000 Du        
   7369 ****         3.0000  24.5000  39.7500 Du        
   7370 ****         3.0000  24.5000  40.0000 Du        
   7371 ****         3.0000  24.5000  40.2500 Du        
   7372 ****         3.0000  24.5000  40.5000 Du        
   7373 ****         3.0000  24.7500  39.0000 Du        
   7374 ****         3.0000  24.7500  39.2500 Du        
   7375 ****         3.0000  24.7500  39.5000 Du        
   7376 ****         3.0000  24.7500  39.7500 Du        
   7377 ****         3.0000  24.7500  40.0000 Du        
   7378 ****         3.0000  24.7500  40.2500 Du        
   7379 ****         3.0000  24.7500  40.5000 Du        
   7380 ****         3.2500   0.0000  43.2500 Du        
   7381 ****         3.2500   0.0000  43.5000 Du        
   7382 ****         3.2500   0.0000  43.7500 Du        
   7383 ****         3.2500   0.0000  44.0000 Du        
   7384 ****         3.2500   0.2500  43.5000 Du        
   7385 ****         3.2500   0.2500  43.7500 Du        
   7386 ****         3.2500   0.2500  44.0000 Du        
   7387 ****         3.2500   5.2500  37.0000 Du        
   7388 ****         3.2500   5.2500  37.2500 Du        
   7389 ****         3.2500   5.2500  37.5000 Du        
   7390 ****         3.2500   5.5000  36.7500 Du        
   7391 ****         3.2500   5.5000  37.0000 Du        
   7392 ****         3.2500   5.5000  37.2500 Du        
   7393 ****         3.2500   5.5000  37.5000 Du        
   7394 ****         3.2500   5.7500  36.2500 Du        
   7395 ****         3.2500   5.7500  36.5000 Du        
   7396 ****         3.2500   5.7500  36.7500 Du        
   7397 ****         3.2500   5.7500  37.0000 Du        
   7398 ****         3.2500   5.7500  37.2500 Du        
   7399 ****         3.2500   5.7500  37.5000 Du        
   7400 ****         3.2500   5.7500  37.7500 Du        
   7401 ****         3.2500   6.0000  36.2500 Du        
   7402 ****         3.2500   6.0000  36.5000 Du        
   7403 ****         3.2500   6.0000  36.7500 Du        
   7404 ****         3.2500   6.0000  37.0000 Du        
   7405 ****         3.2500   6.0000  37.2500 Du        
   7406 ****         3.2500   6.0000  37.5000 Du        
   7407 ****         3.2500   6.0000  37.7500 Du        
   7408 ****         3.2500   6.2500  36.0000 Du        
   7409 ****         3.2500   6.2500  36.2500 Du        
   7410 ****         3.2500   6.2500  36.5000 Du        
   7411 ****         3.2500   6.2500  36.7500 Du        
   7412 ****         3.2500   6.2500  37.0000 Du        
   7413 ****         3.2500   6.2500  37.2500 Du        
   7414 ****         3.2500   6.2500  37.5000 Du        
   7415 ****         3.2500   6.2500  37.7500 Du        
   7416 ****         3.2500   6.2500  38.0000 Du        
   7417 ****         3.2500   6.5000  36.0000 Du        
   7418 ****         3.2500   6.5000  36.2500 Du        
   7419 ****         3.2500   6.5000  36.5000 Du        
   7420 ****         3.2500   6.5000  36.7500 Du        
   7421 ****         3.2500   6.5000  37.0000 Du        
   7422 ****         3.2500   6.5000  37.2500 Du        
   7423 ****         3.2500   6.5000  37.5000 Du        
   7424 ****         3.2500   6.5000  37.7500 Du        
   7425 ****         3.2500   6.5000  38.0000 Du        
   7426 ****         3.2500   6.7500  35.7500 Du        
   7427 ****         3.2500   6.7500  36.0000 Du        
   7428 ****         3.2500   6.7500  36.2500 Du        
   7429 ****         3.2500   6.7500  36.5000 Du        
   7430 ****         3.2500   6.7500  36.7500 Du        
   7431 ****         3.2500   6.7500  37.0000 Du        
   7432 ****         3.2500   6.7500  37.2500 Du        
   7433 ****         3.2500   6.7500  37.5000 Du        
   7434 ****         3.2500   6.7500  37.7500 Du        
   7435 ****         3.2500   6.7500  38.0000 Du        
   7436 ****         3.2500   7.0000  35.7500 Du        
   7437 ****         3.2500   7.0000  36.0000 Du        
   7438 ****         3.2500   7.0000  36.2500 Du        
   7439 ****         3.2500   7.0000  36.5000 Du        
   7440 ****         3.2500   7.0000  36.7500 Du        
   7441 ****         3.2500   7.0000  37.0000 Du        
   7442 ****         3.2500   7.0000  37.2500 Du        
   7443 ****         3.2500   7.0000  37.5000 Du        
   7444 ****         3.2500   7.0000  37.7500 Du        
   7445 ****         3.2500   7.0000  38.0000 Du        
   7446 ****         3.2500   7.2500  35.7500 Du        
   7447 ****         3.2500   7.2500  36.0000 Du        
   7448 ****         3.2500   7.2500  36.2500 Du        
   7449 ****         3.2500   7.2500  36.5000 Du        
   7450 ****         3.2500   7.2500  36.7500 Du        
   7451 ****         3.2500   7.2500  37.0000 Du        
   7452 ****         3.2500   7.2500  37.2500 Du        
   7453 ****         3.2500   7.2500  37.5000 Du        
   7454 ****         3.2500   7.2500  37.7500 Du        
   7455 ****         3.2500   7.2500  38.0000 Du        
   7456 ****         3.2500   7.5000  35.7500 Du        
   7457 ****         3.2500   7.5000  36.0000 Du        
   7458 ****         3.2500   7.5000  36.2500 Du        
   7459 ****         3.2500   7.5000  36.5000 Du        
   7460 ****         3.2500   7.5000  36.7500 Du        
   7461 ****         3.2500   7.5000  37.0000 Du        
   7462 ****         3.2500   7.5000  37.2500 Du        
   7463 ****         3.2500   7.5000  37.5000 Du        
   7464 ****         3.2500   7.5000  37.7500 Du        
   7465 ****         3.2500   7.7500  36.0000 Du        
   7466 ****         3.2500   7.7500  36.2500 Du        
   7467 ****         3.2500   7.7500  36.5000 Du        
   7468 ****         3.2500   7.7500  36.7500 Du        
   7469 ****         3.2500   7.7500  37.0000 Du        
   7470 ****         3.2500   9.7500  32.0000 Du        
   7471 ****         3.2500   9.7500  32.2500 Du        
   7472 ****         3.2500   9.7500  32.5000 Du        
   7473 ****         3.2500   9.7500  32.7500 Du        
   7474 ****         3.2500   9.7500  33.0000 Du        
   7475 ****         3.2500  10.0000  31.5000 Du        
   7476 ****         3.2500  10.0000  31.7500 Du        
   7477 ****         3.2500  10.0000  32.0000 Du        
   7478 ****         3.2500  10.0000  32.2500 Du        
   7479 ****         3.2500  10.0000  32.5000 Du        
   7480 ****         3.2500  10.0000  32.7500 Du        
   7481 ****         3.2500  10.0000  33.0000 Du        
   7482 ****         3.2500  10.0000  33.2500 Du        
   7483 ****         3.2500  10.0000  33.5000 Du        
   7484 ****         3.2500  10.2500  31.0000 Du        
   7485 ****         3.2500  10.2500  31.2500 Du        
   7486 ****         3.2500  10.2500  31.5000 Du        
   7487 ****         3.2500  10.2500  31.7500 Du        
   7488 ****         3.2500  10.2500  32.0000 Du        
   7489 ****         3.2500  10.2500  32.2500 Du        
   7490 ****         3.2500  10.2500  32.5000 Du        
   7491 ****         3.2500  10.2500  32.7500 Du        
   7492 ****         3.2500  10.2500  33.0000 Du        
   7493 ****         3.2500  10.2500  33.2500 Du        
   7494 ****         3.2500  10.2500  33.5000 Du        
   7495 ****         3.2500  10.2500  33.7500 Du        
   7496 ****         3.2500  10.5000  31.0000 Du        
   7497 ****         3.2500  10.5000  31.2500 Du        
   7498 ****         3.2500  10.5000  31.5000 Du        
   7499 ****         3.2500  10.5000  31.7500 Du        
   7500 ****         3.2500  10.5000  32.0000 Du        
   7501 ****         3.2500  10.5000  32.2500 Du        
   7502 ****         3.2500  10.5000  32.5000 Du        
   7503 ****         3.2500  10.5000  32.7500 Du        
   7504 ****         3.2500  10.5000  33.0000 Du        
   7505 ****         3.2500  10.5000  33.2500 Du        
   7506 ****         3.2500  10.5000  33.5000 Du        
   7507 ****         3.2500  10.5000  33.7500 Du        
   7508 ****         3.2500  10.5000  34.0000 Du        
   7509 ****         3.2500  10.7500  30.7500 Du        
   7510 ****         3.2500  10.7500  31.0000 Du        
   7511 ****         3.2500  10.7500  31.2500 Du        
   7512 ****         3.2500  10.7500  31.5000 Du        
   7513 ****         3.2500  10.7500  31.7500 Du        
   7514 ****         3.2500  10.7500  32.0000 Du        
   7515 ****         3.2500  10.7500  32.2500 Du        
   7516 ****         3.2500  10.7500  32.5000 Du        
   7517 ****         3.2500  10.7500  32.7500 Du        
   7518 ****         3.2500  10.7500  33.0000 Du        
   7519 ****         3.2500  10.7500  33.2500 Du        
   7520 ****         3.2500  10.7500  33.5000 Du        
   7521 ****         3.2500  10.7500  33.7500 Du        
   7522 ****         3.2500  10.7500  34.0000 Du        
   7523 ****         3.2500  11.0000  30.7500 Du        
   7524 ****         3.2500  11.0000  31.0000 Du        
   7525 ****         3.2500  11.0000  31.2500 Du        
   7526 ****         3.2500  11.0000  31.5000 Du        
   7527 ****         3.2500  11.0000  31.7500 Du        
   7528 ****         3.2500  11.0000  32.0000 Du        
   7529 ****         3.2500  11.0000  32.2500 Du        
   7530 ****         3.2500  11.0000  32.5000 Du        
   7531 ****         3.2500  11.0000  32.7500 Du        
   7532 ****         3.2500  11.0000  33.0000 Du        
   7533 ****         3.2500  11.0000  33.2500 Du        
   7534 ****         3.2500  11.0000  33.5000 Du        
   7535 ****         3.2500  11.0000  33.7500 Du        
   7536 ****         3.2500  11.0000  34.0000 Du        
   7537 ****         3.2500  11.2500  30.7500 Du        
   7538 ****         3.2500  11.2500  31.0000 Du        
   7539 ****         3.2500  11.2500  31.2500 Du        
   7540 ****         3.2500  11.2500  31.5000 Du        
   7541 ****         3.2500  11.2500  31.7500 Du        
   7542 ****         3.2500  11.2500  32.0000 Du        
   7543 ****         3.2500  11.2500  32.2500 Du        
   7544 ****         3.2500  11.2500  32.5000 Du        
   7545 ****         3.2500  11.2500  32.7500 Du        
   7546 ****         3.2500  11.2500  33.0000 Du        
   7547 ****         3.2500  11.2500  33.2500 Du        
   7548 ****         3.2500  11.2500  33.5000 Du        
   7549 ****         3.2500  11.2500  33.7500 Du        
   7550 ****         3.2500  11.2500  34.0000 Du        
   7551 ****         3.2500  11.5000  30.7500 Du        
   7552 ****         3.2500  11.5000  31.0000 Du        
   7553 ****         3.2500  11.5000  31.2500 Du        
   7554 ****         3.2500  11.5000  31.5000 Du        
   7555 ****         3.2500  11.5000  31.7500 Du        
   7556 ****         3.2500  11.5000  32.0000 Du        
   7557 ****         3.2500  11.5000  32.2500 Du        
   7558 ****         3.2500  11.5000  32.5000 Du        
   7559 ****         3.2500  11.5000  32.7500 Du        
   7560 ****         3.2500  11.5000  33.0000 Du        
   7561 ****         3.2500  11.5000  33.2500 Du        
   7562 ****         3.2500  11.5000  33.5000 Du        
   7563 ****         3.2500  11.5000  33.7500 Du        
   7564 ****         3.2500  11.5000  34.0000 Du        
   7565 ****         3.2500  11.7500  30.7500 Du        
   7566 ****         3.2500  11.7500  31.0000 Du        
   7567 ****         3.2500  11.7500  31.2500 Du        
   7568 ****         3.2500  11.7500  31.5000 Du        
   7569 ****         3.2500  11.7500  31.7500 Du        
   7570 ****         3.2500  11.7500  32.0000 Du        
   7571 ****         3.2500  11.7500  32.2500 Du        
   7572 ****         3.2500  11.7500  32.5000 Du        
   7573 ****         3.2500  11.7500  32.7500 Du        
   7574 ****         3.2500  11.7500  33.0000 Du        
   7575 ****         3.2500  11.7500  33.2500 Du        
   7576 ****         3.2500  11.7500  33.5000 Du        
   7577 ****         3.2500  11.7500  33.7500 Du        
   7578 ****         3.2500  11.7500  34.0000 Du        
   7579 ****         3.2500  12.0000  30.7500 Du        
   7580 ****         3.2500  12.0000  31.0000 Du        
   7581 ****         3.2500  12.0000  31.2500 Du        
   7582 ****         3.2500  12.0000  31.5000 Du        
   7583 ****         3.2500  12.0000  31.7500 Du        
   7584 ****         3.2500  12.0000  32.0000 Du        
   7585 ****         3.2500  12.0000  32.2500 Du        
   7586 ****         3.2500  12.0000  32.5000 Du        
   7587 ****         3.2500  12.0000  32.7500 Du        
   7588 ****         3.2500  12.0000  33.0000 Du        
   7589 ****         3.2500  12.0000  33.2500 Du        
   7590 ****         3.2500  12.0000  33.5000 Du        
   7591 ****         3.2500  12.0000  33.7500 Du        
   7592 ****         3.2500  12.0000  34.0000 Du        
   7593 ****         3.2500  12.2500  30.7500 Du        
   7594 ****         3.2500  12.2500  31.0000 Du        
   7595 ****         3.2500  12.2500  31.2500 Du        
   7596 ****         3.2500  12.2500  31.5000 Du        
   7597 ****         3.2500  12.2500  31.7500 Du        
   7598 ****         3.2500  12.2500  32.0000 Du        
   7599 ****         3.2500  12.2500  32.2500 Du        
   7600 ****         3.2500  12.2500  32.5000 Du        
   7601 ****         3.2500  12.2500  32.7500 Du        
   7602 ****         3.2500  12.2500  33.0000 Du        
   7603 ****         3.2500  12.2500  33.2500 Du        
   7604 ****         3.2500  12.2500  33.5000 Du        
   7605 ****         3.2500  12.2500  33.7500 Du        
   7606 ****         3.2500  12.2500  34.0000 Du        
   7607 ****         3.2500  12.5000  31.0000 Du        
   7608 ****         3.2500  12.5000  31.2500 Du        
   7609 ****         3.2500  12.5000  31.5000 Du        
   7610 ****         3.2500  12.5000  31.7500 Du        
   7611 ****         3.2500  12.5000  32.0000 Du        
   7612 ****         3.2500  12.5000  32.2500 Du        
   7613 ****         3.2500  12.5000  32.5000 Du        
   7614 ****         3.2500  12.5000  32.7500 Du        
   7615 ****         3.2500  12.5000  33.0000 Du        
   7616 ****         3.2500  12.5000  33.2500 Du        
   7617 ****         3.2500  12.5000  33.5000 Du        
   7618 ****         3.2500  12.5000  33.7500 Du        
   7619 ****         3.2500  12.7500  31.0000 Du        
   7620 ****         3.2500  12.7500  31.2500 Du        
   7621 ****         3.2500  12.7500  31.5000 Du        
   7622 ****         3.2500  12.7500  31.7500 Du        
   7623 ****         3.2500  12.7500  32.0000 Du        
   7624 ****         3.2500  12.7500  32.2500 Du        
   7625 ****         3.2500  12.7500  32.5000 Du        
   7626 ****         3.2500  12.7500  32.7500 Du        
   7627 ****         3.2500  12.7500  33.0000 Du        
   7628 ****         3.2500  12.7500  33.2500 Du        
   7629 ****         3.2500  13.0000  31.0000 Du        
   7630 ****         3.2500  13.0000  31.2500 Du        
   7631 ****         3.2500  13.0000  31.5000 Du        
   7632 ****         3.2500  13.0000  31.7500 Du        
   7633 ****         3.2500  13.0000  32.0000 Du        
   7634 ****         3.2500  13.0000  32.2500 Du        
   7635 ****         3.2500  13.0000  32.5000 Du        
   7636 ****         3.2500  13.0000  32.7500 Du        
   7637 ****         3.2500  13.2500  31.2500 Du        
   7638 ****         3.2500  13.2500  31.5000 Du        
   7639 ****         3.2500  13.2500  31.7500 Du        
   7640 ****         3.2500  13.2500  32.0000 Du        
   7641 ****         3.2500  13.2500  32.2500 Du        
   7642 ****         3.2500  13.5000  31.2500 Du        
   7643 ****         3.2500  13.5000  31.5000 Du        
   7644 ****         3.2500  13.5000  31.7500 Du        
   7645 ****         3.2500  13.5000  32.0000 Du        
   7646 ****         3.2500  22.0000  34.2500 Du        
   7647 ****         3.2500  22.0000  34.5000 Du        
   7648 ****         3.2500  22.0000  34.7500 Du        
   7649 ****         3.2500  22.0000  35.0000 Du        
   7650 ****         3.2500  22.0000  35.2500 Du        
   7651 ****         3.2500  22.0000  35.5000 Du        
   7652 ****         3.2500  22.0000  35.7500 Du        
   7653 ****         3.2500  22.0000  36.0000 Du        
   7654 ****         3.2500  22.0000  38.2500 Du        
   7655 ****         3.2500  22.0000  38.5000 Du        
   7656 ****         3.2500  22.0000  38.7500 Du        
   7657 ****         3.2500  22.0000  39.0000 Du        
   7658 ****         3.2500  22.0000  39.2500 Du        
   7659 ****         3.2500  22.0000  39.5000 Du        
   7660 ****         3.2500  22.2500  34.0000 Du        
   7661 ****         3.2500  22.2500  34.2500 Du        
   7662 ****         3.2500  22.2500  34.5000 Du        
   7663 ****         3.2500  22.2500  34.7500 Du        
   7664 ****         3.2500  22.2500  35.0000 Du        
   7665 ****         3.2500  22.2500  35.2500 Du        
   7666 ****         3.2500  22.2500  35.5000 Du        
   7667 ****         3.2500  22.2500  35.7500 Du        
   7668 ****         3.2500  22.2500  36.0000 Du        
   7669 ****         3.2500  22.2500  38.0000 Du        
   7670 ****         3.2500  22.2500  38.2500 Du        
   7671 ****         3.2500  22.2500  38.5000 Du        
   7672 ****         3.2500  22.2500  38.7500 Du        
   7673 ****         3.2500  22.2500  39.0000 Du        
   7674 ****         3.2500  22.2500  39.2500 Du        
   7675 ****         3.2500  22.2500  39.5000 Du        
   7676 ****         3.2500  22.5000  34.0000 Du        
   7677 ****         3.2500  22.5000  34.2500 Du        
   7678 ****         3.2500  22.5000  34.5000 Du        
   7679 ****         3.2500  22.5000  34.7500 Du        
   7680 ****         3.2500  22.5000  35.0000 Du        
   7681 ****         3.2500  22.5000  35.2500 Du        
   7682 ****         3.2500  22.5000  35.5000 Du        
   7683 ****         3.2500  22.5000  35.7500 Du        
   7684 ****         3.2500  22.5000  36.0000 Du        
   7685 ****         3.2500  22.5000  38.2500 Du        
   7686 ****         3.2500  22.5000  38.5000 Du        
   7687 ****         3.2500  22.5000  38.7500 Du        
   7688 ****         3.2500  22.5000  39.0000 Du        
   7689 ****         3.2500  22.5000  39.2500 Du        
   7690 ****         3.2500  22.5000  39.5000 Du        
   7691 ****         3.2500  22.5000  39.7500 Du        
   7692 ****         3.2500  22.7500  34.2500 Du        
   7693 ****         3.2500  22.7500  34.5000 Du        
   7694 ****         3.2500  22.7500  34.7500 Du        
   7695 ****         3.2500  22.7500  35.0000 Du        
   7696 ****         3.2500  22.7500  35.2500 Du        
   7697 ****         3.2500  22.7500  35.5000 Du        
   7698 ****         3.2500  22.7500  35.7500 Du        
   7699 ****         3.2500  22.7500  38.5000 Du        
   7700 ****         3.2500  22.7500  38.7500 Du        
   7701 ****         3.2500  22.7500  39.0000 Du        
   7702 ****         3.2500  22.7500  39.2500 Du        
   7703 ****         3.2500  22.7500  39.5000 Du        
   7704 ****         3.2500  22.7500  39.7500 Du        
   7705 ****         3.2500  23.0000  34.2500 Du        
   7706 ****         3.2500  23.0000  34.5000 Du        
   7707 ****         3.2500  23.0000  34.7500 Du        
   7708 ****         3.2500  23.0000  35.0000 Du        
   7709 ****         3.2500  23.0000  35.2500 Du        
   7710 ****         3.2500  23.0000  35.5000 Du        
   7711 ****         3.2500  23.0000  38.5000 Du        
   7712 ****         3.2500  23.0000  38.7500 Du        
   7713 ****         3.2500  23.0000  39.0000 Du        
   7714 ****         3.2500  23.0000  39.2500 Du        
   7715 ****         3.2500  23.0000  39.5000 Du        
   7716 ****         3.2500  23.0000  39.7500 Du        
   7717 ****         3.2500  23.0000  40.0000 Du        
   7718 ****         3.2500  23.2500  34.5000 Du        
   7719 ****         3.2500  23.2500  34.7500 Du        
   7720 ****         3.2500  23.2500  35.0000 Du        
   7721 ****         3.2500  23.2500  35.2500 Du        
   7722 ****         3.2500  23.2500  38.5000 Du        
   7723 ****         3.2500  23.2500  38.7500 Du        
   7724 ****         3.2500  23.2500  39.0000 Du        
   7725 ****         3.2500  23.2500  39.2500 Du        
   7726 ****         3.2500  23.2500  39.5000 Du        
   7727 ****         3.2500  23.2500  39.7500 Du        
   7728 ****         3.2500  23.2500  40.0000 Du        
   7729 ****         3.2500  23.5000  34.7500 Du        
   7730 ****         3.2500  23.5000  35.0000 Du        
   7731 ****         3.2500  23.5000  38.5000 Du        
   7732 ****         3.2500  23.5000  38.7500 Du        
   7733 ****         3.2500  23.5000  39.0000 Du        
   7734 ****         3.2500  23.5000  39.2500 Du        
   7735 ****         3.2500  23.5000  39.5000 Du        
   7736 ****         3.2500  23.5000  39.7500 Du        
   7737 ****         3.2500  23.5000  40.0000 Du        
   7738 ****         3.2500  23.7500  38.5000 Du        
   7739 ****         3.2500  23.7500  38.7500 Du        
   7740 ****         3.2500  23.7500  39.0000 Du        
   7741 ****         3.2500  23.7500  39.2500 Du        
   7742 ****         3.2500  23.7500  39.5000 Du        
   7743 ****         3.2500  23.7500  39.7500 Du        
   7744 ****         3.2500  23.7500  40.0000 Du        
   7745 ****         3.2500  23.7500  40.2500 Du        
   7746 ****         3.2500  24.0000  38.5000 Du        
   7747 ****         3.2500  24.0000  38.7500 Du        
   7748 ****         3.2500  24.0000  39.0000 Du        
   7749 ****         3.2500  24.0000  39.2500 Du        
   7750 ****         3.2500  24.0000  39.5000 Du        
   7751 ****         3.2500  24.0000  39.7500 Du        
   7752 ****         3.2500  24.0000  40.0000 Du        
   7753 ****         3.2500  24.0000  40.2500 Du        
   7754 ****         3.2500  24.2500  38.7500 Du        
   7755 ****         3.2500  24.2500  39.0000 Du        
   7756 ****         3.2500  24.2500  39.2500 Du        
   7757 ****         3.2500  24.2500  39.5000 Du        
   7758 ****         3.2500  24.2500  39.7500 Du        
   7759 ****         3.2500  24.2500  40.0000 Du        
   7760 ****         3.2500  24.2500  40.2500 Du        
   7761 ****         3.2500  24.5000  38.7500 Du        
   7762 ****         3.2500  24.5000  39.0000 Du        
   7763 ****         3.2500  24.5000  39.2500 Du        
   7764 ****         3.2500  24.5000  39.5000 Du        
   7765 ****         3.2500  24.5000  39.7500 Du        
   7766 ****         3.2500  24.5000  40.0000 Du        
   7767 ****         3.2500  24.5000  40.2500 Du        
   7768 ****         3.2500  24.5000  40.5000 Du        
   7769 ****         3.2500  24.7500  39.0000 Du        
   7770 ****         3.2500  24.7500  39.2500 Du        
   7771 ****         3.2500  24.7500  39.5000 Du        
   7772 ****         3.2500  24.7500  39.7500 Du        
   7773 ****         3.2500  24.7500  40.0000 Du        
   7774 ****         3.2500  24.7500  40.2500 Du        
   7775 ****         3.2500  24.7500  40.5000 Du        
   7776 ****         3.5000   0.0000  43.5000 Du        
   7777 ****         3.5000   5.2500  37.2500 Du        
   7778 ****         3.5000   5.2500  37.5000 Du        
   7779 ****         3.5000   5.5000  36.7500 Du        
   7780 ****         3.5000   5.5000  37.0000 Du        
   7781 ****         3.5000   5.5000  37.2500 Du        
   7782 ****         3.5000   5.5000  37.5000 Du        
   7783 ****         3.5000   5.7500  36.5000 Du        
   7784 ****         3.5000   5.7500  36.7500 Du        
   7785 ****         3.5000   5.7500  37.0000 Du        
   7786 ****         3.5000   5.7500  37.2500 Du        
   7787 ****         3.5000   5.7500  37.5000 Du        
   7788 ****         3.5000   5.7500  37.7500 Du        
   7789 ****         3.5000   6.0000  36.2500 Du        
   7790 ****         3.5000   6.0000  36.5000 Du        
   7791 ****         3.5000   6.0000  36.7500 Du        
   7792 ****         3.5000   6.0000  37.0000 Du        
   7793 ****         3.5000   6.0000  37.2500 Du        
   7794 ****         3.5000   6.0000  37.5000 Du        
   7795 ****         3.5000   6.0000  37.7500 Du        
   7796 ****         3.5000   6.2500  36.0000 Du        
   7797 ****         3.5000   6.2500  36.2500 Du        
   7798 ****         3.5000   6.2500  36.5000 Du        
   7799 ****         3.5000   6.2500  36.7500 Du        
   7800 ****         3.5000   6.2500  37.0000 Du        
   7801 ****         3.5000   6.2500  37.2500 Du        
   7802 ****         3.5000   6.2500  37.5000 Du        
   7803 ****         3.5000   6.2500  37.7500 Du        
   7804 ****         3.5000   6.5000  36.0000 Du        
   7805 ****         3.5000   6.5000  36.2500 Du        
   7806 ****         3.5000   6.5000  36.5000 Du        
   7807 ****         3.5000   6.5000  36.7500 Du        
   7808 ****         3.5000   6.5000  37.0000 Du        
   7809 ****         3.5000   6.5000  37.2500 Du        
   7810 ****         3.5000   6.5000  37.5000 Du        
   7811 ****         3.5000   6.5000  37.7500 Du        
   7812 ****         3.5000   6.7500  36.0000 Du        
   7813 ****         3.5000   6.7500  36.2500 Du        
   7814 ****         3.5000   6.7500  36.5000 Du        
   7815 ****         3.5000   6.7500  36.7500 Du        
   7816 ****         3.5000   6.7500  37.0000 Du        
   7817 ****         3.5000   6.7500  37.2500 Du        
   7818 ****         3.5000   6.7500  37.5000 Du        
   7819 ****         3.5000   6.7500  37.7500 Du        
   7820 ****         3.5000   7.0000  36.0000 Du        
   7821 ****         3.5000   7.0000  36.2500 Du        
   7822 ****         3.5000   7.0000  36.5000 Du        
   7823 ****         3.5000   7.0000  36.7500 Du        
   7824 ****         3.5000   7.0000  37.0000 Du        
   7825 ****         3.5000   7.0000  37.2500 Du        
   7826 ****         3.5000   7.0000  37.5000 Du        
   7827 ****         3.5000   7.0000  37.7500 Du        
   7828 ****         3.5000   7.2500  36.2500 Du        
   7829 ****         3.5000   7.2500  36.5000 Du        
   7830 ****         3.5000   7.2500  36.7500 Du        
   7831 ****         3.5000   7.2500  37.0000 Du        
   7832 ****         3.5000   7.2500  37.2500 Du        
   7833 ****         3.5000   7.2500  37.5000 Du        
   7834 ****         3.5000  10.0000  31.5000 Du        
   7835 ****         3.5000  10.0000  31.7500 Du        
   7836 ****         3.5000  10.0000  32.0000 Du        
   7837 ****         3.5000  10.0000  32.2500 Du        
   7838 ****         3.5000  10.2500  31.0000 Du        
   7839 ****         3.5000  10.2500  31.2500 Du        
   7840 ****         3.5000  10.2500  31.5000 Du        
   7841 ****         3.5000  10.2500  31.7500 Du        
   7842 ****         3.5000  10.2500  32.0000 Du        
   7843 ****         3.5000  10.2500  32.2500 Du        
   7844 ****         3.5000  10.2500  32.5000 Du        
   7845 ****         3.5000  10.2500  32.7500 Du        
   7846 ****         3.5000  10.2500  33.0000 Du        
   7847 ****         3.5000  10.5000  30.7500 Du        
   7848 ****         3.5000  10.5000  31.0000 Du        
   7849 ****         3.5000  10.5000  31.2500 Du        
   7850 ****         3.5000  10.5000  31.5000 Du        
   7851 ****         3.5000  10.5000  31.7500 Du        
   7852 ****         3.5000  10.5000  32.0000 Du        
   7853 ****         3.5000  10.5000  32.2500 Du        
   7854 ****         3.5000  10.5000  32.5000 Du        
   7855 ****         3.5000  10.5000  32.7500 Du        
   7856 ****         3.5000  10.5000  33.0000 Du        
   7857 ****         3.5000  10.5000  33.2500 Du        
   7858 ****         3.5000  10.5000  33.5000 Du        
   7859 ****         3.5000  10.5000  33.7500 Du        
   7860 ****         3.5000  10.7500  30.7500 Du        
   7861 ****         3.5000  10.7500  31.0000 Du        
   7862 ****         3.5000  10.7500  31.2500 Du        
   7863 ****         3.5000  10.7500  31.5000 Du        
   7864 ****         3.5000  10.7500  31.7500 Du        
   7865 ****         3.5000  10.7500  32.0000 Du        
   7866 ****         3.5000  10.7500  32.2500 Du        
   7867 ****         3.5000  10.7500  32.5000 Du        
   7868 ****         3.5000  10.7500  32.7500 Du        
   7869 ****         3.5000  10.7500  33.0000 Du        
   7870 ****         3.5000  10.7500  33.2500 Du        
   7871 ****         3.5000  10.7500  33.5000 Du        
   7872 ****         3.5000  10.7500  33.7500 Du        
   7873 ****         3.5000  10.7500  34.0000 Du        
   7874 ****         3.5000  11.0000  30.5000 Du        
   7875 ****         3.5000  11.0000  30.7500 Du        
   7876 ****         3.5000  11.0000  31.0000 Du        
   7877 ****         3.5000  11.0000  31.2500 Du        
   7878 ****         3.5000  11.0000  31.5000 Du        
   7879 ****         3.5000  11.0000  31.7500 Du        
   7880 ****         3.5000  11.0000  32.0000 Du        
   7881 ****         3.5000  11.0000  32.2500 Du        
   7882 ****         3.5000  11.0000  32.5000 Du        
   7883 ****         3.5000  11.0000  32.7500 Du        
   7884 ****         3.5000  11.0000  33.0000 Du        
   7885 ****         3.5000  11.0000  33.2500 Du        
   7886 ****         3.5000  11.0000  33.5000 Du        
   7887 ****         3.5000  11.0000  33.7500 Du        
   7888 ****         3.5000  11.0000  34.0000 Du        
   7889 ****         3.5000  11.2500  30.5000 Du        
   7890 ****         3.5000  11.2500  30.7500 Du        
   7891 ****         3.5000  11.2500  31.0000 Du        
   7892 ****         3.5000  11.2500  31.2500 Du        
   7893 ****         3.5000  11.2500  31.5000 Du        
   7894 ****         3.5000  11.2500  31.7500 Du        
   7895 ****         3.5000  11.2500  32.0000 Du        
   7896 ****         3.5000  11.2500  32.2500 Du        
   7897 ****         3.5000  11.2500  32.5000 Du        
   7898 ****         3.5000  11.2500  32.7500 Du        
   7899 ****         3.5000  11.2500  33.0000 Du        
   7900 ****         3.5000  11.2500  33.2500 Du        
   7901 ****         3.5000  11.2500  33.5000 Du        
   7902 ****         3.5000  11.2500  33.7500 Du        
   7903 ****         3.5000  11.2500  34.0000 Du        
   7904 ****         3.5000  11.5000  30.5000 Du        
   7905 ****         3.5000  11.5000  30.7500 Du        
   7906 ****         3.5000  11.5000  31.0000 Du        
   7907 ****         3.5000  11.5000  31.2500 Du        
   7908 ****         3.5000  11.5000  31.5000 Du        
   7909 ****         3.5000  11.5000  31.7500 Du        
   7910 ****         3.5000  11.5000  32.0000 Du        
   7911 ****         3.5000  11.5000  32.2500 Du        
   7912 ****         3.5000  11.5000  32.5000 Du        
   7913 ****         3.5000  11.5000  32.7500 Du        
   7914 ****         3.5000  11.5000  33.0000 Du        
   7915 ****         3.5000  11.5000  33.2500 Du        
   7916 ****         3.5000  11.5000  33.5000 Du        
   7917 ****         3.5000  11.5000  33.7500 Du        
   7918 ****         3.5000  11.5000  34.0000 Du        
   7919 ****         3.5000  11.5000  34.2500 Du        
   7920 ****         3.5000  11.7500  30.7500 Du        
   7921 ****         3.5000  11.7500  31.0000 Du        
   7922 ****         3.5000  11.7500  31.2500 Du        
   7923 ****         3.5000  11.7500  31.5000 Du        
   7924 ****         3.5000  11.7500  31.7500 Du        
   7925 ****         3.5000  11.7500  32.0000 Du        
   7926 ****         3.5000  11.7500  32.2500 Du        
   7927 ****         3.5000  11.7500  32.5000 Du        
   7928 ****         3.5000  11.7500  32.7500 Du        
   7929 ****         3.5000  11.7500  33.0000 Du        
   7930 ****         3.5000  11.7500  33.2500 Du        
   7931 ****         3.5000  11.7500  33.5000 Du        
   7932 ****         3.5000  11.7500  33.7500 Du        
   7933 ****         3.5000  11.7500  34.0000 Du        
   7934 ****         3.5000  11.7500  34.2500 Du        
   7935 ****         3.5000  12.0000  30.7500 Du        
   7936 ****         3.5000  12.0000  31.0000 Du        
   7937 ****         3.5000  12.0000  31.2500 Du        
   7938 ****         3.5000  12.0000  31.5000 Du        
   7939 ****         3.5000  12.0000  31.7500 Du        
   7940 ****         3.5000  12.0000  32.0000 Du        
   7941 ****         3.5000  12.0000  32.2500 Du        
   7942 ****         3.5000  12.0000  32.5000 Du        
   7943 ****         3.5000  12.0000  32.7500 Du        
   7944 ****         3.5000  12.0000  33.0000 Du        
   7945 ****         3.5000  12.0000  33.2500 Du        
   7946 ****         3.5000  12.0000  33.5000 Du        
   7947 ****         3.5000  12.0000  33.7500 Du        
   7948 ****         3.5000  12.0000  34.0000 Du        
   7949 ****         3.5000  12.0000  34.2500 Du        
   7950 ****         3.5000  12.2500  30.7500 Du        
   7951 ****         3.5000  12.2500  31.0000 Du        
   7952 ****         3.5000  12.2500  31.2500 Du        
   7953 ****         3.5000  12.2500  31.5000 Du        
   7954 ****         3.5000  12.2500  31.7500 Du        
   7955 ****         3.5000  12.2500  32.0000 Du        
   7956 ****         3.5000  12.2500  32.2500 Du        
   7957 ****         3.5000  12.2500  32.5000 Du        
   7958 ****         3.5000  12.2500  32.7500 Du        
   7959 ****         3.5000  12.2500  33.0000 Du        
   7960 ****         3.5000  12.2500  33.2500 Du        
   7961 ****         3.5000  12.2500  33.5000 Du        
   7962 ****         3.5000  12.2500  33.7500 Du        
   7963 ****         3.5000  12.2500  34.0000 Du        
   7964 ****         3.5000  12.5000  31.0000 Du        
   7965 ****         3.5000  12.5000  31.2500 Du        
   7966 ****         3.5000  12.5000  31.5000 Du        
   7967 ****         3.5000  12.5000  31.7500 Du        
   7968 ****         3.5000  12.5000  32.0000 Du        
   7969 ****         3.5000  12.5000  32.2500 Du        
   7970 ****         3.5000  12.5000  32.5000 Du        
   7971 ****         3.5000  12.5000  32.7500 Du        
   7972 ****         3.5000  12.5000  33.0000 Du        
   7973 ****         3.5000  12.5000  33.2500 Du        
   7974 ****         3.5000  12.5000  33.5000 Du        
   7975 ****         3.5000  12.5000  33.7500 Du        
   7976 ****         3.5000  12.5000  34.0000 Du        
   7977 ****         3.5000  12.7500  31.0000 Du        
   7978 ****         3.5000  12.7500  31.2500 Du        
   7979 ****         3.5000  12.7500  31.5000 Du        
   7980 ****         3.5000  12.7500  31.7500 Du        
   7981 ****         3.5000  12.7500  32.0000 Du        
   7982 ****         3.5000  12.7500  32.2500 Du        
   7983 ****         3.5000  12.7500  32.5000 Du        
   7984 ****         3.5000  12.7500  32.7500 Du        
   7985 ****         3.5000  12.7500  33.0000 Du        
   7986 ****         3.5000  12.7500  33.2500 Du        
   7987 ****         3.5000  12.7500  33.5000 Du        
   7988 ****         3.5000  12.7500  33.7500 Du        
   7989 ****         3.5000  13.0000  31.2500 Du        
   7990 ****         3.5000  13.0000  31.5000 Du        
   7991 ****         3.5000  13.0000  31.7500 Du        
   7992 ****         3.5000  13.0000  32.0000 Du        
   7993 ****         3.5000  13.0000  32.2500 Du        
   7994 ****         3.5000  13.0000  32.5000 Du        
   7995 ****         3.5000  13.0000  32.7500 Du        
   7996 ****         3.5000  13.0000  33.0000 Du        
   7997 ****         3.5000  13.0000  33.2500 Du        
   7998 ****         3.5000  13.2500  31.5000 Du        
   7999 ****         3.5000  13.2500  31.7500 Du        
   8000 ****         3.5000  13.2500  32.0000 Du        
   8001 ****         3.5000  13.2500  32.2500 Du        
   8002 ****         3.5000  13.2500  32.5000 Du        
   8003 ****         3.5000  13.2500  32.7500 Du        
   8004 ****         3.5000  13.5000  31.5000 Du        
   8005 ****         3.5000  13.5000  31.7500 Du        
   8006 ****         3.5000  13.5000  32.0000 Du        
   8007 ****         3.5000  13.5000  32.2500 Du        
   8008 ****         3.5000  13.7500  31.7500 Du        
   8009 ****         3.5000  13.7500  32.0000 Du        
   8010 ****         3.5000  21.5000  39.7500 Du        
   8011 ****         3.5000  21.7500  34.7500 Du        
   8012 ****         3.5000  21.7500  35.0000 Du        
   8013 ****         3.5000  21.7500  39.0000 Du        
   8014 ****         3.5000  21.7500  39.2500 Du        
   8015 ****         3.5000  21.7500  39.5000 Du        
   8016 ****         3.5000  21.7500  39.7500 Du        
   8017 ****         3.5000  22.0000  34.0000 Du        
   8018 ****         3.5000  22.0000  34.2500 Du        
   8019 ****         3.5000  22.0000  34.5000 Du        
   8020 ****         3.5000  22.0000  34.7500 Du        
   8021 ****         3.5000  22.0000  35.0000 Du        
   8022 ****         3.5000  22.0000  35.2500 Du        
   8023 ****         3.5000  22.0000  38.7500 Du        
   8024 ****         3.5000  22.0000  39.0000 Du        
   8025 ****         3.5000  22.0000  39.2500 Du        
   8026 ****         3.5000  22.0000  39.5000 Du        
   8027 ****         3.5000  22.0000  39.7500 Du        
   8028 ****         3.5000  22.0000  40.0000 Du        
   8029 ****         3.5000  22.2500  34.0000 Du        
   8030 ****         3.5000  22.2500  34.2500 Du        
   8031 ****         3.5000  22.2500  34.5000 Du        
   8032 ****         3.5000  22.2500  34.7500 Du        
   8033 ****         3.5000  22.2500  35.0000 Du        
   8034 ****         3.5000  22.2500  35.2500 Du        
   8035 ****         3.5000  22.2500  35.5000 Du        
   8036 ****         3.5000  22.2500  38.5000 Du        
   8037 ****         3.5000  22.2500  38.7500 Du        
   8038 ****         3.5000  22.2500  39.0000 Du        
   8039 ****         3.5000  22.2500  39.2500 Du        
   8040 ****         3.5000  22.2500  39.5000 Du        
   8041 ****         3.5000  22.2500  39.7500 Du        
   8042 ****         3.5000  22.2500  40.0000 Du        
   8043 ****         3.5000  22.5000  34.0000 Du        
   8044 ****         3.5000  22.5000  34.2500 Du        
   8045 ****         3.5000  22.5000  34.5000 Du        
   8046 ****         3.5000  22.5000  34.7500 Du        
   8047 ****         3.5000  22.5000  35.0000 Du        
   8048 ****         3.5000  22.5000  35.2500 Du        
   8049 ****         3.5000  22.5000  35.5000 Du        
   8050 ****         3.5000  22.5000  35.7500 Du        
   8051 ****         3.5000  22.5000  38.5000 Du        
   8052 ****         3.5000  22.5000  38.7500 Du        
   8053 ****         3.5000  22.5000  39.0000 Du        
   8054 ****         3.5000  22.5000  39.2500 Du        
   8055 ****         3.5000  22.5000  39.5000 Du        
   8056 ****         3.5000  22.5000  39.7500 Du        
   8057 ****         3.5000  22.5000  40.0000 Du        
   8058 ****         3.5000  22.7500  34.2500 Du        
   8059 ****         3.5000  22.7500  34.5000 Du        
   8060 ****         3.5000  22.7500  34.7500 Du        
   8061 ****         3.5000  22.7500  35.0000 Du        
   8062 ****         3.5000  22.7500  35.2500 Du        
   8063 ****         3.5000  22.7500  35.5000 Du        
   8064 ****         3.5000  22.7500  35.7500 Du        
   8065 ****         3.5000  22.7500  38.5000 Du        
   8066 ****         3.5000  22.7500  38.7500 Du        
   8067 ****         3.5000  22.7500  39.0000 Du        
   8068 ****         3.5000  22.7500  39.2500 Du        
   8069 ****         3.5000  22.7500  39.5000 Du        
   8070 ****         3.5000  22.7500  39.7500 Du        
   8071 ****         3.5000  22.7500  40.0000 Du        
   8072 ****         3.5000  23.0000  34.2500 Du        
   8073 ****         3.5000  23.0000  34.5000 Du        
   8074 ****         3.5000  23.0000  34.7500 Du        
   8075 ****         3.5000  23.0000  35.0000 Du        
   8076 ****         3.5000  23.0000  35.2500 Du        
   8077 ****         3.5000  23.0000  35.5000 Du        
   8078 ****         3.5000  23.0000  35.7500 Du        
   8079 ****         3.5000  23.0000  38.5000 Du        
   8080 ****         3.5000  23.0000  38.7500 Du        
   8081 ****         3.5000  23.0000  39.0000 Du        
   8082 ****         3.5000  23.0000  39.2500 Du        
   8083 ****         3.5000  23.0000  39.5000 Du        
   8084 ****         3.5000  23.0000  39.7500 Du        
   8085 ****         3.5000  23.0000  40.0000 Du        
   8086 ****         3.5000  23.2500  34.5000 Du        
   8087 ****         3.5000  23.2500  34.7500 Du        
   8088 ****         3.5000  23.2500  35.0000 Du        
   8089 ****         3.5000  23.2500  35.2500 Du        
   8090 ****         3.5000  23.2500  35.5000 Du        
   8091 ****         3.5000  23.2500  38.5000 Du        
   8092 ****         3.5000  23.2500  38.7500 Du        
   8093 ****         3.5000  23.2500  39.0000 Du        
   8094 ****         3.5000  23.2500  39.2500 Du        
   8095 ****         3.5000  23.2500  39.5000 Du        
   8096 ****         3.5000  23.2500  39.7500 Du        
   8097 ****         3.5000  23.2500  40.0000 Du        
   8098 ****         3.5000  23.5000  34.7500 Du        
   8099 ****         3.5000  23.5000  35.0000 Du        
   8100 ****         3.5000  23.5000  35.2500 Du        
   8101 ****         3.5000  23.5000  38.5000 Du        
   8102 ****         3.5000  23.5000  38.7500 Du        
   8103 ****         3.5000  23.5000  39.0000 Du        
   8104 ****         3.5000  23.5000  39.2500 Du        
   8105 ****         3.5000  23.5000  39.5000 Du        
   8106 ****         3.5000  23.5000  39.7500 Du        
   8107 ****         3.5000  23.5000  40.0000 Du        
   8108 ****         3.5000  23.7500  38.5000 Du        
   8109 ****         3.5000  23.7500  38.7500 Du        
   8110 ****         3.5000  23.7500  39.0000 Du        
   8111 ****         3.5000  23.7500  39.2500 Du        
   8112 ****         3.5000  23.7500  39.5000 Du        
   8113 ****         3.5000  23.7500  39.7500 Du        
   8114 ****         3.5000  23.7500  40.0000 Du        
   8115 ****         3.5000  23.7500  40.2500 Du        
   8116 ****         3.5000  24.0000  38.5000 Du        
   8117 ****         3.5000  24.0000  38.7500 Du        
   8118 ****         3.5000  24.0000  39.0000 Du        
   8119 ****         3.5000  24.0000  39.2500 Du        
   8120 ****         3.5000  24.0000  39.5000 Du        
   8121 ****         3.5000  24.0000  39.7500 Du        
   8122 ****         3.5000  24.0000  40.0000 Du        
   8123 ****         3.5000  24.0000  40.2500 Du        
   8124 ****         3.5000  24.2500  38.7500 Du        
   8125 ****         3.5000  24.2500  39.0000 Du        
   8126 ****         3.5000  24.2500  39.2500 Du        
   8127 ****         3.5000  24.2500  39.5000 Du        
   8128 ****         3.5000  24.2500  39.7500 Du        
   8129 ****         3.5000  24.2500  40.0000 Du        
   8130 ****         3.5000  24.2500  40.2500 Du        
   8131 ****         3.5000  24.5000  38.7500 Du        
   8132 ****         3.5000  24.5000  39.0000 Du        
   8133 ****         3.5000  24.5000  39.2500 Du        
   8134 ****         3.5000  24.5000  39.5000 Du        
   8135 ****         3.5000  24.5000  39.7500 Du        
   8136 ****         3.5000  24.5000  40.0000 Du        
   8137 ****         3.5000  24.5000  40.2500 Du        
   8138 ****         3.5000  24.7500  38.7500 Du        
   8139 ****         3.5000  24.7500  39.0000 Du        
   8140 ****         3.5000  24.7500  39.2500 Du        
   8141 ****         3.5000  24.7500  39.5000 Du        
   8142 ****         3.5000  24.7500  39.7500 Du        
   8143 ****         3.5000  24.7500  40.0000 Du        
   8144 ****         3.5000  24.7500  40.2500 Du        
   8145 ****         3.5000  24.7500  40.5000 Du        
   8146 ****         3.7500   5.2500  37.2500 Du        
   8147 ****         3.7500   5.2500  37.5000 Du        
   8148 ****         3.7500   5.5000  36.7500 Du        
   8149 ****         3.7500   5.5000  37.0000 Du        
   8150 ****         3.7500   5.5000  37.2500 Du        
   8151 ****         3.7500   5.5000  37.5000 Du        
   8152 ****         3.7500   5.7500  36.5000 Du        
   8153 ****         3.7500   5.7500  36.7500 Du        
   8154 ****         3.7500   5.7500  37.0000 Du        
   8155 ****         3.7500   5.7500  37.2500 Du        
   8156 ****         3.7500   5.7500  37.5000 Du        
   8157 ****         3.7500   6.0000  36.2500 Du        
   8158 ****         3.7500   6.0000  36.5000 Du        
   8159 ****         3.7500   6.0000  36.7500 Du        
   8160 ****         3.7500   6.0000  37.0000 Du        
   8161 ****         3.7500   6.0000  37.2500 Du        
   8162 ****         3.7500   6.0000  37.5000 Du        
   8163 ****         3.7500   6.0000  37.7500 Du        
   8164 ****         3.7500   6.2500  36.2500 Du        
   8165 ****         3.7500   6.2500  36.5000 Du        
   8166 ****         3.7500   6.2500  36.7500 Du        
   8167 ****         3.7500   6.2500  37.0000 Du        
   8168 ****         3.7500   6.2500  37.2500 Du        
   8169 ****         3.7500   6.2500  37.5000 Du        
   8170 ****         3.7500   6.2500  37.7500 Du        
   8171 ****         3.7500   6.5000  36.2500 Du        
   8172 ****         3.7500   6.5000  36.5000 Du        
   8173 ****         3.7500   6.5000  36.7500 Du        
   8174 ****         3.7500   6.5000  37.0000 Du        
   8175 ****         3.7500   6.5000  37.2500 Du        
   8176 ****         3.7500   6.5000  37.5000 Du        
   8177 ****         3.7500   6.5000  37.7500 Du        
   8178 ****         3.7500   6.7500  36.2500 Du        
   8179 ****         3.7500   6.7500  36.5000 Du        
   8180 ****         3.7500   6.7500  36.7500 Du        
   8181 ****         3.7500   6.7500  37.0000 Du        
   8182 ****         3.7500   6.7500  37.2500 Du        
   8183 ****         3.7500   6.7500  37.5000 Du        
   8184 ****         3.7500  10.0000  31.5000 Du        
   8185 ****         3.7500  10.0000  31.7500 Du        
   8186 ****         3.7500  10.0000  32.0000 Du        
   8187 ****         3.7500  10.0000  32.2500 Du        
   8188 ****         3.7500  10.2500  31.0000 Du        
   8189 ****         3.7500  10.2500  31.2500 Du        
   8190 ****         3.7500  10.2500  31.5000 Du        
   8191 ****         3.7500  10.2500  31.7500 Du        
   8192 ****         3.7500  10.2500  32.0000 Du        
   8193 ****         3.7500  10.2500  32.2500 Du        
   8194 ****         3.7500  10.2500  32.5000 Du        
   8195 ****         3.7500  10.5000  30.7500 Du        
   8196 ****         3.7500  10.5000  31.0000 Du        
   8197 ****         3.7500  10.5000  31.2500 Du        
   8198 ****         3.7500  10.5000  31.5000 Du        
   8199 ****         3.7500  10.5000  31.7500 Du        
   8200 ****         3.7500  10.5000  32.0000 Du        
   8201 ****         3.7500  10.5000  32.2500 Du        
   8202 ****         3.7500  10.5000  32.5000 Du        
   8203 ****         3.7500  10.5000  32.7500 Du        
   8204 ****         3.7500  10.5000  33.0000 Du        
   8205 ****         3.7500  10.5000  33.2500 Du        
   8206 ****         3.7500  10.7500  30.5000 Du        
   8207 ****         3.7500  10.7500  30.7500 Du        
   8208 ****         3.7500  10.7500  31.0000 Du        
   8209 ****         3.7500  10.7500  31.2500 Du        
   8210 ****         3.7500  10.7500  31.5000 Du        
   8211 ****         3.7500  10.7500  31.7500 Du        
   8212 ****         3.7500  10.7500  32.0000 Du        
   8213 ****         3.7500  10.7500  32.2500 Du        
   8214 ****         3.7500  10.7500  32.5000 Du        
   8215 ****         3.7500  10.7500  32.7500 Du        
   8216 ****         3.7500  10.7500  33.0000 Du        
   8217 ****         3.7500  10.7500  33.2500 Du        
   8218 ****         3.7500  10.7500  33.5000 Du        
   8219 ****         3.7500  10.7500  33.7500 Du        
   8220 ****         3.7500  11.0000  30.5000 Du        
   8221 ****         3.7500  11.0000  30.7500 Du        
   8222 ****         3.7500  11.0000  31.0000 Du        
   8223 ****         3.7500  11.0000  31.2500 Du        
   8224 ****         3.7500  11.0000  31.5000 Du        
   8225 ****         3.7500  11.0000  31.7500 Du        
   8226 ****         3.7500  11.0000  32.0000 Du        
   8227 ****         3.7500  11.0000  32.2500 Du        
   8228 ****         3.7500  11.0000  32.5000 Du        
   8229 ****         3.7500  11.0000  32.7500 Du        
   8230 ****         3.7500  11.0000  33.0000 Du        
   8231 ****         3.7500  11.0000  33.2500 Du        
   8232 ****         3.7500  11.0000  33.5000 Du        
   8233 ****         3.7500  11.0000  33.7500 Du        
   8234 ****         3.7500  11.0000  34.0000 Du        
   8235 ****         3.7500  11.2500  30.5000 Du        
   8236 ****         3.7500  11.2500  30.7500 Du        
   8237 ****         3.7500  11.2500  31.0000 Du        
   8238 ****         3.7500  11.2500  31.2500 Du        
   8239 ****         3.7500  11.2500  31.5000 Du        
   8240 ****         3.7500  11.2500  31.7500 Du        
   8241 ****         3.7500  11.2500  32.0000 Du        
   8242 ****         3.7500  11.2500  32.2500 Du        
   8243 ****         3.7500  11.2500  32.5000 Du        
   8244 ****         3.7500  11.2500  32.7500 Du        
   8245 ****         3.7500  11.2500  33.0000 Du        
   8246 ****         3.7500  11.2500  33.2500 Du        
   8247 ****         3.7500  11.2500  33.5000 Du        
   8248 ****         3.7500  11.2500  33.7500 Du        
   8249 ****         3.7500  11.2500  34.0000 Du        
   8250 ****         3.7500  11.5000  30.5000 Du        
   8251 ****         3.7500  11.5000  30.7500 Du        
   8252 ****         3.7500  11.5000  31.0000 Du        
   8253 ****         3.7500  11.5000  31.2500 Du        
   8254 ****         3.7500  11.5000  31.5000 Du        
   8255 ****         3.7500  11.5000  31.7500 Du        
   8256 ****         3.7500  11.5000  32.0000 Du        
   8257 ****         3.7500  11.5000  32.2500 Du        
   8258 ****         3.7500  11.5000  32.5000 Du        
   8259 ****         3.7500  11.5000  32.7500 Du        
   8260 ****         3.7500  11.5000  33.0000 Du        
   8261 ****         3.7500  11.5000  33.2500 Du        
   8262 ****         3.7500  11.5000  33.5000 Du        
   8263 ****         3.7500  11.5000  33.7500 Du        
   8264 ****         3.7500  11.5000  34.0000 Du        
   8265 ****         3.7500  11.5000  34.2500 Du        
   8266 ****         3.7500  11.7500  30.5000 Du        
   8267 ****         3.7500  11.7500  30.7500 Du        
   8268 ****         3.7500  11.7500  31.0000 Du        
   8269 ****         3.7500  11.7500  31.2500 Du        
   8270 ****         3.7500  11.7500  31.5000 Du        
   8271 ****         3.7500  11.7500  31.7500 Du        
   8272 ****         3.7500  11.7500  32.0000 Du        
   8273 ****         3.7500  11.7500  32.2500 Du        
   8274 ****         3.7500  11.7500  32.5000 Du        
   8275 ****         3.7500  11.7500  32.7500 Du        
   8276 ****         3.7500  11.7500  33.0000 Du        
   8277 ****         3.7500  11.7500  33.2500 Du        
   8278 ****         3.7500  11.7500  33.5000 Du        
   8279 ****         3.7500  11.7500  33.7500 Du        
   8280 ****         3.7500  11.7500  34.0000 Du        
   8281 ****         3.7500  11.7500  34.2500 Du        
   8282 ****         3.7500  12.0000  30.7500 Du        
   8283 ****         3.7500  12.0000  31.0000 Du        
   8284 ****         3.7500  12.0000  31.2500 Du        
   8285 ****         3.7500  12.0000  31.5000 Du        
   8286 ****         3.7500  12.0000  31.7500 Du        
   8287 ****         3.7500  12.0000  32.0000 Du        
   8288 ****         3.7500  12.0000  32.2500 Du        
   8289 ****         3.7500  12.0000  32.5000 Du        
   8290 ****         3.7500  12.0000  32.7500 Du        
   8291 ****         3.7500  12.0000  33.0000 Du        
   8292 ****         3.7500  12.0000  33.2500 Du        
   8293 ****         3.7500  12.0000  33.5000 Du        
   8294 ****         3.7500  12.0000  33.7500 Du        
   8295 ****         3.7500  12.0000  34.0000 Du        
   8296 ****         3.7500  12.0000  34.2500 Du        
   8297 ****         3.7500  12.2500  30.7500 Du        
   8298 ****         3.7500  12.2500  31.0000 Du        
   8299 ****         3.7500  12.2500  31.2500 Du        
   8300 ****         3.7500  12.2500  31.5000 Du        
   8301 ****         3.7500  12.2500  31.7500 Du        
   8302 ****         3.7500  12.2500  32.0000 Du        
   8303 ****         3.7500  12.2500  32.2500 Du        
   8304 ****         3.7500  12.2500  32.5000 Du        
   8305 ****         3.7500  12.2500  32.7500 Du        
   8306 ****         3.7500  12.2500  33.0000 Du        
   8307 ****         3.7500  12.2500  33.2500 Du        
   8308 ****         3.7500  12.2500  33.5000 Du        
   8309 ****         3.7500  12.2500  33.7500 Du        
   8310 ****         3.7500  12.2500  34.0000 Du        
   8311 ****         3.7500  12.2500  34.2500 Du        
   8312 ****         3.7500  12.5000  31.0000 Du        
   8313 ****         3.7500  12.5000  31.2500 Du        
   8314 ****         3.7500  12.5000  31.5000 Du        
   8315 ****         3.7500  12.5000  31.7500 Du        
   8316 ****         3.7500  12.5000  32.0000 Du        
   8317 ****         3.7500  12.5000  32.2500 Du        
   8318 ****         3.7500  12.5000  32.5000 Du        
   8319 ****         3.7500  12.5000  32.7500 Du        
   8320 ****         3.7500  12.5000  33.0000 Du        
   8321 ****         3.7500  12.5000  33.2500 Du        
   8322 ****         3.7500  12.5000  33.5000 Du        
   8323 ****         3.7500  12.5000  33.7500 Du        
   8324 ****         3.7500  12.5000  34.0000 Du        
   8325 ****         3.7500  12.5000  34.2500 Du        
   8326 ****         3.7500  12.7500  31.2500 Du        
   8327 ****         3.7500  12.7500  31.5000 Du        
   8328 ****         3.7500  12.7500  31.7500 Du        
   8329 ****         3.7500  12.7500  32.0000 Du        
   8330 ****         3.7500  12.7500  32.2500 Du        
   8331 ****         3.7500  12.7500  32.5000 Du        
   8332 ****         3.7500  12.7500  32.7500 Du        
   8333 ****         3.7500  12.7500  33.0000 Du        
   8334 ****         3.7500  12.7500  33.2500 Du        
   8335 ****         3.7500  12.7500  33.5000 Du        
   8336 ****         3.7500  12.7500  33.7500 Du        
   8337 ****         3.7500  12.7500  34.0000 Du        
   8338 ****         3.7500  13.0000  31.5000 Du        
   8339 ****         3.7500  13.0000  31.7500 Du        
   8340 ****         3.7500  13.0000  32.0000 Du        
   8341 ****         3.7500  13.0000  32.2500 Du        
   8342 ****         3.7500  13.0000  32.5000 Du        
   8343 ****         3.7500  13.0000  32.7500 Du        
   8344 ****         3.7500  13.0000  33.0000 Du        
   8345 ****         3.7500  13.0000  33.2500 Du        
   8346 ****         3.7500  13.0000  33.5000 Du        
   8347 ****         3.7500  13.2500  31.7500 Du        
   8348 ****         3.7500  13.2500  32.0000 Du        
   8349 ****         3.7500  13.2500  32.2500 Du        
   8350 ****         3.7500  13.2500  32.5000 Du        
   8351 ****         3.7500  13.2500  32.7500 Du        
   8352 ****         3.7500  13.2500  33.0000 Du        
   8353 ****         3.7500  13.5000  31.7500 Du        
   8354 ****         3.7500  13.5000  32.0000 Du        
   8355 ****         3.7500  13.5000  32.2500 Du        
   8356 ****         3.7500  13.5000  32.5000 Du        
   8357 ****         3.7500  13.5000  32.7500 Du        
   8358 ****         3.7500  13.7500  32.0000 Du        
   8359 ****         3.7500  13.7500  32.2500 Du        
   8360 ****         3.7500  13.7500  32.5000 Du        
   8361 ****         3.7500  21.5000  39.5000 Du        
   8362 ****         3.7500  21.5000  39.7500 Du        
   8363 ****         3.7500  21.5000  40.0000 Du        
   8364 ****         3.7500  21.7500  34.0000 Du        
   8365 ****         3.7500  21.7500  34.2500 Du        
   8366 ****         3.7500  21.7500  34.5000 Du        
   8367 ****         3.7500  21.7500  34.7500 Du        
   8368 ****         3.7500  21.7500  35.0000 Du        
   8369 ****         3.7500  21.7500  35.2500 Du        
   8370 ****         3.7500  21.7500  39.0000 Du        
   8371 ****         3.7500  21.7500  39.2500 Du        
   8372 ****         3.7500  21.7500  39.5000 Du        
   8373 ****         3.7500  21.7500  39.7500 Du        
   8374 ****         3.7500  21.7500  40.0000 Du        
   8375 ****         3.7500  22.0000  34.0000 Du        
   8376 ****         3.7500  22.0000  34.2500 Du        
   8377 ****         3.7500  22.0000  34.5000 Du        
   8378 ****         3.7500  22.0000  34.7500 Du        
   8379 ****         3.7500  22.0000  35.0000 Du        
   8380 ****         3.7500  22.0000  35.2500 Du        
   8381 ****         3.7500  22.0000  35.5000 Du        
   8382 ****         3.7500  22.0000  35.7500 Du        
   8383 ****         3.7500  22.0000  38.7500 Du        
   8384 ****         3.7500  22.0000  39.0000 Du        
   8385 ****         3.7500  22.0000  39.2500 Du        
   8386 ****         3.7500  22.0000  39.5000 Du        
   8387 ****         3.7500  22.0000  39.7500 Du        
   8388 ****         3.7500  22.0000  40.0000 Du        
   8389 ****         3.7500  22.2500  34.0000 Du        
   8390 ****         3.7500  22.2500  34.2500 Du        
   8391 ****         3.7500  22.2500  34.5000 Du        
   8392 ****         3.7500  22.2500  34.7500 Du        
   8393 ****         3.7500  22.2500  35.0000 Du        
   8394 ****         3.7500  22.2500  35.2500 Du        
   8395 ****         3.7500  22.2500  35.5000 Du        
   8396 ****         3.7500  22.2500  38.5000 Du        
   8397 ****         3.7500  22.2500  38.7500 Du        
   8398 ****         3.7500  22.2500  39.0000 Du        
   8399 ****         3.7500  22.2500  39.2500 Du        
   8400 ****         3.7500  22.2500  39.5000 Du        
   8401 ****         3.7500  22.2500  39.7500 Du        
   8402 ****         3.7500  22.2500  40.0000 Du        
   8403 ****         3.7500  22.5000  34.0000 Du        
   8404 ****         3.7500  22.5000  34.2500 Du        
   8405 ****         3.7500  22.5000  34.5000 Du        
   8406 ****         3.7500  22.5000  34.7500 Du        
   8407 ****         3.7500  22.5000  35.0000 Du        
   8408 ****         3.7500  22.5000  35.2500 Du        
   8409 ****         3.7500  22.5000  35.5000 Du        
   8410 ****         3.7500  22.5000  35.7500 Du        
   8411 ****         3.7500  22.5000  38.7500 Du        
   8412 ****         3.7500  22.5000  39.0000 Du        
   8413 ****         3.7500  22.5000  39.2500 Du        
   8414 ****         3.7500  22.5000  39.5000 Du        
   8415 ****         3.7500  22.5000  39.7500 Du        
   8416 ****         3.7500  22.5000  40.0000 Du        
   8417 ****         3.7500  22.7500  34.2500 Du        
   8418 ****         3.7500  22.7500  34.5000 Du        
   8419 ****         3.7500  22.7500  34.7500 Du        
   8420 ****         3.7500  22.7500  35.0000 Du        
   8421 ****         3.7500  22.7500  35.2500 Du        
   8422 ****         3.7500  22.7500  35.5000 Du        
   8423 ****         3.7500  22.7500  35.7500 Du        
   8424 ****         3.7500  22.7500  36.0000 Du        
   8425 ****         3.7500  22.7500  38.5000 Du        
   8426 ****         3.7500  22.7500  38.7500 Du        
   8427 ****         3.7500  22.7500  39.0000 Du        
   8428 ****         3.7500  22.7500  39.2500 Du        
   8429 ****         3.7500  22.7500  39.5000 Du        
   8430 ****         3.7500  22.7500  39.7500 Du        
   8431 ****         3.7500  22.7500  40.0000 Du        
   8432 ****         3.7500  23.0000  34.2500 Du        
   8433 ****         3.7500  23.0000  34.5000 Du        
   8434 ****         3.7500  23.0000  34.7500 Du        
   8435 ****         3.7500  23.0000  35.0000 Du        
   8436 ****         3.7500  23.0000  35.2500 Du        
   8437 ****         3.7500  23.0000  35.5000 Du        
   8438 ****         3.7500  23.0000  35.7500 Du        
   8439 ****         3.7500  23.0000  36.0000 Du        
   8440 ****         3.7500  23.0000  38.5000 Du        
   8441 ****         3.7500  23.0000  38.7500 Du        
   8442 ****         3.7500  23.0000  39.0000 Du        
   8443 ****         3.7500  23.0000  39.2500 Du        
   8444 ****         3.7500  23.0000  39.5000 Du        
   8445 ****         3.7500  23.0000  39.7500 Du        
   8446 ****         3.7500  23.0000  40.0000 Du        
   8447 ****         3.7500  23.2500  34.7500 Du        
   8448 ****         3.7500  23.2500  35.0000 Du        
   8449 ****         3.7500  23.2500  35.2500 Du        
   8450 ****         3.7500  23.2500  35.5000 Du        
   8451 ****         3.7500  23.2500  35.7500 Du        
   8452 ****         3.7500  23.2500  38.5000 Du        
   8453 ****         3.7500  23.2500  38.7500 Du        
   8454 ****         3.7500  23.2500  39.0000 Du        
   8455 ****         3.7500  23.2500  39.2500 Du        
   8456 ****         3.7500  23.2500  39.5000 Du        
   8457 ****         3.7500  23.2500  39.7500 Du        
   8458 ****         3.7500  23.2500  40.0000 Du        
   8459 ****         3.7500  23.5000  34.7500 Du        
   8460 ****         3.7500  23.5000  35.0000 Du        
   8461 ****         3.7500  23.5000  35.2500 Du        
   8462 ****         3.7500  23.5000  38.5000 Du        
   8463 ****         3.7500  23.5000  38.7500 Du        
   8464 ****         3.7500  23.5000  39.0000 Du        
   8465 ****         3.7500  23.5000  39.2500 Du        
   8466 ****         3.7500  23.5000  39.5000 Du        
   8467 ****         3.7500  23.5000  39.7500 Du        
   8468 ****         3.7500  23.5000  40.0000 Du        
   8469 ****         3.7500  23.7500  35.0000 Du        
   8470 ****         3.7500  23.7500  38.5000 Du        
   8471 ****         3.7500  23.7500  38.7500 Du        
   8472 ****         3.7500  23.7500  39.0000 Du        
   8473 ****         3.7500  23.7500  39.2500 Du        
   8474 ****         3.7500  23.7500  39.5000 Du        
   8475 ****         3.7500  23.7500  39.7500 Du        
   8476 ****         3.7500  23.7500  40.0000 Du        
   8477 ****         3.7500  23.7500  40.2500 Du        
   8478 ****         3.7500  24.0000  38.7500 Du        
   8479 ****         3.7500  24.0000  39.0000 Du        
   8480 ****         3.7500  24.0000  39.2500 Du        
   8481 ****         3.7500  24.0000  39.5000 Du        
   8482 ****         3.7500  24.0000  39.7500 Du        
   8483 ****         3.7500  24.0000  40.0000 Du        
   8484 ****         3.7500  24.0000  40.2500 Du        
   8485 ****         3.7500  24.2500  38.7500 Du        
   8486 ****         3.7500  24.2500  39.0000 Du        
   8487 ****         3.7500  24.2500  39.2500 Du        
   8488 ****         3.7500  24.2500  39.5000 Du        
   8489 ****         3.7500  24.2500  39.7500 Du        
   8490 ****         3.7500  24.2500  40.0000 Du        
   8491 ****         3.7500  24.2500  40.2500 Du        
   8492 ****         3.7500  24.5000  38.7500 Du        
   8493 ****         3.7500  24.5000  39.0000 Du        
   8494 ****         3.7500  24.5000  39.2500 Du        
   8495 ****         3.7500  24.5000  39.5000 Du        
   8496 ****         3.7500  24.5000  39.7500 Du        
   8497 ****         3.7500  24.5000  40.0000 Du        
   8498 ****         3.7500  24.5000  40.2500 Du        
   8499 ****         3.7500  24.7500  38.7500 Du        
   8500 ****         3.7500  24.7500  39.0000 Du        
   8501 ****         3.7500  24.7500  39.2500 Du        
   8502 ****         3.7500  24.7500  39.5000 Du        
   8503 ****         3.7500  24.7500  39.7500 Du        
   8504 ****         3.7500  24.7500  40.0000 Du        
   8505 ****         3.7500  24.7500  40.2500 Du        
   8506 ****         4.0000   5.2500  37.2500 Du        
   8507 ****         4.0000   5.2500  37.5000 Du        
   8508 ****         4.0000   5.5000  37.0000 Du        
   8509 ****         4.0000   5.5000  37.2500 Du        
   8510 ****         4.0000   5.5000  37.5000 Du        
   8511 ****         4.0000   5.7500  36.5000 Du        
   8512 ****         4.0000   5.7500  36.7500 Du        
   8513 ****         4.0000   5.7500  37.0000 Du        
   8514 ****         4.0000   5.7500  37.2500 Du        
   8515 ****         4.0000   5.7500  37.5000 Du        
   8516 ****         4.0000   6.0000  36.5000 Du        
   8517 ****         4.0000   6.0000  36.7500 Du        
   8518 ****         4.0000   6.0000  37.0000 Du        
   8519 ****         4.0000   6.0000  37.2500 Du        
   8520 ****         4.0000   6.0000  37.5000 Du        
   8521 ****         4.0000   6.2500  36.5000 Du        
   8522 ****         4.0000   6.2500  36.7500 Du        
   8523 ****         4.0000   6.2500  37.0000 Du        
   8524 ****         4.0000   6.2500  37.2500 Du        
   8525 ****         4.0000   6.2500  37.5000 Du        
   8526 ****         4.0000   6.5000  37.0000 Du        
   8527 ****         4.0000  10.0000  31.7500 Du        
   8528 ****         4.0000  10.2500  30.7500 Du        
   8529 ****         4.0000  10.2500  31.0000 Du        
   8530 ****         4.0000  10.2500  31.2500 Du        
   8531 ****         4.0000  10.2500  31.5000 Du        
   8532 ****         4.0000  10.2500  31.7500 Du        
   8533 ****         4.0000  10.2500  32.0000 Du        
   8534 ****         4.0000  10.2500  32.2500 Du        
   8535 ****         4.0000  10.5000  30.5000 Du        
   8536 ****         4.0000  10.5000  30.7500 Du        
   8537 ****         4.0000  10.5000  31.0000 Du        
   8538 ****         4.0000  10.5000  31.2500 Du        
   8539 ****         4.0000  10.5000  31.5000 Du        
   8540 ****         4.0000  10.5000  31.7500 Du        
   8541 ****         4.0000  10.5000  32.0000 Du        
   8542 ****         4.0000  10.5000  32.2500 Du        
   8543 ****         4.0000  10.5000  32.5000 Du        
   8544 ****         4.0000  10.5000  32.7500 Du        
   8545 ****         4.0000  10.5000  33.0000 Du        
   8546 ****         4.0000  10.7500  30.5000 Du        
   8547 ****         4.0000  10.7500  30.7500 Du        
   8548 ****         4.0000  10.7500  31.0000 Du        
   8549 ****         4.0000  10.7500  31.2500 Du        
   8550 ****         4.0000  10.7500  31.5000 Du        
   8551 ****         4.0000  10.7500  31.7500 Du        
   8552 ****         4.0000  10.7500  32.0000 Du        
   8553 ****         4.0000  10.7500  32.2500 Du        
   8554 ****         4.0000  10.7500  32.5000 Du        
   8555 ****         4.0000  10.7500  32.7500 Du        
   8556 ****         4.0000  10.7500  33.0000 Du        
   8557 ****         4.0000  10.7500  33.2500 Du        
   8558 ****         4.0000  10.7500  33.5000 Du        
   8559 ****         4.0000  11.0000  30.5000 Du        
   8560 ****         4.0000  11.0000  30.7500 Du        
   8561 ****         4.0000  11.0000  31.0000 Du        
   8562 ****         4.0000  11.0000  31.2500 Du        
   8563 ****         4.0000  11.0000  31.5000 Du        
   8564 ****         4.0000  11.0000  31.7500 Du        
   8565 ****         4.0000  11.0000  32.0000 Du        
   8566 ****         4.0000  11.0000  32.2500 Du        
   8567 ****         4.0000  11.0000  32.5000 Du        
   8568 ****         4.0000  11.0000  32.7500 Du        
   8569 ****         4.0000  11.0000  33.0000 Du        
   8570 ****         4.0000  11.0000  33.2500 Du        
   8571 ****         4.0000  11.0000  33.5000 Du        
   8572 ****         4.0000  11.0000  33.7500 Du        
   8573 ****         4.0000  11.2500  30.5000 Du        
   8574 ****         4.0000  11.2500  30.7500 Du        
   8575 ****         4.0000  11.2500  31.0000 Du        
   8576 ****         4.0000  11.2500  31.2500 Du        
   8577 ****         4.0000  11.2500  31.5000 Du        
   8578 ****         4.0000  11.2500  31.7500 Du        
   8579 ****         4.0000  11.2500  32.0000 Du        
   8580 ****         4.0000  11.2500  32.2500 Du        
   8581 ****         4.0000  11.2500  32.5000 Du        
   8582 ****         4.0000  11.2500  32.7500 Du        
   8583 ****         4.0000  11.2500  33.0000 Du        
   8584 ****         4.0000  11.2500  33.2500 Du        
   8585 ****         4.0000  11.2500  33.5000 Du        
   8586 ****         4.0000  11.2500  33.7500 Du        
   8587 ****         4.0000  11.2500  34.0000 Du        
   8588 ****         4.0000  11.5000  30.5000 Du        
   8589 ****         4.0000  11.5000  30.7500 Du        
   8590 ****         4.0000  11.5000  31.0000 Du        
   8591 ****         4.0000  11.5000  31.2500 Du        
   8592 ****         4.0000  11.5000  31.5000 Du        
   8593 ****         4.0000  11.5000  31.7500 Du        
   8594 ****         4.0000  11.5000  32.0000 Du        
   8595 ****         4.0000  11.5000  32.2500 Du        
   8596 ****         4.0000  11.5000  32.5000 Du        
   8597 ****         4.0000  11.5000  32.7500 Du        
   8598 ****         4.0000  11.5000  33.0000 Du        
   8599 ****         4.0000  11.5000  33.2500 Du        
   8600 ****         4.0000  11.5000  33.5000 Du        
   8601 ****         4.0000  11.5000  33.7500 Du        
   8602 ****         4.0000  11.5000  34.0000 Du        
   8603 ****         4.0000  11.5000  34.2500 Du        
   8604 ****         4.0000  11.7500  30.7500 Du        
   8605 ****         4.0000  11.7500  31.0000 Du        
   8606 ****         4.0000  11.7500  31.2500 Du        
   8607 ****         4.0000  11.7500  31.5000 Du        
   8608 ****         4.0000  11.7500  31.7500 Du        
   8609 ****         4.0000  11.7500  32.0000 Du        
   8610 ****         4.0000  11.7500  32.2500 Du        
   8611 ****         4.0000  11.7500  32.5000 Du        
   8612 ****         4.0000  11.7500  32.7500 Du        
   8613 ****         4.0000  11.7500  33.0000 Du        
   8614 ****         4.0000  11.7500  33.2500 Du        
   8615 ****         4.0000  11.7500  33.5000 Du        
   8616 ****         4.0000  11.7500  33.7500 Du        
   8617 ****         4.0000  11.7500  34.0000 Du        
   8618 ****         4.0000  11.7500  34.2500 Du        
   8619 ****         4.0000  12.0000  30.7500 Du        
   8620 ****         4.0000  12.0000  31.0000 Du        
   8621 ****         4.0000  12.0000  31.2500 Du        
   8622 ****         4.0000  12.0000  31.5000 Du        
   8623 ****         4.0000  12.0000  31.7500 Du        
   8624 ****         4.0000  12.0000  32.0000 Du        
   8625 ****         4.0000  12.0000  32.2500 Du        
   8626 ****         4.0000  12.0000  32.5000 Du        
   8627 ****         4.0000  12.0000  32.7500 Du        
   8628 ****         4.0000  12.0000  33.0000 Du        
   8629 ****         4.0000  12.0000  33.2500 Du        
   8630 ****         4.0000  12.0000  33.5000 Du        
   8631 ****         4.0000  12.0000  33.7500 Du        
   8632 ****         4.0000  12.0000  34.0000 Du        
   8633 ****         4.0000  12.0000  34.2500 Du        
   8634 ****         4.0000  12.2500  31.0000 Du        
   8635 ****         4.0000  12.2500  31.2500 Du        
   8636 ****         4.0000  12.2500  31.5000 Du        
   8637 ****         4.0000  12.2500  31.7500 Du        
   8638 ****         4.0000  12.2500  32.0000 Du        
   8639 ****         4.0000  12.2500  32.2500 Du        
   8640 ****         4.0000  12.2500  32.5000 Du        
   8641 ****         4.0000  12.2500  32.7500 Du        
   8642 ****         4.0000  12.2500  33.0000 Du        
   8643 ****         4.0000  12.2500  33.2500 Du        
   8644 ****         4.0000  12.2500  33.5000 Du        
   8645 ****         4.0000  12.2500  33.7500 Du        
   8646 ****         4.0000  12.2500  34.0000 Du        
   8647 ****         4.0000  12.2500  34.2500 Du        
   8648 ****         4.0000  12.2500  34.5000 Du        
   8649 ****         4.0000  12.5000  31.2500 Du        
   8650 ****         4.0000  12.5000  31.5000 Du        
   8651 ****         4.0000  12.5000  31.7500 Du        
   8652 ****         4.0000  12.5000  32.0000 Du        
   8653 ****         4.0000  12.5000  32.2500 Du        
   8654 ****         4.0000  12.5000  32.5000 Du        
   8655 ****         4.0000  12.5000  32.7500 Du        
   8656 ****         4.0000  12.5000  33.0000 Du        
   8657 ****         4.0000  12.5000  33.2500 Du        
   8658 ****         4.0000  12.5000  33.5000 Du        
   8659 ****         4.0000  12.5000  33.7500 Du        
   8660 ****         4.0000  12.5000  34.0000 Du        
   8661 ****         4.0000  12.5000  34.2500 Du        
   8662 ****         4.0000  12.7500  31.5000 Du        
   8663 ****         4.0000  12.7500  31.7500 Du        
   8664 ****         4.0000  12.7500  32.0000 Du        
   8665 ****         4.0000  12.7500  32.2500 Du        
   8666 ****         4.0000  12.7500  32.5000 Du        
   8667 ****         4.0000  12.7500  32.7500 Du        
   8668 ****         4.0000  12.7500  33.0000 Du        
   8669 ****         4.0000  12.7500  33.2500 Du        
   8670 ****         4.0000  12.7500  33.5000 Du        
   8671 ****         4.0000  12.7500  33.7500 Du        
   8672 ****         4.0000  12.7500  34.0000 Du        
   8673 ****         4.0000  13.0000  31.7500 Du        
   8674 ****         4.0000  13.0000  32.0000 Du        
   8675 ****         4.0000  13.0000  32.2500 Du        
   8676 ****         4.0000  13.0000  32.5000 Du        
   8677 ****         4.0000  13.0000  32.7500 Du        
   8678 ****         4.0000  13.0000  33.0000 Du        
   8679 ****         4.0000  13.0000  33.2500 Du        
   8680 ****         4.0000  13.0000  33.5000 Du        
   8681 ****         4.0000  13.0000  33.7500 Du        
   8682 ****         4.0000  13.2500  31.7500 Du        
   8683 ****         4.0000  13.2500  32.0000 Du        
   8684 ****         4.0000  13.2500  32.2500 Du        
   8685 ****         4.0000  13.2500  32.5000 Du        
   8686 ****         4.0000  13.2500  32.7500 Du        
   8687 ****         4.0000  13.2500  33.0000 Du        
   8688 ****         4.0000  13.2500  33.2500 Du        
   8689 ****         4.0000  13.5000  32.0000 Du        
   8690 ****         4.0000  13.5000  32.2500 Du        
   8691 ****         4.0000  13.5000  32.5000 Du        
   8692 ****         4.0000  13.5000  32.7500 Du        
   8693 ****         4.0000  13.5000  33.0000 Du        
   8694 ****         4.0000  13.7500  32.2500 Du        
   8695 ****         4.0000  13.7500  32.5000 Du        
   8696 ****         4.0000  21.2500  39.7500 Du        
   8697 ****         4.0000  21.5000  34.2500 Du        
   8698 ****         4.0000  21.5000  34.7500 Du        
   8699 ****         4.0000  21.5000  35.0000 Du        
   8700 ****         4.0000  21.5000  35.2500 Du        
   8701 ****         4.0000  21.5000  39.5000 Du        
   8702 ****         4.0000  21.5000  39.7500 Du        
   8703 ****         4.0000  21.5000  40.0000 Du        
   8704 ****         4.0000  21.7500  34.0000 Du        
   8705 ****         4.0000  21.7500  34.2500 Du        
   8706 ****         4.0000  21.7500  34.5000 Du        
   8707 ****         4.0000  21.7500  34.7500 Du        
   8708 ****         4.0000  21.7500  35.0000 Du        
   8709 ****         4.0000  21.7500  35.2500 Du        
   8710 ****         4.0000  21.7500  39.0000 Du        
   8711 ****         4.0000  21.7500  39.2500 Du        
   8712 ****         4.0000  21.7500  39.5000 Du        
   8713 ****         4.0000  21.7500  39.7500 Du        
   8714 ****         4.0000  21.7500  40.0000 Du        
   8715 ****         4.0000  22.0000  34.0000 Du        
   8716 ****         4.0000  22.0000  34.2500 Du        
   8717 ****         4.0000  22.0000  34.5000 Du        
   8718 ****         4.0000  22.0000  34.7500 Du        
   8719 ****         4.0000  22.0000  35.0000 Du        
   8720 ****         4.0000  22.0000  35.2500 Du        
   8721 ****         4.0000  22.0000  38.7500 Du        
   8722 ****         4.0000  22.0000  39.0000 Du        
   8723 ****         4.0000  22.0000  39.2500 Du        
   8724 ****         4.0000  22.0000  39.5000 Du        
   8725 ****         4.0000  22.0000  39.7500 Du        
   8726 ****         4.0000  22.0000  40.0000 Du        
   8727 ****         4.0000  22.2500  34.0000 Du        
   8728 ****         4.0000  22.2500  34.2500 Du        
   8729 ****         4.0000  22.2500  34.5000 Du        
   8730 ****         4.0000  22.2500  34.7500 Du        
   8731 ****         4.0000  22.2500  35.0000 Du        
   8732 ****         4.0000  22.2500  35.2500 Du        
   8733 ****         4.0000  22.2500  38.5000 Du        
   8734 ****         4.0000  22.2500  38.7500 Du        
   8735 ****         4.0000  22.2500  39.0000 Du        
   8736 ****         4.0000  22.2500  39.2500 Du        
   8737 ****         4.0000  22.2500  39.5000 Du        
   8738 ****         4.0000  22.2500  39.7500 Du        
   8739 ****         4.0000  22.2500  40.0000 Du        
   8740 ****         4.0000  22.5000  34.2500 Du        
   8741 ****         4.0000  22.5000  34.5000 Du        
   8742 ****         4.0000  22.5000  34.7500 Du        
   8743 ****         4.0000  22.5000  35.0000 Du        
   8744 ****         4.0000  22.5000  35.2500 Du        
   8745 ****         4.0000  22.5000  35.5000 Du        
   8746 ****         4.0000  22.5000  38.7500 Du        
   8747 ****         4.0000  22.5000  39.0000 Du        
   8748 ****         4.0000  22.5000  39.2500 Du        
   8749 ****         4.0000  22.5000  39.5000 Du        
   8750 ****         4.0000  22.5000  39.7500 Du        
   8751 ****         4.0000  22.5000  40.0000 Du        
   8752 ****         4.0000  22.7500  34.2500 Du        
   8753 ****         4.0000  22.7500  34.5000 Du        
   8754 ****         4.0000  22.7500  34.7500 Du        
   8755 ****         4.0000  22.7500  35.0000 Du        
   8756 ****         4.0000  22.7500  35.2500 Du        
   8757 ****         4.0000  22.7500  35.5000 Du        
   8758 ****         4.0000  22.7500  35.7500 Du        
   8759 ****         4.0000  22.7500  38.5000 Du        
   8760 ****         4.0000  22.7500  38.7500 Du        
   8761 ****         4.0000  22.7500  39.0000 Du        
   8762 ****         4.0000  22.7500  39.2500 Du        
   8763 ****         4.0000  22.7500  39.5000 Du        
   8764 ****         4.0000  22.7500  39.7500 Du        
   8765 ****         4.0000  22.7500  40.0000 Du        
   8766 ****         4.0000  23.0000  34.5000 Du        
   8767 ****         4.0000  23.0000  34.7500 Du        
   8768 ****         4.0000  23.0000  35.0000 Du        
   8769 ****         4.0000  23.0000  35.2500 Du        
   8770 ****         4.0000  23.0000  35.5000 Du        
   8771 ****         4.0000  23.0000  38.5000 Du        
   8772 ****         4.0000  23.0000  38.7500 Du        
   8773 ****         4.0000  23.0000  39.0000 Du        
   8774 ****         4.0000  23.0000  39.2500 Du        
   8775 ****         4.0000  23.0000  39.5000 Du        
   8776 ****         4.0000  23.0000  39.7500 Du        
   8777 ****         4.0000  23.0000  40.0000 Du        
   8778 ****         4.0000  23.2500  34.7500 Du        
   8779 ****         4.0000  23.2500  35.0000 Du        
   8780 ****         4.0000  23.2500  35.2500 Du        
   8781 ****         4.0000  23.2500  35.5000 Du        
   8782 ****         4.0000  23.2500  38.5000 Du        
   8783 ****         4.0000  23.2500  38.7500 Du        
   8784 ****         4.0000  23.2500  39.0000 Du        
   8785 ****         4.0000  23.2500  39.2500 Du        
   8786 ****         4.0000  23.2500  39.5000 Du        
   8787 ****         4.0000  23.2500  39.7500 Du        
   8788 ****         4.0000  23.2500  40.0000 Du        
   8789 ****         4.0000  23.5000  35.0000 Du        
   8790 ****         4.0000  23.5000  35.2500 Du        
   8791 ****         4.0000  23.5000  38.5000 Du        
   8792 ****         4.0000  23.5000  38.7500 Du        
   8793 ****         4.0000  23.5000  39.0000 Du        
   8794 ****         4.0000  23.5000  39.2500 Du        
   8795 ****         4.0000  23.5000  39.5000 Du        
   8796 ****         4.0000  23.5000  39.7500 Du        
   8797 ****         4.0000  23.5000  40.0000 Du        
   8798 ****         4.0000  23.7500  35.0000 Du        
   8799 ****         4.0000  23.7500  35.2500 Du        
   8800 ****         4.0000  23.7500  38.7500 Du        
   8801 ****         4.0000  23.7500  39.0000 Du        
   8802 ****         4.0000  23.7500  39.2500 Du        
   8803 ****         4.0000  23.7500  39.5000 Du        
   8804 ****         4.0000  23.7500  39.7500 Du        
   8805 ****         4.0000  23.7500  40.0000 Du        
   8806 ****         4.0000  24.0000  38.7500 Du        
   8807 ****         4.0000  24.0000  39.0000 Du        
   8808 ****         4.0000  24.0000  39.2500 Du        
   8809 ****         4.0000  24.0000  39.5000 Du        
   8810 ****         4.0000  24.0000  39.7500 Du        
   8811 ****         4.0000  24.0000  40.0000 Du        
   8812 ****         4.0000  24.0000  40.2500 Du        
   8813 ****         4.0000  24.2500  39.0000 Du        
   8814 ****         4.0000  24.2500  39.2500 Du        
   8815 ****         4.0000  24.2500  39.5000 Du        
   8816 ****         4.0000  24.2500  39.7500 Du        
   8817 ****         4.0000  24.2500  40.0000 Du        
   8818 ****         4.0000  24.2500  40.2500 Du        
   8819 ****         4.0000  24.5000  38.7500 Du        
   8820 ****         4.0000  24.5000  39.0000 Du        
   8821 ****         4.0000  24.5000  39.2500 Du        
   8822 ****         4.0000  24.5000  39.5000 Du        
   8823 ****         4.0000  24.5000  39.7500 Du        
   8824 ****         4.0000  24.5000  40.0000 Du        
   8825 ****         4.0000  24.5000  40.2500 Du        
   8826 ****         4.0000  24.7500  38.7500 Du        
   8827 ****         4.0000  24.7500  39.0000 Du        
   8828 ****         4.0000  24.7500  39.2500 Du        
   8829 ****         4.0000  24.7500  39.5000 Du        
   8830 ****         4.0000  24.7500  39.7500 Du        
   8831 ****         4.0000  24.7500  40.0000 Du        
   8832 ****         4.0000  24.7500  40.2500 Du        
   8833 ****         4.2500   5.2500  37.5000 Du        
   8834 ****         4.2500   5.5000  37.0000 Du        
   8835 ****         4.2500   5.5000  37.2500 Du        
   8836 ****         4.2500   5.5000  37.5000 Du        
   8837 ****         4.2500   5.7500  36.7500 Du        
   8838 ****         4.2500   5.7500  37.0000 Du        
   8839 ****         4.2500   5.7500  37.2500 Du        
   8840 ****         4.2500   5.7500  37.5000 Du        
   8841 ****         4.2500   6.0000  36.7500 Du        
   8842 ****         4.2500   6.0000  37.0000 Du        
   8843 ****         4.2500   6.0000  37.2500 Du        
   8844 ****         4.2500   6.0000  37.5000 Du        
   8845 ****         4.2500  10.2500  30.7500 Du        
   8846 ****         4.2500  10.2500  31.0000 Du        
   8847 ****         4.2500  10.2500  31.2500 Du        
   8848 ****         4.2500  10.2500  31.5000 Du        
   8849 ****         4.2500  10.2500  31.7500 Du        
   8850 ****         4.2500  10.2500  32.0000 Du        
   8851 ****         4.2500  10.5000  30.5000 Du        
   8852 ****         4.2500  10.5000  30.7500 Du        
   8853 ****         4.2500  10.5000  31.0000 Du        
   8854 ****         4.2500  10.5000  31.2500 Du        
   8855 ****         4.2500  10.5000  31.5000 Du        
   8856 ****         4.2500  10.5000  31.7500 Du        
   8857 ****         4.2500  10.5000  32.0000 Du        
   8858 ****         4.2500  10.5000  32.2500 Du        
   8859 ****         4.2500  10.5000  32.5000 Du        
   8860 ****         4.2500  10.7500  30.2500 Du        
   8861 ****         4.2500  10.7500  30.5000 Du        
   8862 ****         4.2500  10.7500  30.7500 Du        
   8863 ****         4.2500  10.7500  31.0000 Du        
   8864 ****         4.2500  10.7500  31.2500 Du        
   8865 ****         4.2500  10.7500  31.5000 Du        
   8866 ****         4.2500  10.7500  31.7500 Du        
   8867 ****         4.2500  10.7500  32.0000 Du        
   8868 ****         4.2500  10.7500  32.2500 Du        
   8869 ****         4.2500  10.7500  32.5000 Du        
   8870 ****         4.2500  10.7500  32.7500 Du        
   8871 ****         4.2500  10.7500  33.0000 Du        
   8872 ****         4.2500  10.7500  33.2500 Du        
   8873 ****         4.2500  11.0000  30.5000 Du        
   8874 ****         4.2500  11.0000  30.7500 Du        
   8875 ****         4.2500  11.0000  31.0000 Du        
   8876 ****         4.2500  11.0000  31.2500 Du        
   8877 ****         4.2500  11.0000  31.5000 Du        
   8878 ****         4.2500  11.0000  31.7500 Du        
   8879 ****         4.2500  11.0000  32.0000 Du        
   8880 ****         4.2500  11.0000  32.2500 Du        
   8881 ****         4.2500  11.0000  32.5000 Du        
   8882 ****         4.2500  11.0000  32.7500 Du        
   8883 ****         4.2500  11.0000  33.0000 Du        
   8884 ****         4.2500  11.0000  33.2500 Du        
   8885 ****         4.2500  11.0000  33.5000 Du        
   8886 ****         4.2500  11.2500  30.5000 Du        
   8887 ****         4.2500  11.2500  30.7500 Du        
   8888 ****         4.2500  11.2500  31.0000 Du        
   8889 ****         4.2500  11.2500  31.2500 Du        
   8890 ****         4.2500  11.2500  31.5000 Du        
   8891 ****         4.2500  11.2500  31.7500 Du        
   8892 ****         4.2500  11.2500  32.0000 Du        
   8893 ****         4.2500  11.2500  32.2500 Du        
   8894 ****         4.2500  11.2500  32.5000 Du        
   8895 ****         4.2500  11.2500  32.7500 Du        
   8896 ****         4.2500  11.2500  33.0000 Du        
   8897 ****         4.2500  11.2500  33.2500 Du        
   8898 ****         4.2500  11.2500  33.5000 Du        
   8899 ****         4.2500  11.2500  33.7500 Du        
   8900 ****         4.2500  11.5000  30.7500 Du        
   8901 ****         4.2500  11.5000  31.0000 Du        
   8902 ****         4.2500  11.5000  31.2500 Du        
   8903 ****         4.2500  11.5000  31.5000 Du        
   8904 ****         4.2500  11.5000  31.7500 Du        
   8905 ****         4.2500  11.5000  32.0000 Du        
   8906 ****         4.2500  11.5000  32.2500 Du        
   8907 ****         4.2500  11.5000  32.5000 Du        
   8908 ****         4.2500  11.5000  32.7500 Du        
   8909 ****         4.2500  11.5000  33.0000 Du        
   8910 ****         4.2500  11.5000  33.2500 Du        
   8911 ****         4.2500  11.5000  33.5000 Du        
   8912 ****         4.2500  11.5000  33.7500 Du        
   8913 ****         4.2500  11.5000  34.0000 Du        
   8914 ****         4.2500  11.7500  30.7500 Du        
   8915 ****         4.2500  11.7500  31.0000 Du        
   8916 ****         4.2500  11.7500  31.2500 Du        
   8917 ****         4.2500  11.7500  31.5000 Du        
   8918 ****         4.2500  11.7500  31.7500 Du        
   8919 ****         4.2500  11.7500  32.0000 Du        
   8920 ****         4.2500  11.7500  32.2500 Du        
   8921 ****         4.2500  11.7500  32.5000 Du        
   8922 ****         4.2500  11.7500  32.7500 Du        
   8923 ****         4.2500  11.7500  33.0000 Du        
   8924 ****         4.2500  11.7500  33.2500 Du        
   8925 ****         4.2500  11.7500  33.5000 Du        
   8926 ****         4.2500  11.7500  33.7500 Du        
   8927 ****         4.2500  11.7500  34.0000 Du        
   8928 ****         4.2500  11.7500  34.2500 Du        
   8929 ****         4.2500  12.0000  31.0000 Du        
   8930 ****         4.2500  12.0000  31.2500 Du        
   8931 ****         4.2500  12.0000  31.5000 Du        
   8932 ****         4.2500  12.0000  31.7500 Du        
   8933 ****         4.2500  12.0000  32.0000 Du        
   8934 ****         4.2500  12.0000  32.2500 Du        
   8935 ****         4.2500  12.0000  32.5000 Du        
   8936 ****         4.2500  12.0000  32.7500 Du        
   8937 ****         4.2500  12.0000  33.0000 Du        
   8938 ****         4.2500  12.0000  33.2500 Du        
   8939 ****         4.2500  12.0000  33.5000 Du        
   8940 ****         4.2500  12.0000  33.7500 Du        
   8941 ****         4.2500  12.0000  34.0000 Du        
   8942 ****         4.2500  12.0000  34.2500 Du        
   8943 ****         4.2500  12.2500  31.0000 Du        
   8944 ****         4.2500  12.2500  31.2500 Du        
   8945 ****         4.2500  12.2500  31.5000 Du        
   8946 ****         4.2500  12.2500  31.7500 Du        
   8947 ****         4.2500  12.2500  32.0000 Du        
   8948 ****         4.2500  12.2500  32.2500 Du        
   8949 ****         4.2500  12.2500  32.5000 Du        
   8950 ****         4.2500  12.2500  32.7500 Du        
   8951 ****         4.2500  12.2500  33.0000 Du        
   8952 ****         4.2500  12.2500  33.2500 Du        
   8953 ****         4.2500  12.2500  33.5000 Du        
   8954 ****         4.2500  12.2500  33.7500 Du        
   8955 ****         4.2500  12.2500  34.0000 Du        
   8956 ****         4.2500  12.2500  34.2500 Du        
   8957 ****         4.2500  12.2500  34.5000 Du        
   8958 ****         4.2500  12.5000  31.5000 Du        
   8959 ****         4.2500  12.5000  31.7500 Du        
   8960 ****         4.2500  12.5000  32.0000 Du        
   8961 ****         4.2500  12.5000  32.2500 Du        
   8962 ****         4.2500  12.5000  32.5000 Du        
   8963 ****         4.2500  12.5000  32.7500 Du        
   8964 ****         4.2500  12.5000  33.0000 Du        
   8965 ****         4.2500  12.5000  33.2500 Du        
   8966 ****         4.2500  12.5000  33.5000 Du        
   8967 ****         4.2500  12.5000  33.7500 Du        
   8968 ****         4.2500  12.5000  34.0000 Du        
   8969 ****         4.2500  12.5000  34.2500 Du        
   8970 ****         4.2500  12.5000  34.5000 Du        
   8971 ****         4.2500  12.7500  31.7500 Du        
   8972 ****         4.2500  12.7500  32.0000 Du        
   8973 ****         4.2500  12.7500  32.2500 Du        
   8974 ****         4.2500  12.7500  32.5000 Du        
   8975 ****         4.2500  12.7500  32.7500 Du        
   8976 ****         4.2500  12.7500  33.0000 Du        
   8977 ****         4.2500  12.7500  33.2500 Du        
   8978 ****         4.2500  12.7500  33.5000 Du        
   8979 ****         4.2500  12.7500  33.7500 Du        
   8980 ****         4.2500  12.7500  34.0000 Du        
   8981 ****         4.2500  12.7500  34.2500 Du        
   8982 ****         4.2500  13.0000  32.0000 Du        
   8983 ****         4.2500  13.0000  32.2500 Du        
   8984 ****         4.2500  13.0000  32.5000 Du        
   8985 ****         4.2500  13.0000  32.7500 Du        
   8986 ****         4.2500  13.0000  33.0000 Du        
   8987 ****         4.2500  13.0000  33.2500 Du        
   8988 ****         4.2500  13.0000  33.5000 Du        
   8989 ****         4.2500  13.0000  33.7500 Du        
   8990 ****         4.2500  13.0000  34.0000 Du        
   8991 ****         4.2500  13.2500  32.0000 Du        
   8992 ****         4.2500  13.2500  32.2500 Du        
   8993 ****         4.2500  13.2500  32.5000 Du        
   8994 ****         4.2500  13.2500  32.7500 Du        
   8995 ****         4.2500  13.2500  33.0000 Du        
   8996 ****         4.2500  13.2500  33.2500 Du        
   8997 ****         4.2500  13.2500  33.5000 Du        
   8998 ****         4.2500  13.5000  32.5000 Du        
   8999 ****         4.2500  13.5000  32.7500 Du        
   9000 ****         4.2500  13.5000  33.0000 Du        
   9001 ****         4.2500  21.2500  35.0000 Du        
   9002 ****         4.2500  21.2500  39.7500 Du        
   9003 ****         4.2500  21.5000  34.0000 Du        
   9004 ****         4.2500  21.5000  34.2500 Du        
   9005 ****         4.2500  21.5000  34.5000 Du        
   9006 ****         4.2500  21.5000  34.7500 Du        
   9007 ****         4.2500  21.5000  35.0000 Du        
   9008 ****         4.2500  21.5000  35.2500 Du        
   9009 ****         4.2500  21.5000  39.5000 Du        
   9010 ****         4.2500  21.5000  39.7500 Du        
   9011 ****         4.2500  21.5000  40.0000 Du        
   9012 ****         4.2500  21.7500  34.0000 Du        
   9013 ****         4.2500  21.7500  34.2500 Du        
   9014 ****         4.2500  21.7500  34.5000 Du        
   9015 ****         4.2500  21.7500  34.7500 Du        
   9016 ****         4.2500  21.7500  35.0000 Du        
   9017 ****         4.2500  21.7500  35.2500 Du        
   9018 ****         4.2500  21.7500  39.0000 Du        
   9019 ****         4.2500  21.7500  39.2500 Du        
   9020 ****         4.2500  21.7500  39.5000 Du        
   9021 ****         4.2500  21.7500  39.7500 Du        
   9022 ****         4.2500  21.7500  40.0000 Du        
   9023 ****         4.2500  22.0000  34.0000 Du        
   9024 ****         4.2500  22.0000  34.2500 Du        
   9025 ****         4.2500  22.0000  34.5000 Du        
   9026 ****         4.2500  22.0000  34.7500 Du        
   9027 ****         4.2500  22.0000  35.0000 Du        
   9028 ****         4.2500  22.0000  35.2500 Du        
   9029 ****         4.2500  22.0000  38.7500 Du        
   9030 ****         4.2500  22.0000  39.0000 Du        
   9031 ****         4.2500  22.0000  39.2500 Du        
   9032 ****         4.2500  22.0000  39.5000 Du        
   9033 ****         4.2500  22.0000  39.7500 Du        
   9034 ****         4.2500  22.0000  40.0000 Du        
   9035 ****         4.2500  22.2500  34.0000 Du        
   9036 ****         4.2500  22.2500  34.2500 Du        
   9037 ****         4.2500  22.2500  34.5000 Du        
   9038 ****         4.2500  22.2500  34.7500 Du        
   9039 ****         4.2500  22.2500  35.0000 Du        
   9040 ****         4.2500  22.2500  35.2500 Du        
   9041 ****         4.2500  22.2500  38.7500 Du        
   9042 ****         4.2500  22.2500  39.0000 Du        
   9043 ****         4.2500  22.2500  39.2500 Du        
   9044 ****         4.2500  22.2500  39.5000 Du        
   9045 ****         4.2500  22.2500  39.7500 Du        
   9046 ****         4.2500  22.2500  40.0000 Du        
   9047 ****         4.2500  22.5000  34.2500 Du        
   9048 ****         4.2500  22.5000  34.5000 Du        
   9049 ****         4.2500  22.5000  34.7500 Du        
   9050 ****         4.2500  22.5000  35.0000 Du        
   9051 ****         4.2500  22.5000  35.2500 Du        
   9052 ****         4.2500  22.5000  39.0000 Du        
   9053 ****         4.2500  22.5000  39.2500 Du        
   9054 ****         4.2500  22.5000  39.5000 Du        
   9055 ****         4.2500  22.5000  39.7500 Du        
   9056 ****         4.2500  22.5000  40.0000 Du        
   9057 ****         4.2500  22.7500  34.5000 Du        
   9058 ****         4.2500  22.7500  34.7500 Du        
   9059 ****         4.2500  22.7500  35.0000 Du        
   9060 ****         4.2500  22.7500  35.2500 Du        
   9061 ****         4.2500  22.7500  39.0000 Du        
   9062 ****         4.2500  22.7500  39.2500 Du        
   9063 ****         4.2500  22.7500  39.5000 Du        
   9064 ****         4.2500  22.7500  39.7500 Du        
   9065 ****         4.2500  22.7500  40.0000 Du        
   9066 ****         4.2500  23.0000  34.7500 Du        
   9067 ****         4.2500  23.0000  35.0000 Du        
   9068 ****         4.2500  23.0000  35.2500 Du        
   9069 ****         4.2500  23.0000  38.7500 Du        
   9070 ****         4.2500  23.0000  39.0000 Du        
   9071 ****         4.2500  23.0000  39.2500 Du        
   9072 ****         4.2500  23.0000  39.5000 Du        
   9073 ****         4.2500  23.0000  39.7500 Du        
   9074 ****         4.2500  23.0000  40.0000 Du        
   9075 ****         4.2500  23.2500  34.7500 Du        
   9076 ****         4.2500  23.2500  35.0000 Du        
   9077 ****         4.2500  23.2500  35.2500 Du        
   9078 ****         4.2500  23.2500  38.7500 Du        
   9079 ****         4.2500  23.2500  39.0000 Du        
   9080 ****         4.2500  23.2500  39.2500 Du        
   9081 ****         4.2500  23.2500  39.5000 Du        
   9082 ****         4.2500  23.2500  39.7500 Du        
   9083 ****         4.2500  23.2500  40.0000 Du        
   9084 ****         4.2500  23.5000  35.0000 Du        
   9085 ****         4.2500  23.5000  35.2500 Du        
   9086 ****         4.2500  23.5000  38.7500 Du        
   9087 ****         4.2500  23.5000  39.0000 Du        
   9088 ****         4.2500  23.5000  39.2500 Du        
   9089 ****         4.2500  23.5000  39.5000 Du        
   9090 ****         4.2500  23.5000  39.7500 Du        
   9091 ****         4.2500  23.5000  40.0000 Du        
   9092 ****         4.2500  23.7500  35.2500 Du        
   9093 ****         4.2500  23.7500  38.7500 Du        
   9094 ****         4.2500  23.7500  39.0000 Du        
   9095 ****         4.2500  23.7500  39.2500 Du        
   9096 ****         4.2500  23.7500  39.5000 Du        
   9097 ****         4.2500  23.7500  39.7500 Du        
   9098 ****         4.2500  23.7500  40.0000 Du        
   9099 ****         4.2500  24.0000  39.0000 Du        
   9100 ****         4.2500  24.0000  39.2500 Du        
   9101 ****         4.2500  24.0000  39.5000 Du        
   9102 ****         4.2500  24.0000  39.7500 Du        
   9103 ****         4.2500  24.0000  40.0000 Du        
   9104 ****         4.2500  24.2500  39.0000 Du        
   9105 ****         4.2500  24.2500  39.2500 Du        
   9106 ****         4.2500  24.2500  39.5000 Du        
   9107 ****         4.2500  24.2500  39.7500 Du        
   9108 ****         4.2500  24.2500  40.0000 Du        
   9109 ****         4.2500  24.5000  39.2500 Du        
   9110 ****         4.2500  24.5000  39.5000 Du        
   9111 ****         4.2500  24.5000  39.7500 Du        
   9112 ****         4.2500  24.5000  40.0000 Du        
   9113 ****         4.2500  24.7500  39.0000 Du        
   9114 ****         4.2500  24.7500  39.2500 Du        
   9115 ****         4.2500  24.7500  39.5000 Du        
   9116 ****         4.2500  24.7500  39.7500 Du        
   9117 ****         4.2500  24.7500  40.0000 Du        
   9118 ****         4.5000   5.5000  37.2500 Du        
   9119 ****         4.5000   5.7500  37.2500 Du        
   9120 ****         4.5000  10.2500  30.5000 Du        
   9121 ****         4.5000  10.2500  30.7500 Du        
   9122 ****         4.5000  10.2500  31.0000 Du        
   9123 ****         4.5000  10.2500  31.2500 Du        
   9124 ****         4.5000  10.2500  31.5000 Du        
   9125 ****         4.5000  10.2500  31.7500 Du        
   9126 ****         4.5000  10.5000  30.2500 Du        
   9127 ****         4.5000  10.5000  30.5000 Du        
   9128 ****         4.5000  10.5000  30.7500 Du        
   9129 ****         4.5000  10.5000  31.0000 Du        
   9130 ****         4.5000  10.5000  31.2500 Du        
   9131 ****         4.5000  10.5000  31.5000 Du        
   9132 ****         4.5000  10.5000  31.7500 Du        
   9133 ****         4.5000  10.5000  32.0000 Du        
   9134 ****         4.5000  10.5000  32.2500 Du        
   9135 ****         4.5000  10.7500  30.5000 Du        
   9136 ****         4.5000  10.7500  30.7500 Du        
   9137 ****         4.5000  10.7500  31.0000 Du        
   9138 ****         4.5000  10.7500  31.2500 Du        
   9139 ****         4.5000  10.7500  31.5000 Du        
   9140 ****         4.5000  10.7500  31.7500 Du        
   9141 ****         4.5000  10.7500  32.0000 Du        
   9142 ****         4.5000  10.7500  32.2500 Du        
   9143 ****         4.5000  10.7500  32.5000 Du        
   9144 ****         4.5000  10.7500  32.7500 Du        
   9145 ****         4.5000  10.7500  33.0000 Du        
   9146 ****         4.5000  11.0000  30.5000 Du        
   9147 ****         4.5000  11.0000  30.7500 Du        
   9148 ****         4.5000  11.0000  31.0000 Du        
   9149 ****         4.5000  11.0000  31.2500 Du        
   9150 ****         4.5000  11.0000  31.5000 Du        
   9151 ****         4.5000  11.0000  31.7500 Du        
   9152 ****         4.5000  11.0000  32.0000 Du        
   9153 ****         4.5000  11.0000  32.2500 Du        
   9154 ****         4.5000  11.0000  32.5000 Du        
   9155 ****         4.5000  11.0000  32.7500 Du        
   9156 ****         4.5000  11.0000  33.0000 Du        
   9157 ****         4.5000  11.0000  33.2500 Du        
   9158 ****         4.5000  11.2500  30.7500 Du        
   9159 ****         4.5000  11.2500  31.0000 Du        
   9160 ****         4.5000  11.2500  31.2500 Du        
   9161 ****         4.5000  11.2500  31.5000 Du        
   9162 ****         4.5000  11.2500  31.7500 Du        
   9163 ****         4.5000  11.2500  32.0000 Du        
   9164 ****         4.5000  11.2500  32.2500 Du        
   9165 ****         4.5000  11.2500  32.5000 Du        
   9166 ****         4.5000  11.2500  32.7500 Du        
   9167 ****         4.5000  11.2500  33.0000 Du        
   9168 ****         4.5000  11.2500  33.2500 Du        
   9169 ****         4.5000  11.2500  33.5000 Du        
   9170 ****         4.5000  11.5000  31.0000 Du        
   9171 ****         4.5000  11.5000  31.2500 Du        
   9172 ****         4.5000  11.5000  31.5000 Du        
   9173 ****         4.5000  11.5000  31.7500 Du        
   9174 ****         4.5000  11.5000  32.0000 Du        
   9175 ****         4.5000  11.5000  32.2500 Du        
   9176 ****         4.5000  11.5000  32.5000 Du        
   9177 ****         4.5000  11.5000  32.7500 Du        
   9178 ****         4.5000  11.5000  33.0000 Du        
   9179 ****         4.5000  11.5000  33.2500 Du        
   9180 ****         4.5000  11.5000  33.5000 Du        
   9181 ****         4.5000  11.5000  33.7500 Du        
   9182 ****         4.5000  11.7500  31.0000 Du        
   9183 ****         4.5000  11.7500  31.2500 Du        
   9184 ****         4.5000  11.7500  31.5000 Du        
   9185 ****         4.5000  11.7500  31.7500 Du        
   9186 ****         4.5000  11.7500  32.0000 Du        
   9187 ****         4.5000  11.7500  32.2500 Du        
   9188 ****         4.5000  11.7500  32.5000 Du        
   9189 ****         4.5000  11.7500  32.7500 Du        
   9190 ****         4.5000  11.7500  33.0000 Du        
   9191 ****         4.5000  11.7500  33.2500 Du        
   9192 ****         4.5000  11.7500  33.5000 Du        
   9193 ****         4.5000  11.7500  33.7500 Du        
   9194 ****         4.5000  11.7500  34.0000 Du        
   9195 ****         4.5000  12.0000  31.2500 Du        
   9196 ****         4.5000  12.0000  31.5000 Du        
   9197 ****         4.5000  12.0000  31.7500 Du        
   9198 ****         4.5000  12.0000  32.0000 Du        
   9199 ****         4.5000  12.0000  32.2500 Du        
   9200 ****         4.5000  12.0000  32.5000 Du        
   9201 ****         4.5000  12.0000  32.7500 Du        
   9202 ****         4.5000  12.0000  33.0000 Du        
   9203 ****         4.5000  12.0000  33.2500 Du        
   9204 ****         4.5000  12.0000  33.5000 Du        
   9205 ****         4.5000  12.0000  33.7500 Du        
   9206 ****         4.5000  12.0000  34.0000 Du        
   9207 ****         4.5000  12.0000  34.2500 Du        
   9208 ****         4.5000  12.2500  31.5000 Du        
   9209 ****         4.5000  12.2500  31.7500 Du        
   9210 ****         4.5000  12.2500  32.0000 Du        
   9211 ****         4.5000  12.2500  32.2500 Du        
   9212 ****         4.5000  12.2500  32.5000 Du        
   9213 ****         4.5000  12.2500  32.7500 Du        
   9214 ****         4.5000  12.2500  33.0000 Du        
   9215 ****         4.5000  12.2500  33.2500 Du        
   9216 ****         4.5000  12.2500  33.5000 Du        
   9217 ****         4.5000  12.2500  33.7500 Du        
   9218 ****         4.5000  12.2500  34.0000 Du        
   9219 ****         4.5000  12.2500  34.2500 Du        
   9220 ****         4.5000  12.5000  31.7500 Du        
   9221 ****         4.5000  12.5000  32.0000 Du        
   9222 ****         4.5000  12.5000  32.2500 Du        
   9223 ****         4.5000  12.5000  32.5000 Du        
   9224 ****         4.5000  12.5000  32.7500 Du        
   9225 ****         4.5000  12.5000  33.0000 Du        
   9226 ****         4.5000  12.5000  33.2500 Du        
   9227 ****         4.5000  12.5000  33.5000 Du        
   9228 ****         4.5000  12.5000  33.7500 Du        
   9229 ****         4.5000  12.5000  34.0000 Du        
   9230 ****         4.5000  12.5000  34.2500 Du        
   9231 ****         4.5000  12.5000  34.5000 Du        
   9232 ****         4.5000  12.7500  32.0000 Du        
   9233 ****         4.5000  12.7500  32.2500 Du        
   9234 ****         4.5000  12.7500  32.5000 Du        
   9235 ****         4.5000  12.7500  32.7500 Du        
   9236 ****         4.5000  12.7500  33.0000 Du        
   9237 ****         4.5000  12.7500  33.2500 Du        
   9238 ****         4.5000  12.7500  33.5000 Du        
   9239 ****         4.5000  12.7500  33.7500 Du        
   9240 ****         4.5000  12.7500  34.0000 Du        
   9241 ****         4.5000  12.7500  34.2500 Du        
   9242 ****         4.5000  12.7500  34.5000 Du        
   9243 ****         4.5000  13.0000  32.2500 Du        
   9244 ****         4.5000  13.0000  32.5000 Du        
   9245 ****         4.5000  13.0000  32.7500 Du        
   9246 ****         4.5000  13.0000  33.0000 Du        
   9247 ****         4.5000  13.0000  33.2500 Du        
   9248 ****         4.5000  13.0000  33.5000 Du        
   9249 ****         4.5000  13.0000  33.7500 Du        
   9250 ****         4.5000  13.0000  34.0000 Du        
   9251 ****         4.5000  13.2500  32.5000 Du        
   9252 ****         4.5000  13.2500  32.7500 Du        
   9253 ****         4.5000  13.2500  33.0000 Du        
   9254 ****         4.5000  13.2500  33.2500 Du        
   9255 ****         4.5000  13.2500  33.5000 Du        
   9256 ****         4.5000  21.0000  34.2500 Du        
   9257 ****         4.5000  21.0000  34.5000 Du        
   9258 ****         4.5000  21.0000  34.7500 Du        
   9259 ****         4.5000  21.0000  35.0000 Du        
   9260 ****         4.5000  21.2500  34.0000 Du        
   9261 ****         4.5000  21.2500  34.2500 Du        
   9262 ****         4.5000  21.2500  34.5000 Du        
   9263 ****         4.5000  21.2500  34.7500 Du        
   9264 ****         4.5000  21.2500  35.0000 Du        
   9265 ****         4.5000  21.2500  39.7500 Du        
   9266 ****         4.5000  21.5000  34.0000 Du        
   9267 ****         4.5000  21.5000  34.2500 Du        
   9268 ****         4.5000  21.5000  34.5000 Du        
   9269 ****         4.5000  21.5000  34.7500 Du        
   9270 ****         4.5000  21.5000  35.0000 Du        
   9271 ****         4.5000  21.5000  39.5000 Du        
   9272 ****         4.5000  21.5000  39.7500 Du        
   9273 ****         4.5000  21.7500  34.0000 Du        
   9274 ****         4.5000  21.7500  34.2500 Du        
   9275 ****         4.5000  21.7500  34.5000 Du        
   9276 ****         4.5000  21.7500  34.7500 Du        
   9277 ****         4.5000  21.7500  35.0000 Du        
   9278 ****         4.5000  21.7500  39.2500 Du        
   9279 ****         4.5000  21.7500  39.5000 Du        
   9280 ****         4.5000  21.7500  39.7500 Du        
   9281 ****         4.5000  22.0000  34.0000 Du        
   9282 ****         4.5000  22.0000  34.2500 Du        
   9283 ****         4.5000  22.0000  34.5000 Du        
   9284 ****         4.5000  22.0000  34.7500 Du        
   9285 ****         4.5000  22.0000  35.0000 Du        
   9286 ****         4.5000  22.0000  39.0000 Du        
   9287 ****         4.5000  22.0000  39.2500 Du        
   9288 ****         4.5000  22.0000  39.5000 Du        
   9289 ****         4.5000  22.0000  39.7500 Du        
   9290 ****         4.5000  22.2500  34.2500 Du        
   9291 ****         4.5000  22.2500  34.5000 Du        
   9292 ****         4.5000  22.2500  34.7500 Du        
   9293 ****         4.5000  22.2500  35.0000 Du        
   9294 ****         4.5000  22.2500  39.0000 Du        
   9295 ****         4.5000  22.2500  39.2500 Du        
   9296 ****         4.5000  22.2500  39.5000 Du        
   9297 ****         4.5000  22.2500  39.7500 Du        
   9298 ****         4.5000  22.5000  34.5000 Du        
   9299 ****         4.5000  22.5000  34.7500 Du        
   9300 ****         4.5000  22.5000  35.0000 Du        
   9301 ****         4.5000  22.5000  35.2500 Du        
   9302 ****         4.5000  22.5000  39.5000 Du        
   9303 ****         4.5000  22.5000  39.7500 Du        
   9304 ****         4.5000  22.7500  34.5000 Du        
   9305 ****         4.5000  22.7500  34.7500 Du        
   9306 ****         4.5000  22.7500  35.0000 Du        
   9307 ****         4.5000  22.7500  35.2500 Du        
   9308 ****         4.5000  22.7500  39.5000 Du        
   9309 ****         4.5000  22.7500  39.7500 Du        
   9310 ****         4.5000  23.0000  34.7500 Du        
   9311 ****         4.5000  23.0000  35.0000 Du        
   9312 ****         4.5000  23.0000  35.2500 Du        
   9313 ****         4.5000  23.0000  39.5000 Du        
   9314 ****         4.5000  23.0000  39.7500 Du        
   9315 ****         4.5000  23.2500  35.0000 Du        
   9316 ****         4.5000  23.2500  35.2500 Du        
   9317 ****         4.5000  23.2500  39.5000 Du        
   9318 ****         4.5000  23.2500  39.7500 Du        
   9319 ****         4.5000  23.5000  35.2500 Du        
   9320 ****         4.5000  23.5000  39.5000 Du        
   9321 ****         4.5000  24.0000  39.7500 Du        
   9322 ****         4.5000  24.5000  39.7500 Du        
   9323 ****         4.5000  24.7500  39.7500 Du        
   9324 ****         4.7500  10.0000  30.7500 Du        
   9325 ****         4.7500  10.0000  31.0000 Du        
   9326 ****         4.7500  10.2500  30.2500 Du        
   9327 ****         4.7500  10.2500  30.5000 Du        
   9328 ****         4.7500  10.2500  30.7500 Du        
   9329 ****         4.7500  10.2500  31.0000 Du        
   9330 ****         4.7500  10.2500  31.2500 Du        
   9331 ****         4.7500  10.2500  31.5000 Du        
   9332 ****         4.7500  10.2500  31.7500 Du        
   9333 ****         4.7500  10.5000  30.2500 Du        
   9334 ****         4.7500  10.5000  30.5000 Du        
   9335 ****         4.7500  10.5000  30.7500 Du        
   9336 ****         4.7500  10.5000  31.0000 Du        
   9337 ****         4.7500  10.5000  31.2500 Du        
   9338 ****         4.7500  10.5000  31.5000 Du        
   9339 ****         4.7500  10.5000  31.7500 Du        
   9340 ****         4.7500  10.5000  32.0000 Du        
   9341 ****         4.7500  10.5000  32.2500 Du        
   9342 ****         4.7500  10.7500  30.5000 Du        
   9343 ****         4.7500  10.7500  30.7500 Du        
   9344 ****         4.7500  10.7500  31.0000 Du        
   9345 ****         4.7500  10.7500  31.2500 Du        
   9346 ****         4.7500  10.7500  31.5000 Du        
   9347 ****         4.7500  10.7500  31.7500 Du        
   9348 ****         4.7500  10.7500  32.0000 Du        
   9349 ****         4.7500  10.7500  32.2500 Du        
   9350 ****         4.7500  10.7500  32.5000 Du        
   9351 ****         4.7500  10.7500  32.7500 Du        
   9352 ****         4.7500  11.0000  30.7500 Du        
   9353 ****         4.7500  11.0000  31.0000 Du        
   9354 ****         4.7500  11.0000  31.2500 Du        
   9355 ****         4.7500  11.0000  31.5000 Du        
   9356 ****         4.7500  11.0000  31.7500 Du        
   9357 ****         4.7500  11.0000  32.0000 Du        
   9358 ****         4.7500  11.0000  32.2500 Du        
   9359 ****         4.7500  11.0000  32.5000 Du        
   9360 ****         4.7500  11.0000  32.7500 Du        
   9361 ****         4.7500  11.0000  33.0000 Du        
   9362 ****         4.7500  11.0000  33.2500 Du        
   9363 ****         4.7500  11.2500  31.0000 Du        
   9364 ****         4.7500  11.2500  31.2500 Du        
   9365 ****         4.7500  11.2500  31.5000 Du        
   9366 ****         4.7500  11.2500  31.7500 Du        
   9367 ****         4.7500  11.2500  32.0000 Du        
   9368 ****         4.7500  11.2500  32.2500 Du        
   9369 ****         4.7500  11.2500  32.5000 Du        
   9370 ****         4.7500  11.2500  32.7500 Du        
   9371 ****         4.7500  11.2500  33.0000 Du        
   9372 ****         4.7500  11.2500  33.2500 Du        
   9373 ****         4.7500  11.2500  33.5000 Du        
   9374 ****         4.7500  11.5000  31.0000 Du        
   9375 ****         4.7500  11.5000  31.2500 Du        
   9376 ****         4.7500  11.5000  31.5000 Du        
   9377 ****         4.7500  11.5000  31.7500 Du        
   9378 ****         4.7500  11.5000  32.0000 Du        
   9379 ****         4.7500  11.5000  32.2500 Du        
   9380 ****         4.7500  11.5000  32.5000 Du        
   9381 ****         4.7500  11.5000  32.7500 Du        
   9382 ****         4.7500  11.5000  33.0000 Du        
   9383 ****         4.7500  11.5000  33.2500 Du        
   9384 ****         4.7500  11.5000  33.5000 Du        
   9385 ****         4.7500  11.5000  33.7500 Du        
   9386 ****         4.7500  11.7500  31.2500 Du        
   9387 ****         4.7500  11.7500  31.5000 Du        
   9388 ****         4.7500  11.7500  31.7500 Du        
   9389 ****         4.7500  11.7500  32.0000 Du        
   9390 ****         4.7500  11.7500  32.2500 Du        
   9391 ****         4.7500  11.7500  32.5000 Du        
   9392 ****         4.7500  11.7500  32.7500 Du        
   9393 ****         4.7500  11.7500  33.0000 Du        
   9394 ****         4.7500  11.7500  33.2500 Du        
   9395 ****         4.7500  11.7500  33.5000 Du        
   9396 ****         4.7500  11.7500  33.7500 Du        
   9397 ****         4.7500  11.7500  34.0000 Du        
   9398 ****         4.7500  12.0000  31.5000 Du        
   9399 ****         4.7500  12.0000  31.7500 Du        
   9400 ****         4.7500  12.0000  32.0000 Du        
   9401 ****         4.7500  12.0000  32.2500 Du        
   9402 ****         4.7500  12.0000  32.5000 Du        
   9403 ****         4.7500  12.0000  32.7500 Du        
   9404 ****         4.7500  12.0000  33.0000 Du        
   9405 ****         4.7500  12.0000  33.2500 Du        
   9406 ****         4.7500  12.0000  33.5000 Du        
   9407 ****         4.7500  12.0000  33.7500 Du        
   9408 ****         4.7500  12.0000  34.0000 Du        
   9409 ****         4.7500  12.2500  31.7500 Du        
   9410 ****         4.7500  12.2500  32.0000 Du        
   9411 ****         4.7500  12.2500  32.2500 Du        
   9412 ****         4.7500  12.2500  32.5000 Du        
   9413 ****         4.7500  12.2500  32.7500 Du        
   9414 ****         4.7500  12.2500  33.0000 Du        
   9415 ****         4.7500  12.2500  33.2500 Du        
   9416 ****         4.7500  12.2500  33.5000 Du        
   9417 ****         4.7500  12.2500  33.7500 Du        
   9418 ****         4.7500  12.2500  34.0000 Du        
   9419 ****         4.7500  12.2500  34.2500 Du        
   9420 ****         4.7500  12.5000  32.0000 Du        
   9421 ****         4.7500  12.5000  32.2500 Du        
   9422 ****         4.7500  12.5000  32.5000 Du        
   9423 ****         4.7500  12.5000  32.7500 Du        
   9424 ****         4.7500  12.5000  33.0000 Du        
   9425 ****         4.7500  12.5000  33.2500 Du        
   9426 ****         4.7500  12.5000  33.5000 Du        
   9427 ****         4.7500  12.5000  33.7500 Du        
   9428 ****         4.7500  12.5000  34.0000 Du        
   9429 ****         4.7500  12.5000  34.2500 Du        
   9430 ****         4.7500  12.5000  34.5000 Du        
   9431 ****         4.7500  12.7500  32.2500 Du        
   9432 ****         4.7500  12.7500  32.5000 Du        
   9433 ****         4.7500  12.7500  32.7500 Du        
   9434 ****         4.7500  12.7500  33.0000 Du        
   9435 ****         4.7500  12.7500  33.2500 Du        
   9436 ****         4.7500  12.7500  33.5000 Du        
   9437 ****         4.7500  12.7500  33.7500 Du        
   9438 ****         4.7500  12.7500  34.0000 Du        
   9439 ****         4.7500  12.7500  34.2500 Du        
   9440 ****         4.7500  12.7500  34.5000 Du        
   9441 ****         4.7500  13.0000  32.5000 Du        
   9442 ****         4.7500  13.0000  32.7500 Du        
   9443 ****         4.7500  13.0000  33.0000 Du        
   9444 ****         4.7500  13.0000  33.2500 Du        
   9445 ****         4.7500  13.0000  33.5000 Du        
   9446 ****         4.7500  13.0000  33.7500 Du        
   9447 ****         4.7500  13.0000  34.0000 Du        
   9448 ****         4.7500  13.0000  34.2500 Du        
   9449 ****         4.7500  13.2500  33.0000 Du        
   9450 ****         4.7500  13.2500  33.2500 Du        
   9451 ****         4.7500  13.2500  33.5000 Du        
   9452 ****         4.7500  13.2500  33.7500 Du        
   9453 ****         4.7500  13.2500  34.0000 Du        
   9454 ****         4.7500  20.0000  34.7500 Du        
   9455 ****         4.7500  20.0000  35.0000 Du        
   9456 ****         4.7500  20.2500  34.7500 Du        
   9457 ****         4.7500  20.2500  35.0000 Du        
   9458 ****         4.7500  20.7500  34.0000 Du        
   9459 ****         4.7500  20.7500  34.2500 Du        
   9460 ****         4.7500  20.7500  34.5000 Du        
   9461 ****         4.7500  20.7500  34.7500 Du        
   9462 ****         4.7500  21.0000  34.0000 Du        
   9463 ****         4.7500  21.0000  34.2500 Du        
   9464 ****         4.7500  21.0000  34.5000 Du        
   9465 ****         4.7500  21.0000  34.7500 Du        
   9466 ****         4.7500  21.0000  35.0000 Du        
   9467 ****         4.7500  21.2500  34.0000 Du        
   9468 ****         4.7500  21.2500  34.2500 Du        
   9469 ****         4.7500  21.2500  34.5000 Du        
   9470 ****         4.7500  21.2500  34.7500 Du        
   9471 ****         4.7500  21.2500  39.5000 Du        
   9472 ****         4.7500  21.2500  39.7500 Du        
   9473 ****         4.7500  21.5000  34.0000 Du        
   9474 ****         4.7500  21.5000  34.2500 Du        
   9475 ****         4.7500  21.5000  34.5000 Du        
   9476 ****         4.7500  21.5000  34.7500 Du        
   9477 ****         4.7500  21.5000  35.0000 Du        
   9478 ****         4.7500  21.5000  39.5000 Du        
   9479 ****         4.7500  21.5000  39.7500 Du        
   9480 ****         4.7500  21.7500  34.0000 Du        
   9481 ****         4.7500  21.7500  34.2500 Du        
   9482 ****         4.7500  21.7500  34.5000 Du        
   9483 ****         4.7500  21.7500  34.7500 Du        
   9484 ****         4.7500  21.7500  35.0000 Du        
   9485 ****         4.7500  21.7500  39.2500 Du        
   9486 ****         4.7500  21.7500  39.5000 Du        
   9487 ****         4.7500  21.7500  39.7500 Du        
   9488 ****         4.7500  22.0000  34.2500 Du        
   9489 ****         4.7500  22.0000  34.5000 Du        
   9490 ****         4.7500  22.0000  34.7500 Du        
   9491 ****         4.7500  22.0000  35.0000 Du        
   9492 ****         4.7500  22.0000  39.0000 Du        
   9493 ****         4.7500  22.0000  39.2500 Du        
   9494 ****         4.7500  22.0000  39.5000 Du        
   9495 ****         4.7500  22.0000  39.7500 Du        
   9496 ****         4.7500  22.2500  34.2500 Du        
   9497 ****         4.7500  22.2500  34.5000 Du        
   9498 ****         4.7500  22.2500  34.7500 Du        
   9499 ****         4.7500  22.2500  35.0000 Du        
   9500 ****         4.7500  22.2500  39.0000 Du        
   9501 ****         4.7500  22.2500  39.2500 Du        
   9502 ****         4.7500  22.2500  39.5000 Du        
   9503 ****         4.7500  22.2500  39.7500 Du        
   9504 ****         4.7500  22.5000  34.5000 Du        
   9505 ****         4.7500  22.5000  34.7500 Du        
   9506 ****         4.7500  22.5000  35.0000 Du        
   9507 ****         4.7500  22.5000  39.5000 Du        
   9508 ****         4.7500  22.7500  34.7500 Du        
   9509 ****         4.7500  22.7500  35.0000 Du        
   9510 ****         4.7500  22.7500  35.2500 Du        
   9511 ****         4.7500  22.7500  39.5000 Du        
   9512 ****         4.7500  23.0000  34.7500 Du        
   9513 ****         4.7500  23.0000  35.0000 Du        
   9514 ****         4.7500  23.0000  35.2500 Du        
   9515 ****         4.7500  23.2500  35.0000 Du        
   9516 ****         4.7500  23.2500  35.2500 Du        
   9517 ****         4.7500  23.5000  35.2500 Du        
   9518 ****         4.7500  23.7500  35.2500 Du        
   9519 ****         4.7500  24.0000  35.2500 Du        
   9520 ****         5.0000  10.0000  30.2500 Du        
   9521 ****         5.0000  10.0000  30.5000 Du        
   9522 ****         5.0000  10.0000  30.7500 Du        
   9523 ****         5.0000  10.0000  31.0000 Du        
   9524 ****         5.0000  10.2500  30.2500 Du        
   9525 ****         5.0000  10.2500  30.5000 Du        
   9526 ****         5.0000  10.2500  30.7500 Du        
   9527 ****         5.0000  10.2500  31.0000 Du        
   9528 ****         5.0000  10.2500  31.2500 Du        
   9529 ****         5.0000  10.2500  31.5000 Du        
   9530 ****         5.0000  10.5000  30.5000 Du        
   9531 ****         5.0000  10.5000  30.7500 Du        
   9532 ****         5.0000  10.5000  31.0000 Du        
   9533 ****         5.0000  10.5000  31.2500 Du        
   9534 ****         5.0000  10.5000  31.5000 Du        
   9535 ****         5.0000  10.5000  31.7500 Du        
   9536 ****         5.0000  10.5000  32.0000 Du        
   9537 ****         5.0000  10.7500  30.7500 Du        
   9538 ****         5.0000  10.7500  31.0000 Du        
   9539 ****         5.0000  10.7500  31.2500 Du        
   9540 ****         5.0000  10.7500  31.5000 Du        
   9541 ****         5.0000  10.7500  31.7500 Du        
   9542 ****         5.0000  10.7500  32.0000 Du        
   9543 ****         5.0000  10.7500  32.2500 Du        
   9544 ****         5.0000  10.7500  32.5000 Du        
   9545 ****         5.0000  10.7500  32.7500 Du        
   9546 ****         5.0000  11.0000  31.0000 Du        
   9547 ****         5.0000  11.0000  31.2500 Du        
   9548 ****         5.0000  11.0000  31.5000 Du        
   9549 ****         5.0000  11.0000  31.7500 Du        
   9550 ****         5.0000  11.0000  32.0000 Du        
   9551 ****         5.0000  11.0000  32.2500 Du        
   9552 ****         5.0000  11.0000  32.5000 Du        
   9553 ****         5.0000  11.0000  32.7500 Du        
   9554 ****         5.0000  11.0000  33.0000 Du        
   9555 ****         5.0000  11.2500  31.0000 Du        
   9556 ****         5.0000  11.2500  31.2500 Du        
   9557 ****         5.0000  11.2500  31.5000 Du        
   9558 ****         5.0000  11.2500  31.7500 Du        
   9559 ****         5.0000  11.2500  32.0000 Du        
   9560 ****         5.0000  11.2500  32.2500 Du        
   9561 ****         5.0000  11.2500  32.5000 Du        
   9562 ****         5.0000  11.2500  32.7500 Du        
   9563 ****         5.0000  11.2500  33.0000 Du        
   9564 ****         5.0000  11.2500  33.2500 Du        
   9565 ****         5.0000  11.5000  31.2500 Du        
   9566 ****         5.0000  11.5000  31.5000 Du        
   9567 ****         5.0000  11.5000  31.7500 Du        
   9568 ****         5.0000  11.5000  32.0000 Du        
   9569 ****         5.0000  11.5000  32.2500 Du        
   9570 ****         5.0000  11.5000  32.5000 Du        
   9571 ****         5.0000  11.5000  32.7500 Du        
   9572 ****         5.0000  11.5000  33.0000 Du        
   9573 ****         5.0000  11.5000  33.2500 Du        
   9574 ****         5.0000  11.5000  33.5000 Du        
   9575 ****         5.0000  11.7500  31.5000 Du        
   9576 ****         5.0000  11.7500  31.7500 Du        
   9577 ****         5.0000  11.7500  32.0000 Du        
   9578 ****         5.0000  11.7500  32.2500 Du        
   9579 ****         5.0000  11.7500  32.5000 Du        
   9580 ****         5.0000  11.7500  32.7500 Du        
   9581 ****         5.0000  11.7500  33.0000 Du        
   9582 ****         5.0000  11.7500  33.2500 Du        
   9583 ****         5.0000  11.7500  33.5000 Du        
   9584 ****         5.0000  11.7500  33.7500 Du        
   9585 ****         5.0000  12.0000  31.7500 Du        
   9586 ****         5.0000  12.0000  32.0000 Du        
   9587 ****         5.0000  12.0000  32.2500 Du        
   9588 ****         5.0000  12.0000  32.5000 Du        
   9589 ****         5.0000  12.0000  32.7500 Du        
   9590 ****         5.0000  12.0000  33.0000 Du        
   9591 ****         5.0000  12.0000  33.2500 Du        
   9592 ****         5.0000  12.0000  33.5000 Du        
   9593 ****         5.0000  12.0000  33.7500 Du        
   9594 ****         5.0000  12.0000  34.0000 Du        
   9595 ****         5.0000  12.2500  32.0000 Du        
   9596 ****         5.0000  12.2500  32.2500 Du        
   9597 ****         5.0000  12.2500  32.5000 Du        
   9598 ****         5.0000  12.2500  32.7500 Du        
   9599 ****         5.0000  12.2500  33.0000 Du        
   9600 ****         5.0000  12.2500  33.2500 Du        
   9601 ****         5.0000  12.2500  33.5000 Du        
   9602 ****         5.0000  12.2500  33.7500 Du        
   9603 ****         5.0000  12.2500  34.0000 Du        
   9604 ****         5.0000  12.2500  34.2500 Du        
   9605 ****         5.0000  12.5000  32.2500 Du        
   9606 ****         5.0000  12.5000  32.5000 Du        
   9607 ****         5.0000  12.5000  32.7500 Du        
   9608 ****         5.0000  12.5000  33.0000 Du        
   9609 ****         5.0000  12.5000  33.2500 Du        
   9610 ****         5.0000  12.5000  33.5000 Du        
   9611 ****         5.0000  12.5000  33.7500 Du        
   9612 ****         5.0000  12.5000  34.0000 Du        
   9613 ****         5.0000  12.5000  34.2500 Du        
   9614 ****         5.0000  12.5000  34.5000 Du        
   9615 ****         5.0000  12.7500  32.7500 Du        
   9616 ****         5.0000  12.7500  33.0000 Du        
   9617 ****         5.0000  12.7500  33.2500 Du        
   9618 ****         5.0000  12.7500  33.5000 Du        
   9619 ****         5.0000  12.7500  33.7500 Du        
   9620 ****         5.0000  12.7500  34.0000 Du        
   9621 ****         5.0000  12.7500  34.2500 Du        
   9622 ****         5.0000  12.7500  34.5000 Du        
   9623 ****         5.0000  12.7500  34.7500 Du        
   9624 ****         5.0000  13.0000  33.0000 Du        
   9625 ****         5.0000  13.0000  33.2500 Du        
   9626 ****         5.0000  13.0000  33.5000 Du        
   9627 ****         5.0000  13.0000  33.7500 Du        
   9628 ****         5.0000  13.0000  34.0000 Du        
   9629 ****         5.0000  13.0000  34.2500 Du        
   9630 ****         5.0000  13.0000  34.5000 Du        
   9631 ****         5.0000  13.0000  34.7500 Du        
   9632 ****         5.0000  13.2500  33.2500 Du        
   9633 ****         5.0000  13.2500  33.5000 Du        
   9634 ****         5.0000  13.2500  33.7500 Du        
   9635 ****         5.0000  13.2500  34.0000 Du        
   9636 ****         5.0000  13.2500  34.2500 Du        
   9637 ****         5.0000  14.0000  41.2500 Du        
   9638 ****         5.0000  14.2500  41.0000 Du        
   9639 ****         5.0000  14.2500  41.2500 Du        
   9640 ****         5.0000  18.5000  34.7500 Du        
   9641 ****         5.0000  18.7500  34.7500 Du        
   9642 ****         5.0000  18.7500  35.0000 Du        
   9643 ****         5.0000  19.0000  34.7500 Du        
   9644 ****         5.0000  19.0000  35.0000 Du        
   9645 ****         5.0000  19.2500  34.7500 Du        
   9646 ****         5.0000  19.2500  35.0000 Du        
   9647 ****         5.0000  19.5000  34.7500 Du        
   9648 ****         5.0000  19.5000  35.0000 Du        
   9649 ****         5.0000  19.7500  34.5000 Du        
   9650 ****         5.0000  19.7500  34.7500 Du        
   9651 ****         5.0000  19.7500  35.0000 Du        
   9652 ****         5.0000  20.0000  34.5000 Du        
   9653 ****         5.0000  20.0000  34.7500 Du        
   9654 ****         5.0000  20.0000  35.0000 Du        
   9655 ****         5.0000  20.0000  35.2500 Du        
   9656 ****         5.0000  20.2500  34.2500 Du        
   9657 ****         5.0000  20.2500  34.5000 Du        
   9658 ****         5.0000  20.2500  34.7500 Du        
   9659 ****         5.0000  20.2500  35.0000 Du        
   9660 ****         5.0000  20.5000  34.0000 Du        
   9661 ****         5.0000  20.5000  34.2500 Du        
   9662 ****         5.0000  20.5000  34.5000 Du        
   9663 ****         5.0000  20.5000  34.7500 Du        
   9664 ****         5.0000  20.7500  33.7500 Du        
   9665 ****         5.0000  20.7500  34.0000 Du        
   9666 ****         5.0000  20.7500  34.2500 Du        
   9667 ****         5.0000  20.7500  34.5000 Du        
   9668 ****         5.0000  20.7500  34.7500 Du        
   9669 ****         5.0000  20.7500  35.0000 Du        
   9670 ****         5.0000  21.0000  33.7500 Du        
   9671 ****         5.0000  21.0000  34.0000 Du        
   9672 ****         5.0000  21.0000  34.2500 Du        
   9673 ****         5.0000  21.0000  34.5000 Du        
   9674 ****         5.0000  21.0000  34.7500 Du        
   9675 ****         5.0000  21.0000  35.0000 Du        
   9676 ****         5.0000  21.0000  39.7500 Du        
   9677 ****         5.0000  21.0000  40.0000 Du        
   9678 ****         5.0000  21.2500  33.7500 Du        
   9679 ****         5.0000  21.2500  34.0000 Du        
   9680 ****         5.0000  21.2500  34.2500 Du        
   9681 ****         5.0000  21.2500  34.5000 Du        
   9682 ****         5.0000  21.2500  34.7500 Du        
   9683 ****         5.0000  21.2500  35.0000 Du        
   9684 ****         5.0000  21.2500  39.5000 Du        
   9685 ****         5.0000  21.2500  39.7500 Du        
   9686 ****         5.0000  21.5000  34.0000 Du        
   9687 ****         5.0000  21.5000  34.2500 Du        
   9688 ****         5.0000  21.5000  34.5000 Du        
   9689 ****         5.0000  21.5000  34.7500 Du        
   9690 ****         5.0000  21.5000  35.0000 Du        
   9691 ****         5.0000  21.5000  39.5000 Du        
   9692 ****         5.0000  21.5000  39.7500 Du        
   9693 ****         5.0000  21.7500  34.0000 Du        
   9694 ****         5.0000  21.7500  34.2500 Du        
   9695 ****         5.0000  21.7500  34.5000 Du        
   9696 ****         5.0000  21.7500  34.7500 Du        
   9697 ****         5.0000  21.7500  35.0000 Du        
   9698 ****         5.0000  21.7500  39.2500 Du        
   9699 ****         5.0000  21.7500  39.5000 Du        
   9700 ****         5.0000  21.7500  39.7500 Du        
   9701 ****         5.0000  22.0000  34.2500 Du        
   9702 ****         5.0000  22.0000  34.5000 Du        
   9703 ****         5.0000  22.0000  34.7500 Du        
   9704 ****         5.0000  22.0000  35.0000 Du        
   9705 ****         5.0000  22.0000  39.2500 Du        
   9706 ****         5.0000  22.0000  39.5000 Du        
   9707 ****         5.0000  22.2500  34.2500 Du        
   9708 ****         5.0000  22.2500  34.5000 Du        
   9709 ****         5.0000  22.2500  34.7500 Du        
   9710 ****         5.0000  22.2500  35.0000 Du        
   9711 ****         5.0000  22.2500  39.5000 Du        
   9712 ****         5.0000  22.5000  34.5000 Du        
   9713 ****         5.0000  22.5000  34.7500 Du        
   9714 ****         5.0000  22.5000  35.0000 Du        
   9715 ****         5.0000  22.7500  34.7500 Du        
   9716 ****         5.0000  22.7500  35.0000 Du        
   9717 ****         5.0000  22.7500  35.2500 Du        
   9718 ****         5.0000  23.0000  34.7500 Du        
   9719 ****         5.0000  23.0000  35.0000 Du        
   9720 ****         5.0000  23.0000  35.2500 Du        
   9721 ****         5.0000  23.2500  35.0000 Du        
   9722 ****         5.0000  23.2500  35.2500 Du        
   9723 ****         5.0000  23.5000  35.2500 Du        
   9724 ****         5.0000  23.7500  35.2500 Du        
   9725 ****         5.0000  24.2500  35.2500 Du        
   9726 ****         5.0000  24.5000  35.2500 Du        
   9727 ****         5.0000  24.7500  35.2500 Du        
   9728 ****         5.2500  10.0000  30.2500 Du        
   9729 ****         5.2500  10.0000  30.5000 Du        
   9730 ****         5.2500  10.0000  30.7500 Du        
   9731 ****         5.2500  10.0000  31.0000 Du        
   9732 ****         5.2500  10.2500  30.2500 Du        
   9733 ****         5.2500  10.2500  30.5000 Du        
   9734 ****         5.2500  10.2500  30.7500 Du        
   9735 ****         5.2500  10.2500  31.0000 Du        
   9736 ****         5.2500  10.2500  31.2500 Du        
   9737 ****         5.2500  10.2500  31.5000 Du        
   9738 ****         5.2500  10.5000  30.5000 Du        
   9739 ****         5.2500  10.5000  30.7500 Du        
   9740 ****         5.2500  10.5000  31.0000 Du        
   9741 ****         5.2500  10.5000  31.2500 Du        
   9742 ****         5.2500  10.5000  31.5000 Du        
   9743 ****         5.2500  10.5000  31.7500 Du        
   9744 ****         5.2500  10.5000  32.0000 Du        
   9745 ****         5.2500  10.7500  30.7500 Du        
   9746 ****         5.2500  10.7500  31.0000 Du        
   9747 ****         5.2500  10.7500  31.2500 Du        
   9748 ****         5.2500  10.7500  31.5000 Du        
   9749 ****         5.2500  10.7500  31.7500 Du        
   9750 ****         5.2500  10.7500  32.0000 Du        
   9751 ****         5.2500  10.7500  32.2500 Du        
   9752 ****         5.2500  10.7500  32.5000 Du        
   9753 ****         5.2500  10.7500  32.7500 Du        
   9754 ****         5.2500  11.0000  31.0000 Du        
   9755 ****         5.2500  11.0000  31.2500 Du        
   9756 ****         5.2500  11.0000  31.5000 Du        
   9757 ****         5.2500  11.0000  31.7500 Du        
   9758 ****         5.2500  11.0000  32.0000 Du        
   9759 ****         5.2500  11.0000  32.2500 Du        
   9760 ****         5.2500  11.0000  32.5000 Du        
   9761 ****         5.2500  11.0000  32.7500 Du        
   9762 ****         5.2500  11.0000  33.0000 Du        
   9763 ****         5.2500  11.2500  31.2500 Du        
   9764 ****         5.2500  11.2500  31.5000 Du        
   9765 ****         5.2500  11.2500  31.7500 Du        
   9766 ****         5.2500  11.2500  32.0000 Du        
   9767 ****         5.2500  11.2500  32.2500 Du        
   9768 ****         5.2500  11.2500  32.5000 Du        
   9769 ****         5.2500  11.2500  32.7500 Du        
   9770 ****         5.2500  11.2500  33.0000 Du        
   9771 ****         5.2500  11.2500  33.2500 Du        
   9772 ****         5.2500  11.5000  31.5000 Du        
   9773 ****         5.2500  11.5000  31.7500 Du        
   9774 ****         5.2500  11.5000  32.0000 Du        
   9775 ****         5.2500  11.5000  32.2500 Du        
   9776 ****         5.2500  11.5000  32.5000 Du        
   9777 ****         5.2500  11.5000  32.7500 Du        
   9778 ****         5.2500  11.5000  33.0000 Du        
   9779 ****         5.2500  11.5000  33.2500 Du        
   9780 ****         5.2500  11.7500  31.7500 Du        
   9781 ****         5.2500  11.7500  32.0000 Du        
   9782 ****         5.2500  11.7500  32.2500 Du        
   9783 ****         5.2500  11.7500  32.5000 Du        
   9784 ****         5.2500  11.7500  32.7500 Du        
   9785 ****         5.2500  11.7500  33.0000 Du        
   9786 ****         5.2500  11.7500  33.2500 Du        
   9787 ****         5.2500  11.7500  33.5000 Du        
   9788 ****         5.2500  11.7500  33.7500 Du        
   9789 ****         5.2500  12.0000  32.0000 Du        
   9790 ****         5.2500  12.0000  32.2500 Du        
   9791 ****         5.2500  12.0000  32.5000 Du        
   9792 ****         5.2500  12.0000  32.7500 Du        
   9793 ****         5.2500  12.0000  33.0000 Du        
   9794 ****         5.2500  12.0000  33.2500 Du        
   9795 ****         5.2500  12.0000  33.5000 Du        
   9796 ****         5.2500  12.0000  33.7500 Du        
   9797 ****         5.2500  12.0000  34.0000 Du        
   9798 ****         5.2500  12.2500  32.2500 Du        
   9799 ****         5.2500  12.2500  32.5000 Du        
   9800 ****         5.2500  12.2500  32.7500 Du        
   9801 ****         5.2500  12.2500  33.0000 Du        
   9802 ****         5.2500  12.2500  33.2500 Du        
   9803 ****         5.2500  12.2500  33.5000 Du        
   9804 ****         5.2500  12.2500  33.7500 Du        
   9805 ****         5.2500  12.2500  34.0000 Du        
   9806 ****         5.2500  12.5000  32.7500 Du        
   9807 ****         5.2500  12.5000  33.0000 Du        
   9808 ****         5.2500  12.5000  33.2500 Du        
   9809 ****         5.2500  12.5000  33.5000 Du        
   9810 ****         5.2500  12.5000  33.7500 Du        
   9811 ****         5.2500  12.5000  34.0000 Du        
   9812 ****         5.2500  12.5000  34.2500 Du        
   9813 ****         5.2500  12.5000  34.5000 Du        
   9814 ****         5.2500  12.7500  33.0000 Du        
   9815 ****         5.2500  12.7500  33.2500 Du        
   9816 ****         5.2500  12.7500  33.5000 Du        
   9817 ****         5.2500  12.7500  33.7500 Du        
   9818 ****         5.2500  12.7500  34.0000 Du        
   9819 ****         5.2500  12.7500  34.2500 Du        
   9820 ****         5.2500  12.7500  34.5000 Du        
   9821 ****         5.2500  12.7500  34.7500 Du        
   9822 ****         5.2500  13.0000  33.2500 Du        
   9823 ****         5.2500  13.0000  33.5000 Du        
   9824 ****         5.2500  13.0000  33.7500 Du        
   9825 ****         5.2500  13.0000  34.0000 Du        
   9826 ****         5.2500  13.0000  34.2500 Du        
   9827 ****         5.2500  13.0000  34.5000 Du        
   9828 ****         5.2500  13.0000  34.7500 Du        
   9829 ****         5.2500  13.0000  35.0000 Du        
   9830 ****         5.2500  13.2500  33.5000 Du        
   9831 ****         5.2500  13.2500  33.7500 Du        
   9832 ****         5.2500  13.2500  34.0000 Du        
   9833 ****         5.2500  13.2500  34.2500 Du        
   9834 ****         5.2500  13.2500  34.5000 Du        
   9835 ****         5.2500  13.2500  34.7500 Du        
   9836 ****         5.2500  13.2500  41.7500 Du        
   9837 ****         5.2500  13.2500  42.0000 Du        
   9838 ****         5.2500  13.5000  41.5000 Du        
   9839 ****         5.2500  13.5000  41.7500 Du        
   9840 ****         5.2500  13.5000  42.0000 Du        
   9841 ****         5.2500  13.5000  42.2500 Du        
   9842 ****         5.2500  13.7500  41.2500 Du        
   9843 ****         5.2500  13.7500  41.5000 Du        
   9844 ****         5.2500  13.7500  41.7500 Du        
   9845 ****         5.2500  13.7500  42.0000 Du        
   9846 ****         5.2500  13.7500  42.2500 Du        
   9847 ****         5.2500  13.7500  42.5000 Du        
   9848 ****         5.2500  14.0000  40.7500 Du        
   9849 ****         5.2500  14.0000  41.0000 Du        
   9850 ****         5.2500  14.0000  41.2500 Du        
   9851 ****         5.2500  14.0000  41.5000 Du        
   9852 ****         5.2500  14.0000  41.7500 Du        
   9853 ****         5.2500  14.0000  42.0000 Du        
   9854 ****         5.2500  14.0000  42.2500 Du        
   9855 ****         5.2500  14.2500  40.5000 Du        
   9856 ****         5.2500  14.2500  40.7500 Du        
   9857 ****         5.2500  14.2500  41.0000 Du        
   9858 ****         5.2500  14.2500  41.2500 Du        
   9859 ****         5.2500  14.2500  41.5000 Du        
   9860 ****         5.2500  14.2500  41.7500 Du        
   9861 ****         5.2500  14.5000  40.2500 Du        
   9862 ****         5.2500  14.5000  40.5000 Du        
   9863 ****         5.2500  14.5000  40.7500 Du        
   9864 ****         5.2500  14.5000  41.0000 Du        
   9865 ****         5.2500  14.5000  41.2500 Du        
   9866 ****         5.2500  14.5000  41.5000 Du        
   9867 ****         5.2500  14.7500  40.2500 Du        
   9868 ****         5.2500  14.7500  40.5000 Du        
   9869 ****         5.2500  14.7500  40.7500 Du        
   9870 ****         5.2500  14.7500  41.0000 Du        
   9871 ****         5.2500  14.7500  41.2500 Du        
   9872 ****         5.2500  15.0000  40.5000 Du        
   9873 ****         5.2500  15.0000  40.7500 Du        
   9874 ****         5.2500  15.0000  41.0000 Du        
   9875 ****         5.2500  15.2500  40.7500 Du        
   9876 ****         5.2500  15.2500  41.0000 Du        
   9877 ****         5.2500  17.7500  34.5000 Du        
   9878 ****         5.2500  18.0000  34.2500 Du        
   9879 ****         5.2500  18.0000  34.5000 Du        
   9880 ****         5.2500  18.0000  34.7500 Du        
   9881 ****         5.2500  18.0000  40.7500 Du        
   9882 ****         5.2500  18.2500  34.2500 Du        
   9883 ****         5.2500  18.2500  34.5000 Du        
   9884 ****         5.2500  18.2500  34.7500 Du        
   9885 ****         5.2500  18.2500  35.0000 Du        
   9886 ****         5.2500  18.2500  40.7500 Du        
   9887 ****         5.2500  18.5000  34.2500 Du        
   9888 ****         5.2500  18.5000  34.5000 Du        
   9889 ****         5.2500  18.5000  34.7500 Du        
   9890 ****         5.2500  18.5000  35.0000 Du        
   9891 ****         5.2500  18.5000  40.5000 Du        
   9892 ****         5.2500  18.5000  40.7500 Du        
   9893 ****         5.2500  18.7500  34.2500 Du        
   9894 ****         5.2500  18.7500  34.5000 Du        
   9895 ****         5.2500  18.7500  34.7500 Du        
   9896 ****         5.2500  18.7500  35.0000 Du        
   9897 ****         5.2500  18.7500  35.2500 Du        
   9898 ****         5.2500  18.7500  40.5000 Du        
   9899 ****         5.2500  18.7500  40.7500 Du        
   9900 ****         5.2500  19.0000  34.2500 Du        
   9901 ****         5.2500  19.0000  34.5000 Du        
   9902 ****         5.2500  19.0000  34.7500 Du        
   9903 ****         5.2500  19.0000  35.0000 Du        
   9904 ****         5.2500  19.0000  35.2500 Du        
   9905 ****         5.2500  19.0000  40.5000 Du        
   9906 ****         5.2500  19.0000  40.7500 Du        
   9907 ****         5.2500  19.2500  34.2500 Du        
   9908 ****         5.2500  19.2500  34.5000 Du        
   9909 ****         5.2500  19.2500  34.7500 Du        
   9910 ****         5.2500  19.2500  35.0000 Du        
   9911 ****         5.2500  19.2500  35.2500 Du        
   9912 ****         5.2500  19.2500  40.5000 Du        
   9913 ****         5.2500  19.5000  34.2500 Du        
   9914 ****         5.2500  19.5000  34.5000 Du        
   9915 ****         5.2500  19.5000  34.7500 Du        
   9916 ****         5.2500  19.5000  35.0000 Du        
   9917 ****         5.2500  19.5000  35.2500 Du        
   9918 ****         5.2500  19.5000  40.5000 Du        
   9919 ****         5.2500  19.7500  34.2500 Du        
   9920 ****         5.2500  19.7500  34.5000 Du        
   9921 ****         5.2500  19.7500  34.7500 Du        
   9922 ****         5.2500  19.7500  35.0000 Du        
   9923 ****         5.2500  19.7500  35.2500 Du        
   9924 ****         5.2500  19.7500  40.2500 Du        
   9925 ****         5.2500  20.0000  34.0000 Du        
   9926 ****         5.2500  20.0000  34.2500 Du        
   9927 ****         5.2500  20.0000  34.5000 Du        
   9928 ****         5.2500  20.0000  34.7500 Du        
   9929 ****         5.2500  20.0000  35.0000 Du        
   9930 ****         5.2500  20.0000  40.2500 Du        
   9931 ****         5.2500  20.2500  33.7500 Du        
   9932 ****         5.2500  20.2500  34.0000 Du        
   9933 ****         5.2500  20.2500  34.2500 Du        
   9934 ****         5.2500  20.2500  34.5000 Du        
   9935 ****         5.2500  20.2500  34.7500 Du        
   9936 ****         5.2500  20.2500  35.0000 Du        
   9937 ****         5.2500  20.2500  35.2500 Du        
   9938 ****         5.2500  20.5000  33.5000 Du        
   9939 ****         5.2500  20.5000  33.7500 Du        
   9940 ****         5.2500  20.5000  34.0000 Du        
   9941 ****         5.2500  20.5000  34.2500 Du        
   9942 ****         5.2500  20.5000  34.5000 Du        
   9943 ****         5.2500  20.5000  34.7500 Du        
   9944 ****         5.2500  20.5000  40.0000 Du        
   9945 ****         5.2500  20.7500  33.5000 Du        
   9946 ****         5.2500  20.7500  33.7500 Du        
   9947 ****         5.2500  20.7500  34.0000 Du        
   9948 ****         5.2500  20.7500  34.2500 Du        
   9949 ****         5.2500  20.7500  34.5000 Du        
   9950 ****         5.2500  20.7500  34.7500 Du        
   9951 ****         5.2500  20.7500  39.7500 Du        
   9952 ****         5.2500  20.7500  40.0000 Du        
   9953 ****         5.2500  21.0000  33.7500 Du        
   9954 ****         5.2500  21.0000  34.0000 Du        
   9955 ****         5.2500  21.0000  34.2500 Du        
   9956 ****         5.2500  21.0000  34.5000 Du        
   9957 ****         5.2500  21.0000  34.7500 Du        
   9958 ****         5.2500  21.0000  39.5000 Du        
   9959 ****         5.2500  21.0000  39.7500 Du        
   9960 ****         5.2500  21.2500  33.7500 Du        
   9961 ****         5.2500  21.2500  34.0000 Du        
   9962 ****         5.2500  21.2500  34.2500 Du        
   9963 ****         5.2500  21.2500  34.5000 Du        
   9964 ****         5.2500  21.2500  34.7500 Du        
   9965 ****         5.2500  21.2500  39.7500 Du        
   9966 ****         5.2500  21.5000  34.0000 Du        
   9967 ****         5.2500  21.5000  34.2500 Du        
   9968 ****         5.2500  21.5000  34.5000 Du        
   9969 ****         5.2500  21.5000  34.7500 Du        
   9970 ****         5.2500  21.7500  34.0000 Du        
   9971 ****         5.2500  21.7500  34.2500 Du        
   9972 ****         5.2500  21.7500  34.5000 Du        
   9973 ****         5.2500  21.7500  34.7500 Du        
   9974 ****         5.2500  22.0000  34.2500 Du        
   9975 ****         5.2500  22.0000  34.5000 Du        
   9976 ****         5.2500  22.0000  34.7500 Du        
   9977 ****         5.2500  22.2500  34.2500 Du        
   9978 ****         5.2500  22.2500  34.7500 Du        
   9979 ****         5.2500  22.5000  34.7500 Du        
   9980 ****         5.2500  22.5000  35.0000 Du        
   9981 ****         5.2500  22.7500  34.7500 Du        
   9982 ****         5.2500  22.7500  35.0000 Du        
   9983 ****         5.2500  23.0000  34.7500 Du        
   9984 ****         5.2500  23.0000  35.0000 Du        
   9985 ****         5.2500  23.0000  35.2500 Du        
   9986 ****         5.2500  23.2500  35.0000 Du        
   9987 ****         5.2500  23.2500  35.2500 Du        
   9988 ****         5.2500  23.5000  35.2500 Du        
   9989 ****         5.2500  24.0000  35.2500 Du        
   9990 ****         5.2500  24.2500  35.2500 Du        
   9991 ****         5.2500  24.5000  35.2500 Du        
   9992 ****         5.2500  24.5000  35.5000 Du        
   9993 ****         5.2500  24.7500  35.2500 Du        
   9994 ****         5.2500  24.7500  35.5000 Du        
   9995 ****         5.2500  24.7500  35.7500 Du        
   9996 ****         5.5000  10.0000  30.2500 Du        
   9997 ****         5.5000  10.0000  30.5000 Du        
   9998 ****         5.5000  10.0000  30.7500 Du        
   9999 ****         5.5000  10.0000  31.0000 Du        
  10000 ****         5.5000  10.2500  30.2500 Du        
  10001 ****         5.5000  10.2500  30.5000 Du        
  10002 ****         5.5000  10.2500  30.7500 Du        
  10003 ****         5.5000  10.2500  31.0000 Du        
  10004 ****         5.5000  10.2500  31.2500 Du        
  10005 ****         5.5000  10.2500  31.5000 Du        
  10006 ****         5.5000  10.5000  30.7500 Du        
  10007 ****         5.5000  10.5000  31.0000 Du        
  10008 ****         5.5000  10.5000  31.2500 Du        
  10009 ****         5.5000  10.5000  31.5000 Du        
  10010 ****         5.5000  10.5000  31.7500 Du        
  10011 ****         5.5000  10.5000  32.0000 Du        
  10012 ****         5.5000  10.7500  31.0000 Du        
  10013 ****         5.5000  10.7500  31.2500 Du        
  10014 ****         5.5000  10.7500  31.5000 Du        
  10015 ****         5.5000  10.7500  31.7500 Du        
  10016 ****         5.5000  10.7500  32.0000 Du        
  10017 ****         5.5000  10.7500  32.2500 Du        
  10018 ****         5.5000  10.7500  32.5000 Du        
  10019 ****         5.5000  11.0000  31.2500 Du        
  10020 ****         5.5000  11.0000  31.5000 Du        
  10021 ****         5.5000  11.0000  31.7500 Du        
  10022 ****         5.5000  11.0000  32.0000 Du        
  10023 ****         5.5000  11.0000  32.2500 Du        
  10024 ****         5.5000  11.0000  32.5000 Du        
  10025 ****         5.5000  11.0000  32.7500 Du        
  10026 ****         5.5000  11.0000  33.0000 Du        
  10027 ****         5.5000  11.2500  31.2500 Du        
  10028 ****         5.5000  11.2500  31.5000 Du        
  10029 ****         5.5000  11.2500  31.7500 Du        
  10030 ****         5.5000  11.2500  32.0000 Du        
  10031 ****         5.5000  11.2500  32.2500 Du        
  10032 ****         5.5000  11.2500  32.5000 Du        
  10033 ****         5.5000  11.2500  32.7500 Du        
  10034 ****         5.5000  11.2500  33.0000 Du        
  10035 ****         5.5000  11.2500  33.2500 Du        
  10036 ****         5.5000  11.5000  31.7500 Du        
  10037 ****         5.5000  11.5000  32.0000 Du        
  10038 ****         5.5000  11.5000  32.2500 Du        
  10039 ****         5.5000  11.5000  32.5000 Du        
  10040 ****         5.5000  11.5000  32.7500 Du        
  10041 ****         5.5000  11.5000  33.0000 Du        
  10042 ****         5.5000  11.5000  33.2500 Du        
  10043 ****         5.5000  11.7500  32.0000 Du        
  10044 ****         5.5000  11.7500  32.2500 Du        
  10045 ****         5.5000  11.7500  32.5000 Du        
  10046 ****         5.5000  11.7500  32.7500 Du        
  10047 ****         5.5000  11.7500  33.0000 Du        
  10048 ****         5.5000  11.7500  33.2500 Du        
  10049 ****         5.5000  11.7500  33.5000 Du        
  10050 ****         5.5000  12.0000  32.2500 Du        
  10051 ****         5.5000  12.0000  32.5000 Du        
  10052 ****         5.5000  12.0000  32.7500 Du        
  10053 ****         5.5000  12.0000  33.0000 Du        
  10054 ****         5.5000  12.0000  33.2500 Du        
  10055 ****         5.5000  12.0000  33.5000 Du        
  10056 ****         5.5000  12.0000  33.7500 Du        
  10057 ****         5.5000  12.2500  32.7500 Du        
  10058 ****         5.5000  12.2500  33.0000 Du        
  10059 ****         5.5000  12.2500  33.2500 Du        
  10060 ****         5.5000  12.2500  33.5000 Du        
  10061 ****         5.5000  12.2500  33.7500 Du        
  10062 ****         5.5000  12.2500  34.0000 Du        
  10063 ****         5.5000  12.5000  33.0000 Du        
  10064 ****         5.5000  12.5000  33.2500 Du        
  10065 ****         5.5000  12.5000  33.5000 Du        
  10066 ****         5.5000  12.5000  33.7500 Du        
  10067 ****         5.5000  12.5000  34.0000 Du        
  10068 ****         5.5000  12.5000  34.2500 Du        
  10069 ****         5.5000  12.7500  33.2500 Du        
  10070 ****         5.5000  12.7500  33.5000 Du        
  10071 ****         5.5000  12.7500  33.7500 Du        
  10072 ****         5.5000  12.7500  34.0000 Du        
  10073 ****         5.5000  12.7500  34.2500 Du        
  10074 ****         5.5000  12.7500  34.5000 Du        
  10075 ****         5.5000  12.7500  34.7500 Du        
  10076 ****         5.5000  13.0000  33.5000 Du        
  10077 ****         5.5000  13.0000  33.7500 Du        
  10078 ****         5.5000  13.0000  34.0000 Du        
  10079 ****         5.5000  13.0000  34.2500 Du        
  10080 ****         5.5000  13.0000  34.5000 Du        
  10081 ****         5.5000  13.0000  34.7500 Du        
  10082 ****         5.5000  13.0000  35.0000 Du        
  10083 ****         5.5000  13.0000  41.7500 Du        
  10084 ****         5.5000  13.0000  42.0000 Du        
  10085 ****         5.5000  13.2500  33.7500 Du        
  10086 ****         5.5000  13.2500  34.0000 Du        
  10087 ****         5.5000  13.2500  34.2500 Du        
  10088 ****         5.5000  13.2500  34.5000 Du        
  10089 ****         5.5000  13.2500  34.7500 Du        
  10090 ****         5.5000  13.2500  35.0000 Du        
  10091 ****         5.5000  13.2500  35.2500 Du        
  10092 ****         5.5000  13.2500  41.2500 Du        
  10093 ****         5.5000  13.2500  41.5000 Du        
  10094 ****         5.5000  13.2500  41.7500 Du        
  10095 ****         5.5000  13.2500  42.0000 Du        
  10096 ****         5.5000  13.2500  42.2500 Du        
  10097 ****         5.5000  13.2500  42.5000 Du        
  10098 ****         5.5000  13.2500  42.7500 Du        
  10099 ****         5.5000  13.5000  34.0000 Du        
  10100 ****         5.5000  13.5000  34.2500 Du        
  10101 ****         5.5000  13.5000  34.5000 Du        
  10102 ****         5.5000  13.5000  34.7500 Du        
  10103 ****         5.5000  13.5000  35.0000 Du        
  10104 ****         5.5000  13.5000  41.0000 Du        
  10105 ****         5.5000  13.5000  41.2500 Du        
  10106 ****         5.5000  13.5000  41.5000 Du        
  10107 ****         5.5000  13.5000  41.7500 Du        
  10108 ****         5.5000  13.5000  42.0000 Du        
  10109 ****         5.5000  13.5000  42.2500 Du        
  10110 ****         5.5000  13.5000  42.5000 Du        
  10111 ****         5.5000  13.5000  42.7500 Du        
  10112 ****         5.5000  13.5000  43.0000 Du        
  10113 ****         5.5000  13.5000  43.2500 Du        
  10114 ****         5.5000  13.7500  40.7500 Du        
  10115 ****         5.5000  13.7500  41.0000 Du        
  10116 ****         5.5000  13.7500  41.2500 Du        
  10117 ****         5.5000  13.7500  41.5000 Du        
  10118 ****         5.5000  13.7500  41.7500 Du        
  10119 ****         5.5000  13.7500  42.0000 Du        
  10120 ****         5.5000  13.7500  42.2500 Du        
  10121 ****         5.5000  13.7500  42.5000 Du        
  10122 ****         5.5000  13.7500  42.7500 Du        
  10123 ****         5.5000  13.7500  43.0000 Du        
  10124 ****         5.5000  13.7500  43.2500 Du        
  10125 ****         5.5000  14.0000  40.5000 Du        
  10126 ****         5.5000  14.0000  40.7500 Du        
  10127 ****         5.5000  14.0000  41.0000 Du        
  10128 ****         5.5000  14.0000  41.2500 Du        
  10129 ****         5.5000  14.0000  41.5000 Du        
  10130 ****         5.5000  14.0000  41.7500 Du        
  10131 ****         5.5000  14.0000  42.0000 Du        
  10132 ****         5.5000  14.0000  42.2500 Du        
  10133 ****         5.5000  14.0000  42.5000 Du        
  10134 ****         5.5000  14.0000  42.7500 Du        
  10135 ****         5.5000  14.0000  43.0000 Du        
  10136 ****         5.5000  14.0000  43.2500 Du        
  10137 ****         5.5000  14.2500  40.0000 Du        
  10138 ****         5.5000  14.2500  40.2500 Du        
  10139 ****         5.5000  14.2500  40.5000 Du        
  10140 ****         5.5000  14.2500  40.7500 Du        
  10141 ****         5.5000  14.2500  41.0000 Du        
  10142 ****         5.5000  14.2500  41.2500 Du        
  10143 ****         5.5000  14.2500  41.5000 Du        
  10144 ****         5.5000  14.2500  41.7500 Du        
  10145 ****         5.5000  14.2500  42.0000 Du        
  10146 ****         5.5000  14.2500  42.2500 Du        
  10147 ****         5.5000  14.2500  42.5000 Du        
  10148 ****         5.5000  14.2500  42.7500 Du        
  10149 ****         5.5000  14.2500  43.0000 Du        
  10150 ****         5.5000  14.5000  40.0000 Du        
  10151 ****         5.5000  14.5000  40.2500 Du        
  10152 ****         5.5000  14.5000  40.5000 Du        
  10153 ****         5.5000  14.5000  40.7500 Du        
  10154 ****         5.5000  14.5000  41.0000 Du        
  10155 ****         5.5000  14.5000  41.2500 Du        
  10156 ****         5.5000  14.5000  41.5000 Du        
  10157 ****         5.5000  14.5000  41.7500 Du        
  10158 ****         5.5000  14.5000  42.0000 Du        
  10159 ****         5.5000  14.7500  40.0000 Du        
  10160 ****         5.5000  14.7500  40.2500 Du        
  10161 ****         5.5000  14.7500  40.5000 Du        
  10162 ****         5.5000  14.7500  40.7500 Du        
  10163 ****         5.5000  14.7500  41.0000 Du        
  10164 ****         5.5000  14.7500  41.2500 Du        
  10165 ****         5.5000  14.7500  41.5000 Du        
  10166 ****         5.5000  14.7500  41.7500 Du        
  10167 ****         5.5000  15.0000  40.2500 Du        
  10168 ****         5.5000  15.0000  40.5000 Du        
  10169 ****         5.5000  15.0000  40.7500 Du        
  10170 ****         5.5000  15.0000  41.0000 Du        
  10171 ****         5.5000  15.0000  41.2500 Du        
  10172 ****         5.5000  15.0000  41.5000 Du        
  10173 ****         5.5000  15.2500  40.5000 Du        
  10174 ****         5.5000  15.2500  40.7500 Du        
  10175 ****         5.5000  15.2500  41.0000 Du        
  10176 ****         5.5000  15.2500  41.2500 Du        
  10177 ****         5.5000  15.2500  41.5000 Du        
  10178 ****         5.5000  15.5000  40.7500 Du        
  10179 ****         5.5000  15.5000  41.0000 Du        
  10180 ****         5.5000  15.5000  41.2500 Du        
  10181 ****         5.5000  15.7500  40.7500 Du        
  10182 ****         5.5000  15.7500  41.0000 Du        
  10183 ****         5.5000  15.7500  41.2500 Du        
  10184 ****         5.5000  16.0000  41.0000 Du        
  10185 ****         5.5000  16.2500  41.0000 Du        
  10186 ****         5.5000  17.0000  41.0000 Du        
  10187 ****         5.5000  17.2500  40.7500 Du        
  10188 ****         5.5000  17.2500  41.0000 Du        
  10189 ****         5.5000  17.5000  40.7500 Du        
  10190 ****         5.5000  17.5000  41.0000 Du        
  10191 ****         5.5000  17.7500  34.5000 Du        
  10192 ****         5.5000  17.7500  34.7500 Du        
  10193 ****         5.5000  17.7500  40.5000 Du        
  10194 ****         5.5000  17.7500  40.7500 Du        
  10195 ****         5.5000  17.7500  41.0000 Du        
  10196 ****         5.5000  18.0000  34.2500 Du        
  10197 ****         5.5000  18.0000  34.5000 Du        
  10198 ****         5.5000  18.0000  34.7500 Du        
  10199 ****         5.5000  18.0000  35.0000 Du        
  10200 ****         5.5000  18.0000  40.5000 Du        
  10201 ****         5.5000  18.0000  40.7500 Du        
  10202 ****         5.5000  18.0000  41.0000 Du        
  10203 ****         5.5000  18.2500  34.0000 Du        
  10204 ****         5.5000  18.2500  34.2500 Du        
  10205 ****         5.5000  18.2500  34.5000 Du        
  10206 ****         5.5000  18.2500  34.7500 Du        
  10207 ****         5.5000  18.2500  35.0000 Du        
  10208 ****         5.5000  18.2500  40.5000 Du        
  10209 ****         5.5000  18.2500  40.7500 Du        
  10210 ****         5.5000  18.2500  41.0000 Du        
  10211 ****         5.5000  18.5000  34.0000 Du        
  10212 ****         5.5000  18.5000  34.2500 Du        
  10213 ****         5.5000  18.5000  34.5000 Du        
  10214 ****         5.5000  18.5000  34.7500 Du        
  10215 ****         5.5000  18.5000  35.0000 Du        
  10216 ****         5.5000  18.5000  40.5000 Du        
  10217 ****         5.5000  18.5000  40.7500 Du        
  10218 ****         5.5000  18.5000  41.0000 Du        
  10219 ****         5.5000  18.7500  34.0000 Du        
  10220 ****         5.5000  18.7500  34.2500 Du        
  10221 ****         5.5000  18.7500  34.5000 Du        
  10222 ****         5.5000  18.7500  34.7500 Du        
  10223 ****         5.5000  18.7500  35.0000 Du        
  10224 ****         5.5000  18.7500  35.2500 Du        
  10225 ****         5.5000  18.7500  40.5000 Du        
  10226 ****         5.5000  18.7500  40.7500 Du        
  10227 ****         5.5000  18.7500  41.0000 Du        
  10228 ****         5.5000  19.0000  34.0000 Du        
  10229 ****         5.5000  19.0000  34.2500 Du        
  10230 ****         5.5000  19.0000  34.5000 Du        
  10231 ****         5.5000  19.0000  34.7500 Du        
  10232 ****         5.5000  19.0000  35.0000 Du        
  10233 ****         5.5000  19.0000  35.2500 Du        
  10234 ****         5.5000  19.0000  40.2500 Du        
  10235 ****         5.5000  19.0000  40.5000 Du        
  10236 ****         5.5000  19.0000  40.7500 Du        
  10237 ****         5.5000  19.0000  41.0000 Du        
  10238 ****         5.5000  19.2500  34.0000 Du        
  10239 ****         5.5000  19.2500  34.2500 Du        
  10240 ****         5.5000  19.2500  34.5000 Du        
  10241 ****         5.5000  19.2500  34.7500 Du        
  10242 ****         5.5000  19.2500  35.0000 Du        
  10243 ****         5.5000  19.2500  35.2500 Du        
  10244 ****         5.5000  19.2500  40.5000 Du        
  10245 ****         5.5000  19.2500  40.7500 Du        
  10246 ****         5.5000  19.5000  34.0000 Du        
  10247 ****         5.5000  19.5000  34.2500 Du        
  10248 ****         5.5000  19.5000  34.5000 Du        
  10249 ****         5.5000  19.5000  34.7500 Du        
  10250 ****         5.5000  19.5000  35.0000 Du        
  10251 ****         5.5000  19.5000  35.2500 Du        
  10252 ****         5.5000  19.5000  40.2500 Du        
  10253 ****         5.5000  19.5000  40.5000 Du        
  10254 ****         5.5000  19.5000  40.7500 Du        
  10255 ****         5.5000  19.7500  34.0000 Du        
  10256 ****         5.5000  19.7500  34.2500 Du        
  10257 ****         5.5000  19.7500  34.5000 Du        
  10258 ****         5.5000  19.7500  34.7500 Du        
  10259 ****         5.5000  19.7500  35.0000 Du        
  10260 ****         5.5000  19.7500  35.2500 Du        
  10261 ****         5.5000  19.7500  40.2500 Du        
  10262 ****         5.5000  19.7500  40.5000 Du        
  10263 ****         5.5000  20.0000  33.7500 Du        
  10264 ****         5.5000  20.0000  34.0000 Du        
  10265 ****         5.5000  20.0000  34.2500 Du        
  10266 ****         5.5000  20.0000  34.5000 Du        
  10267 ****         5.5000  20.0000  34.7500 Du        
  10268 ****         5.5000  20.0000  35.0000 Du        
  10269 ****         5.5000  20.0000  35.2500 Du        
  10270 ****         5.5000  20.0000  40.0000 Du        
  10271 ****         5.5000  20.0000  40.2500 Du        
  10272 ****         5.5000  20.0000  40.5000 Du        
  10273 ****         5.5000  20.2500  33.2500 Du        
  10274 ****         5.5000  20.2500  33.5000 Du        
  10275 ****         5.5000  20.2500  33.7500 Du        
  10276 ****         5.5000  20.2500  34.0000 Du        
  10277 ****         5.5000  20.2500  34.2500 Du        
  10278 ****         5.5000  20.2500  34.5000 Du        
  10279 ****         5.5000  20.2500  34.7500 Du        
  10280 ****         5.5000  20.2500  35.0000 Du        
  10281 ****         5.5000  20.2500  35.2500 Du        
  10282 ****         5.5000  20.2500  39.7500 Du        
  10283 ****         5.5000  20.2500  40.0000 Du        
  10284 ****         5.5000  20.2500  40.2500 Du        
  10285 ****         5.5000  20.5000  33.2500 Du        
  10286 ****         5.5000  20.5000  33.5000 Du        
  10287 ****         5.5000  20.5000  33.7500 Du        
  10288 ****         5.5000  20.5000  34.0000 Du        
  10289 ****         5.5000  20.5000  34.2500 Du        
  10290 ****         5.5000  20.5000  34.5000 Du        
  10291 ****         5.5000  20.5000  34.7500 Du        
  10292 ****         5.5000  20.5000  39.7500 Du        
  10293 ****         5.5000  20.5000  40.0000 Du        
  10294 ****         5.5000  20.7500  33.5000 Du        
  10295 ****         5.5000  20.7500  33.7500 Du        
  10296 ****         5.5000  20.7500  34.0000 Du        
  10297 ****         5.5000  20.7500  34.2500 Du        
  10298 ****         5.5000  20.7500  34.5000 Du        
  10299 ****         5.5000  20.7500  34.7500 Du        
  10300 ****         5.5000  20.7500  39.7500 Du        
  10301 ****         5.5000  20.7500  40.0000 Du        
  10302 ****         5.5000  21.0000  33.7500 Du        
  10303 ****         5.5000  21.0000  34.0000 Du        
  10304 ****         5.5000  21.0000  34.2500 Du        
  10305 ****         5.5000  21.0000  34.5000 Du        
  10306 ****         5.5000  21.0000  34.7500 Du        
  10307 ****         5.5000  21.0000  39.5000 Du        
  10308 ****         5.5000  21.0000  39.7500 Du        
  10309 ****         5.5000  21.2500  33.7500 Du        
  10310 ****         5.5000  21.2500  34.0000 Du        
  10311 ****         5.5000  21.2500  34.2500 Du        
  10312 ****         5.5000  21.5000  34.0000 Du        
  10313 ****         5.5000  21.5000  34.2500 Du        
  10314 ****         5.5000  21.7500  34.2500 Du        
  10315 ****         5.5000  23.7500  35.2500 Du        
  10316 ****         5.5000  24.0000  35.2500 Du        
  10317 ****         5.5000  24.2500  35.2500 Du        
  10318 ****         5.5000  24.5000  35.2500 Du        
  10319 ****         5.5000  24.5000  35.5000 Du        
  10320 ****         5.5000  24.5000  35.7500 Du        
  10321 ****         5.5000  24.7500  35.2500 Du        
  10322 ****         5.5000  24.7500  35.5000 Du        
  10323 ****         5.5000  24.7500  35.7500 Du        
  10324 ****         5.7500   9.7500  30.5000 Du        
  10325 ****         5.7500   9.7500  30.7500 Du        
  10326 ****         5.7500  10.0000  30.2500 Du        
  10327 ****         5.7500  10.0000  30.5000 Du        
  10328 ****         5.7500  10.0000  30.7500 Du        
  10329 ****         5.7500  10.0000  31.0000 Du        
  10330 ****         5.7500  10.2500  30.5000 Du        
  10331 ****         5.7500  10.2500  30.7500 Du        
  10332 ****         5.7500  10.2500  31.0000 Du        
  10333 ****         5.7500  10.2500  31.2500 Du        
  10334 ****         5.7500  10.2500  31.5000 Du        
  10335 ****         5.7500  10.5000  30.7500 Du        
  10336 ****         5.7500  10.5000  31.0000 Du        
  10337 ****         5.7500  10.5000  31.2500 Du        
  10338 ****         5.7500  10.5000  31.5000 Du        
  10339 ****         5.7500  10.5000  31.7500 Du        
  10340 ****         5.7500  10.5000  32.0000 Du        
  10341 ****         5.7500  10.7500  31.0000 Du        
  10342 ****         5.7500  10.7500  31.2500 Du        
  10343 ****         5.7500  10.7500  31.5000 Du        
  10344 ****         5.7500  10.7500  31.7500 Du        
  10345 ****         5.7500  10.7500  32.0000 Du        
  10346 ****         5.7500  10.7500  32.2500 Du        
  10347 ****         5.7500  10.7500  32.5000 Du        
  10348 ****         5.7500  10.7500  32.7500 Du        
  10349 ****         5.7500  11.0000  31.2500 Du        
  10350 ****         5.7500  11.0000  31.5000 Du        
  10351 ****         5.7500  11.0000  31.7500 Du        
  10352 ****         5.7500  11.0000  32.0000 Du        
  10353 ****         5.7500  11.0000  32.2500 Du        
  10354 ****         5.7500  11.0000  32.5000 Du        
  10355 ****         5.7500  11.0000  32.7500 Du        
  10356 ****         5.7500  11.0000  33.0000 Du        
  10357 ****         5.7500  11.2500  31.5000 Du        
  10358 ****         5.7500  11.2500  31.7500 Du        
  10359 ****         5.7500  11.2500  32.0000 Du        
  10360 ****         5.7500  11.2500  32.2500 Du        
  10361 ****         5.7500  11.2500  32.5000 Du        
  10362 ****         5.7500  11.2500  32.7500 Du        
  10363 ****         5.7500  11.2500  33.0000 Du        
  10364 ****         5.7500  11.2500  33.2500 Du        
  10365 ****         5.7500  11.5000  31.7500 Du        
  10366 ****         5.7500  11.5000  32.0000 Du        
  10367 ****         5.7500  11.5000  32.2500 Du        
  10368 ****         5.7500  11.5000  32.5000 Du        
  10369 ****         5.7500  11.5000  32.7500 Du        
  10370 ****         5.7500  11.5000  33.0000 Du        
  10371 ****         5.7500  11.5000  33.2500 Du        
  10372 ****         5.7500  11.7500  32.0000 Du        
  10373 ****         5.7500  11.7500  32.2500 Du        
  10374 ****         5.7500  11.7500  32.5000 Du        
  10375 ****         5.7500  11.7500  32.7500 Du        
  10376 ****         5.7500  11.7500  33.0000 Du        
  10377 ****         5.7500  11.7500  33.2500 Du        
  10378 ****         5.7500  11.7500  33.5000 Du        
  10379 ****         5.7500  12.0000  32.7500 Du        
  10380 ****         5.7500  12.0000  33.0000 Du        
  10381 ****         5.7500  12.0000  33.2500 Du        
  10382 ****         5.7500  12.0000  33.5000 Du        
  10383 ****         5.7500  12.0000  33.7500 Du        
  10384 ****         5.7500  12.2500  33.0000 Du        
  10385 ****         5.7500  12.2500  33.2500 Du        
  10386 ****         5.7500  12.2500  33.5000 Du        
  10387 ****         5.7500  12.2500  33.7500 Du        
  10388 ****         5.7500  12.2500  34.0000 Du        
  10389 ****         5.7500  12.5000  33.2500 Du        
  10390 ****         5.7500  12.5000  33.5000 Du        
  10391 ****         5.7500  12.5000  33.7500 Du        
  10392 ****         5.7500  12.5000  34.0000 Du        
  10393 ****         5.7500  12.5000  34.2500 Du        
  10394 ****         5.7500  12.7500  33.5000 Du        
  10395 ****         5.7500  12.7500  33.7500 Du        
  10396 ****         5.7500  12.7500  34.0000 Du        
  10397 ****         5.7500  12.7500  34.2500 Du        
  10398 ****         5.7500  12.7500  34.5000 Du        
  10399 ****         5.7500  12.7500  34.7500 Du        
  10400 ****         5.7500  13.0000  33.5000 Du        
  10401 ****         5.7500  13.0000  33.7500 Du        
  10402 ****         5.7500  13.0000  34.0000 Du        
  10403 ****         5.7500  13.0000  34.2500 Du        
  10404 ****         5.7500  13.0000  34.5000 Du        
  10405 ****         5.7500  13.0000  34.7500 Du        
  10406 ****         5.7500  13.0000  35.0000 Du        
  10407 ****         5.7500  13.0000  41.5000 Du        
  10408 ****         5.7500  13.0000  41.7500 Du        
  10409 ****         5.7500  13.0000  42.0000 Du        
  10410 ****         5.7500  13.2500  33.7500 Du        
  10411 ****         5.7500  13.2500  34.0000 Du        
  10412 ****         5.7500  13.2500  34.2500 Du        
  10413 ****         5.7500  13.2500  34.5000 Du        
  10414 ****         5.7500  13.2500  34.7500 Du        
  10415 ****         5.7500  13.2500  35.0000 Du        
  10416 ****         5.7500  13.2500  35.2500 Du        
  10417 ****         5.7500  13.2500  35.5000 Du        
  10418 ****         5.7500  13.2500  41.2500 Du        
  10419 ****         5.7500  13.2500  41.5000 Du        
  10420 ****         5.7500  13.2500  41.7500 Du        
  10421 ****         5.7500  13.2500  42.0000 Du        
  10422 ****         5.7500  13.2500  42.2500 Du        
  10423 ****         5.7500  13.2500  42.5000 Du        
  10424 ****         5.7500  13.2500  42.7500 Du        
  10425 ****         5.7500  13.2500  43.0000 Du        
  10426 ****         5.7500  13.5000  34.2500 Du        
  10427 ****         5.7500  13.5000  34.5000 Du        
  10428 ****         5.7500  13.5000  34.7500 Du        
  10429 ****         5.7500  13.5000  35.0000 Du        
  10430 ****         5.7500  13.5000  35.2500 Du        
  10431 ****         5.7500  13.5000  35.5000 Du        
  10432 ****         5.7500  13.5000  40.7500 Du        
  10433 ****         5.7500  13.5000  41.0000 Du        
  10434 ****         5.7500  13.5000  41.2500 Du        
  10435 ****         5.7500  13.5000  41.5000 Du        
  10436 ****         5.7500  13.5000  41.7500 Du        
  10437 ****         5.7500  13.5000  42.0000 Du        
  10438 ****         5.7500  13.5000  42.2500 Du        
  10439 ****         5.7500  13.5000  42.5000 Du        
  10440 ****         5.7500  13.5000  42.7500 Du        
  10441 ****         5.7500  13.5000  43.0000 Du        
  10442 ****         5.7500  13.5000  43.2500 Du        
  10443 ****         5.7500  13.7500  34.5000 Du        
  10444 ****         5.7500  13.7500  34.7500 Du        
  10445 ****         5.7500  13.7500  35.0000 Du        
  10446 ****         5.7500  13.7500  35.2500 Du        
  10447 ****         5.7500  13.7500  35.5000 Du        
  10448 ****         5.7500  13.7500  40.5000 Du        
  10449 ****         5.7500  13.7500  40.7500 Du        
  10450 ****         5.7500  13.7500  41.0000 Du        
  10451 ****         5.7500  13.7500  41.2500 Du        
  10452 ****         5.7500  13.7500  41.5000 Du        
  10453 ****         5.7500  13.7500  41.7500 Du        
  10454 ****         5.7500  13.7500  42.0000 Du        
  10455 ****         5.7500  13.7500  42.2500 Du        
  10456 ****         5.7500  13.7500  42.5000 Du        
  10457 ****         5.7500  13.7500  42.7500 Du        
  10458 ****         5.7500  13.7500  43.0000 Du        
  10459 ****         5.7500  13.7500  43.2500 Du        
  10460 ****         5.7500  14.0000  40.0000 Du        
  10461 ****         5.7500  14.0000  40.2500 Du        
  10462 ****         5.7500  14.0000  40.5000 Du        
  10463 ****         5.7500  14.0000  40.7500 Du        
  10464 ****         5.7500  14.0000  41.0000 Du        
  10465 ****         5.7500  14.0000  41.2500 Du        
  10466 ****         5.7500  14.0000  41.5000 Du        
  10467 ****         5.7500  14.0000  41.7500 Du        
  10468 ****         5.7500  14.0000  42.0000 Du        
  10469 ****         5.7500  14.0000  42.2500 Du        
  10470 ****         5.7500  14.0000  42.5000 Du        
  10471 ****         5.7500  14.0000  42.7500 Du        
  10472 ****         5.7500  14.0000  43.0000 Du        
  10473 ****         5.7500  14.0000  43.2500 Du        
  10474 ****         5.7500  14.2500  39.5000 Du        
  10475 ****         5.7500  14.2500  39.7500 Du        
  10476 ****         5.7500  14.2500  40.0000 Du        
  10477 ****         5.7500  14.2500  40.2500 Du        
  10478 ****         5.7500  14.2500  40.5000 Du        
  10479 ****         5.7500  14.2500  40.7500 Du        
  10480 ****         5.7500  14.2500  41.0000 Du        
  10481 ****         5.7500  14.2500  41.2500 Du        
  10482 ****         5.7500  14.2500  41.5000 Du        
  10483 ****         5.7500  14.2500  41.7500 Du        
  10484 ****         5.7500  14.2500  42.0000 Du        
  10485 ****         5.7500  14.2500  42.2500 Du        
  10486 ****         5.7500  14.2500  42.5000 Du        
  10487 ****         5.7500  14.2500  42.7500 Du        
  10488 ****         5.7500  14.2500  43.0000 Du        
  10489 ****         5.7500  14.2500  43.2500 Du        
  10490 ****         5.7500  14.5000  39.5000 Du        
  10491 ****         5.7500  14.5000  39.7500 Du        
  10492 ****         5.7500  14.5000  40.0000 Du        
  10493 ****         5.7500  14.5000  40.2500 Du        
  10494 ****         5.7500  14.5000  40.5000 Du        
  10495 ****         5.7500  14.5000  40.7500 Du        
  10496 ****         5.7500  14.5000  41.0000 Du        
  10497 ****         5.7500  14.5000  41.2500 Du        
  10498 ****         5.7500  14.5000  41.5000 Du        
  10499 ****         5.7500  14.5000  41.7500 Du        
  10500 ****         5.7500  14.5000  42.0000 Du        
  10501 ****         5.7500  14.5000  42.2500 Du        
  10502 ****         5.7500  14.5000  42.5000 Du        
  10503 ****         5.7500  14.5000  42.7500 Du        
  10504 ****         5.7500  14.5000  43.0000 Du        
  10505 ****         5.7500  14.5000  43.2500 Du        
  10506 ****         5.7500  14.7500  39.7500 Du        
  10507 ****         5.7500  14.7500  40.0000 Du        
  10508 ****         5.7500  14.7500  40.2500 Du        
  10509 ****         5.7500  14.7500  40.5000 Du        
  10510 ****         5.7500  14.7500  40.7500 Du        
  10511 ****         5.7500  14.7500  41.0000 Du        
  10512 ****         5.7500  14.7500  41.2500 Du        
  10513 ****         5.7500  14.7500  41.5000 Du        
  10514 ****         5.7500  14.7500  41.7500 Du        
  10515 ****         5.7500  14.7500  42.0000 Du        
  10516 ****         5.7500  14.7500  42.2500 Du        
  10517 ****         5.7500  14.7500  42.5000 Du        
  10518 ****         5.7500  14.7500  42.7500 Du        
  10519 ****         5.7500  14.7500  43.0000 Du        
  10520 ****         5.7500  14.7500  43.2500 Du        
  10521 ****         5.7500  15.0000  39.7500 Du        
  10522 ****         5.7500  15.0000  40.0000 Du        
  10523 ****         5.7500  15.0000  40.2500 Du        
  10524 ****         5.7500  15.0000  40.5000 Du        
  10525 ****         5.7500  15.0000  40.7500 Du        
  10526 ****         5.7500  15.0000  41.0000 Du        
  10527 ****         5.7500  15.0000  41.2500 Du        
  10528 ****         5.7500  15.0000  41.5000 Du        
  10529 ****         5.7500  15.0000  41.7500 Du        
  10530 ****         5.7500  15.0000  42.0000 Du        
  10531 ****         5.7500  15.0000  42.2500 Du        
  10532 ****         5.7500  15.0000  42.5000 Du        
  10533 ****         5.7500  15.0000  42.7500 Du        
  10534 ****         5.7500  15.0000  43.0000 Du        
  10535 ****         5.7500  15.0000  43.2500 Du        
  10536 ****         5.7500  15.2500  40.0000 Du        
  10537 ****         5.7500  15.2500  40.2500 Du        
  10538 ****         5.7500  15.2500  40.5000 Du        
  10539 ****         5.7500  15.2500  40.7500 Du        
  10540 ****         5.7500  15.2500  41.0000 Du        
  10541 ****         5.7500  15.2500  41.2500 Du        
  10542 ****         5.7500  15.2500  41.5000 Du        
  10543 ****         5.7500  15.2500  41.7500 Du        
  10544 ****         5.7500  15.2500  42.0000 Du        
  10545 ****         5.7500  15.2500  42.2500 Du        
  10546 ****         5.7500  15.5000  40.2500 Du        
  10547 ****         5.7500  15.5000  40.5000 Du        
  10548 ****         5.7500  15.5000  40.7500 Du        
  10549 ****         5.7500  15.5000  41.0000 Du        
  10550 ****         5.7500  15.5000  41.2500 Du        
  10551 ****         5.7500  15.5000  41.5000 Du        
  10552 ****         5.7500  15.5000  41.7500 Du        
  10553 ****         5.7500  15.5000  42.0000 Du        
  10554 ****         5.7500  15.7500  40.5000 Du        
  10555 ****         5.7500  15.7500  40.7500 Du        
  10556 ****         5.7500  15.7500  41.0000 Du        
  10557 ****         5.7500  15.7500  41.2500 Du        
  10558 ****         5.7500  15.7500  41.5000 Du        
  10559 ****         5.7500  15.7500  41.7500 Du        
  10560 ****         5.7500  15.7500  42.0000 Du        
  10561 ****         5.7500  16.0000  40.5000 Du        
  10562 ****         5.7500  16.0000  40.7500 Du        
  10563 ****         5.7500  16.0000  41.0000 Du        
  10564 ****         5.7500  16.0000  41.2500 Du        
  10565 ****         5.7500  16.0000  41.5000 Du        
  10566 ****         5.7500  16.0000  41.7500 Du        
  10567 ****         5.7500  16.0000  42.0000 Du        
  10568 ****         5.7500  16.2500  40.5000 Du        
  10569 ****         5.7500  16.2500  40.7500 Du        
  10570 ****         5.7500  16.2500  41.0000 Du        
  10571 ****         5.7500  16.2500  41.2500 Du        
  10572 ****         5.7500  16.2500  41.5000 Du        
  10573 ****         5.7500  16.2500  41.7500 Du        
  10574 ****         5.7500  16.5000  40.7500 Du        
  10575 ****         5.7500  16.5000  41.0000 Du        
  10576 ****         5.7500  16.5000  41.2500 Du        
  10577 ****         5.7500  16.5000  41.5000 Du        
  10578 ****         5.7500  16.7500  40.7500 Du        
  10579 ****         5.7500  16.7500  41.0000 Du        
  10580 ****         5.7500  16.7500  41.2500 Du        
  10581 ****         5.7500  16.7500  41.5000 Du        
  10582 ****         5.7500  17.0000  40.5000 Du        
  10583 ****         5.7500  17.0000  40.7500 Du        
  10584 ****         5.7500  17.0000  41.0000 Du        
  10585 ****         5.7500  17.0000  41.2500 Du        
  10586 ****         5.7500  17.0000  41.5000 Du        
  10587 ****         5.7500  17.2500  40.5000 Du        
  10588 ****         5.7500  17.2500  40.7500 Du        
  10589 ****         5.7500  17.2500  41.0000 Du        
  10590 ****         5.7500  17.2500  41.2500 Du        
  10591 ****         5.7500  17.2500  41.5000 Du        
  10592 ****         5.7500  17.5000  34.7500 Du        
  10593 ****         5.7500  17.5000  40.5000 Du        
  10594 ****         5.7500  17.5000  40.7500 Du        
  10595 ****         5.7500  17.5000  41.0000 Du        
  10596 ****         5.7500  17.5000  41.2500 Du        
  10597 ****         5.7500  17.7500  34.5000 Du        
  10598 ****         5.7500  17.7500  34.7500 Du        
  10599 ****         5.7500  17.7500  35.0000 Du        
  10600 ****         5.7500  17.7500  40.2500 Du        
  10601 ****         5.7500  17.7500  40.5000 Du        
  10602 ****         5.7500  17.7500  40.7500 Du        
  10603 ****         5.7500  17.7500  41.0000 Du        
  10604 ****         5.7500  17.7500  41.2500 Du        
  10605 ****         5.7500  18.0000  34.2500 Du        
  10606 ****         5.7500  18.0000  34.5000 Du        
  10607 ****         5.7500  18.0000  34.7500 Du        
  10608 ****         5.7500  18.0000  35.0000 Du        
  10609 ****         5.7500  18.0000  40.2500 Du        
  10610 ****         5.7500  18.0000  40.5000 Du        
  10611 ****         5.7500  18.0000  40.7500 Du        
  10612 ****         5.7500  18.0000  41.0000 Du        
  10613 ****         5.7500  18.0000  41.2500 Du        
  10614 ****         5.7500  18.2500  34.0000 Du        
  10615 ****         5.7500  18.2500  34.2500 Du        
  10616 ****         5.7500  18.2500  34.5000 Du        
  10617 ****         5.7500  18.2500  34.7500 Du        
  10618 ****         5.7500  18.2500  35.0000 Du        
  10619 ****         5.7500  18.2500  35.2500 Du        
  10620 ****         5.7500  18.2500  40.2500 Du        
  10621 ****         5.7500  18.2500  40.5000 Du        
  10622 ****         5.7500  18.2500  40.7500 Du        
  10623 ****         5.7500  18.2500  41.0000 Du        
  10624 ****         5.7500  18.5000  34.0000 Du        
  10625 ****         5.7500  18.5000  34.2500 Du        
  10626 ****         5.7500  18.5000  34.5000 Du        
  10627 ****         5.7500  18.5000  34.7500 Du        
  10628 ****         5.7500  18.5000  35.0000 Du        
  10629 ****         5.7500  18.5000  35.2500 Du        
  10630 ****         5.7500  18.5000  40.2500 Du        
  10631 ****         5.7500  18.5000  40.5000 Du        
  10632 ****         5.7500  18.5000  40.7500 Du        
  10633 ****         5.7500  18.5000  41.0000 Du        
  10634 ****         5.7500  18.7500  33.7500 Du        
  10635 ****         5.7500  18.7500  34.0000 Du        
  10636 ****         5.7500  18.7500  34.2500 Du        
  10637 ****         5.7500  18.7500  34.5000 Du        
  10638 ****         5.7500  18.7500  34.7500 Du        
  10639 ****         5.7500  18.7500  35.0000 Du        
  10640 ****         5.7500  18.7500  35.2500 Du        
  10641 ****         5.7500  18.7500  40.2500 Du        
  10642 ****         5.7500  18.7500  40.5000 Du        
  10643 ****         5.7500  18.7500  40.7500 Du        
  10644 ****         5.7500  18.7500  41.0000 Du        
  10645 ****         5.7500  19.0000  33.7500 Du        
  10646 ****         5.7500  19.0000  34.0000 Du        
  10647 ****         5.7500  19.0000  34.2500 Du        
  10648 ****         5.7500  19.0000  34.5000 Du        
  10649 ****         5.7500  19.0000  34.7500 Du        
  10650 ****         5.7500  19.0000  35.0000 Du        
  10651 ****         5.7500  19.0000  35.2500 Du        
  10652 ****         5.7500  19.0000  40.0000 Du        
  10653 ****         5.7500  19.0000  40.2500 Du        
  10654 ****         5.7500  19.0000  40.5000 Du        
  10655 ****         5.7500  19.0000  40.7500 Du        
  10656 ****         5.7500  19.0000  41.0000 Du        
  10657 ****         5.7500  19.2500  33.7500 Du        
  10658 ****         5.7500  19.2500  34.0000 Du        
  10659 ****         5.7500  19.2500  34.2500 Du        
  10660 ****         5.7500  19.2500  34.5000 Du        
  10661 ****         5.7500  19.2500  34.7500 Du        
  10662 ****         5.7500  19.2500  35.0000 Du        
  10663 ****         5.7500  19.2500  35.2500 Du        
  10664 ****         5.7500  19.2500  40.0000 Du        
  10665 ****         5.7500  19.2500  40.2500 Du        
  10666 ****         5.7500  19.2500  40.5000 Du        
  10667 ****         5.7500  19.2500  40.7500 Du        
  10668 ****         5.7500  19.2500  41.0000 Du        
  10669 ****         5.7500  19.5000  33.5000 Du        
  10670 ****         5.7500  19.5000  33.7500 Du        
  10671 ****         5.7500  19.5000  34.0000 Du        
  10672 ****         5.7500  19.5000  34.2500 Du        
  10673 ****         5.7500  19.5000  34.5000 Du        
  10674 ****         5.7500  19.5000  34.7500 Du        
  10675 ****         5.7500  19.5000  35.0000 Du        
  10676 ****         5.7500  19.5000  35.2500 Du        
  10677 ****         5.7500  19.5000  40.0000 Du        
  10678 ****         5.7500  19.5000  40.2500 Du        
  10679 ****         5.7500  19.5000  40.5000 Du        
  10680 ****         5.7500  19.5000  40.7500 Du        
  10681 ****         5.7500  19.5000  41.0000 Du        
  10682 ****         5.7500  19.7500  33.0000 Du        
  10683 ****         5.7500  19.7500  33.2500 Du        
  10684 ****         5.7500  19.7500  33.5000 Du        
  10685 ****         5.7500  19.7500  33.7500 Du        
  10686 ****         5.7500  19.7500  34.0000 Du        
  10687 ****         5.7500  19.7500  34.2500 Du        
  10688 ****         5.7500  19.7500  34.5000 Du        
  10689 ****         5.7500  19.7500  34.7500 Du        
  10690 ****         5.7500  19.7500  35.0000 Du        
  10691 ****         5.7500  19.7500  35.2500 Du        
  10692 ****         5.7500  19.7500  40.0000 Du        
  10693 ****         5.7500  19.7500  40.2500 Du        
  10694 ****         5.7500  19.7500  40.5000 Du        
  10695 ****         5.7500  19.7500  40.7500 Du        
  10696 ****         5.7500  20.0000  32.7500 Du        
  10697 ****         5.7500  20.0000  33.0000 Du        
  10698 ****         5.7500  20.0000  33.2500 Du        
  10699 ****         5.7500  20.0000  33.5000 Du        
  10700 ****         5.7500  20.0000  33.7500 Du        
  10701 ****         5.7500  20.0000  34.0000 Du        
  10702 ****         5.7500  20.0000  34.2500 Du        
  10703 ****         5.7500  20.0000  34.5000 Du        
  10704 ****         5.7500  20.0000  34.7500 Du        
  10705 ****         5.7500  20.0000  35.0000 Du        
  10706 ****         5.7500  20.0000  35.2500 Du        
  10707 ****         5.7500  20.0000  39.7500 Du        
  10708 ****         5.7500  20.0000  40.0000 Du        
  10709 ****         5.7500  20.0000  40.2500 Du        
  10710 ****         5.7500  20.0000  40.5000 Du        
  10711 ****         5.7500  20.2500  32.7500 Du        
  10712 ****         5.7500  20.2500  33.0000 Du        
  10713 ****         5.7500  20.2500  33.2500 Du        
  10714 ****         5.7500  20.2500  33.5000 Du        
  10715 ****         5.7500  20.2500  33.7500 Du        
  10716 ****         5.7500  20.2500  34.0000 Du        
  10717 ****         5.7500  20.2500  34.2500 Du        
  10718 ****         5.7500  20.2500  34.5000 Du        
  10719 ****         5.7500  20.2500  34.7500 Du        
  10720 ****         5.7500  20.2500  35.0000 Du        
  10721 ****         5.7500  20.2500  35.2500 Du        
  10722 ****         5.7500  20.2500  39.7500 Du        
  10723 ****         5.7500  20.2500  40.0000 Du        
  10724 ****         5.7500  20.2500  40.2500 Du        
  10725 ****         5.7500  20.5000  33.0000 Du        
  10726 ****         5.7500  20.5000  33.2500 Du        
  10727 ****         5.7500  20.5000  33.5000 Du        
  10728 ****         5.7500  20.5000  33.7500 Du        
  10729 ****         5.7500  20.5000  34.0000 Du        
  10730 ****         5.7500  20.5000  34.2500 Du        
  10731 ****         5.7500  20.5000  34.5000 Du        
  10732 ****         5.7500  20.5000  34.7500 Du        
  10733 ****         5.7500  20.5000  35.0000 Du        
  10734 ****         5.7500  20.5000  39.7500 Du        
  10735 ****         5.7500  20.5000  40.0000 Du        
  10736 ****         5.7500  20.7500  33.2500 Du        
  10737 ****         5.7500  20.7500  33.5000 Du        
  10738 ****         5.7500  20.7500  33.7500 Du        
  10739 ****         5.7500  20.7500  34.0000 Du        
  10740 ****         5.7500  20.7500  34.2500 Du        
  10741 ****         5.7500  20.7500  34.5000 Du        
  10742 ****         5.7500  20.7500  34.7500 Du        
  10743 ****         5.7500  20.7500  35.0000 Du        
  10744 ****         5.7500  20.7500  39.5000 Du        
  10745 ****         5.7500  20.7500  39.7500 Du        
  10746 ****         5.7500  20.7500  40.0000 Du        
  10747 ****         5.7500  21.0000  33.5000 Du        
  10748 ****         5.7500  21.0000  33.7500 Du        
  10749 ****         5.7500  21.0000  34.0000 Du        
  10750 ****         5.7500  21.0000  34.2500 Du        
  10751 ****         5.7500  21.0000  34.5000 Du        
  10752 ****         5.7500  21.0000  34.7500 Du        
  10753 ****         5.7500  21.0000  39.7500 Du        
  10754 ****         5.7500  21.2500  33.7500 Du        
  10755 ****         5.7500  21.2500  34.0000 Du        
  10756 ****         5.7500  21.2500  34.2500 Du        
  10757 ****         5.7500  21.5000  34.0000 Du        
  10758 ****         5.7500  21.5000  34.2500 Du        
  10759 ****         5.7500  21.7500  34.2500 Du        
  10760 ****         5.7500  24.0000  35.2500 Du        
  10761 ****         5.7500  24.2500  35.2500 Du        
  10762 ****         5.7500  24.5000  35.0000 Du        
  10763 ****         5.7500  24.5000  35.2500 Du        
  10764 ****         5.7500  24.5000  35.5000 Du        
  10765 ****         5.7500  24.5000  35.7500 Du        
  10766 ****         5.7500  24.7500  35.0000 Du        
  10767 ****         5.7500  24.7500  35.2500 Du        
  10768 ****         5.7500  24.7500  35.5000 Du        
  10769 ****         5.7500  24.7500  35.7500 Du        
  10770 ****         6.0000   9.7500  30.5000 Du        
  10771 ****         6.0000   9.7500  30.7500 Du        
  10772 ****         6.0000  10.0000  30.5000 Du        
  10773 ****         6.0000  10.0000  30.7500 Du        
  10774 ****         6.0000  10.0000  31.0000 Du        
  10775 ****         6.0000  10.0000  31.2500 Du        
  10776 ****         6.0000  10.2500  30.5000 Du        
  10777 ****         6.0000  10.2500  30.7500 Du        
  10778 ****         6.0000  10.2500  31.0000 Du        
  10779 ****         6.0000  10.2500  31.2500 Du        
  10780 ****         6.0000  10.2500  31.5000 Du        
  10781 ****         6.0000  10.5000  30.7500 Du        
  10782 ****         6.0000  10.5000  31.0000 Du        
  10783 ****         6.0000  10.5000  31.2500 Du        
  10784 ****         6.0000  10.5000  31.5000 Du        
  10785 ****         6.0000  10.5000  31.7500 Du        
  10786 ****         6.0000  10.5000  32.0000 Du        
  10787 ****         6.0000  10.5000  32.2500 Du        
  10788 ****         6.0000  10.7500  31.0000 Du        
  10789 ****         6.0000  10.7500  31.2500 Du        
  10790 ****         6.0000  10.7500  31.5000 Du        
  10791 ****         6.0000  10.7500  31.7500 Du        
  10792 ****         6.0000  10.7500  32.0000 Du        
  10793 ****         6.0000  10.7500  32.2500 Du        
  10794 ****         6.0000  10.7500  32.5000 Du        
  10795 ****         6.0000  10.7500  32.7500 Du        
  10796 ****         6.0000  11.0000  31.2500 Du        
  10797 ****         6.0000  11.0000  31.5000 Du        
  10798 ****         6.0000  11.0000  31.7500 Du        
  10799 ****         6.0000  11.0000  32.0000 Du        
  10800 ****         6.0000  11.0000  32.2500 Du        
  10801 ****         6.0000  11.0000  32.5000 Du        
  10802 ****         6.0000  11.0000  32.7500 Du        
  10803 ****         6.0000  11.0000  33.0000 Du        
  10804 ****         6.0000  11.2500  31.5000 Du        
  10805 ****         6.0000  11.2500  31.7500 Du        
  10806 ****         6.0000  11.2500  32.0000 Du        
  10807 ****         6.0000  11.2500  32.2500 Du        
  10808 ****         6.0000  11.2500  32.5000 Du        
  10809 ****         6.0000  11.2500  32.7500 Du        
  10810 ****         6.0000  11.2500  33.0000 Du        
  10811 ****         6.0000  11.2500  33.2500 Du        
  10812 ****         6.0000  11.5000  31.7500 Du        
  10813 ****         6.0000  11.5000  32.0000 Du        
  10814 ****         6.0000  11.5000  32.2500 Du        
  10815 ****         6.0000  11.5000  32.5000 Du        
  10816 ****         6.0000  11.5000  32.7500 Du        
  10817 ****         6.0000  11.5000  33.0000 Du        
  10818 ****         6.0000  11.5000  33.2500 Du        
  10819 ****         6.0000  11.7500  32.2500 Du        
  10820 ****         6.0000  11.7500  32.5000 Du        
  10821 ****         6.0000  11.7500  32.7500 Du        
  10822 ****         6.0000  11.7500  33.0000 Du        
  10823 ****         6.0000  11.7500  33.2500 Du        
  10824 ****         6.0000  11.7500  33.5000 Du        
  10825 ****         6.0000  12.0000  32.7500 Du        
  10826 ****         6.0000  12.0000  33.0000 Du        
  10827 ****         6.0000  12.0000  33.2500 Du        
  10828 ****         6.0000  12.0000  33.5000 Du        
  10829 ****         6.0000  12.0000  33.7500 Du        
  10830 ****         6.0000  12.2500  33.0000 Du        
  10831 ****         6.0000  12.2500  33.2500 Du        
  10832 ****         6.0000  12.2500  33.5000 Du        
  10833 ****         6.0000  12.2500  33.7500 Du        
  10834 ****         6.0000  12.2500  34.0000 Du        
  10835 ****         6.0000  12.5000  33.2500 Du        
  10836 ****         6.0000  12.5000  33.5000 Du        
  10837 ****         6.0000  12.5000  33.7500 Du        
  10838 ****         6.0000  12.5000  34.0000 Du        
  10839 ****         6.0000  12.5000  34.2500 Du        
  10840 ****         6.0000  12.7500  33.5000 Du        
  10841 ****         6.0000  12.7500  33.7500 Du        
  10842 ****         6.0000  12.7500  34.0000 Du        
  10843 ****         6.0000  12.7500  34.2500 Du        
  10844 ****         6.0000  12.7500  34.5000 Du        
  10845 ****         6.0000  12.7500  34.7500 Du        
  10846 ****         6.0000  13.0000  33.7500 Du        
  10847 ****         6.0000  13.0000  34.0000 Du        
  10848 ****         6.0000  13.0000  34.2500 Du        
  10849 ****         6.0000  13.0000  34.5000 Du        
  10850 ****         6.0000  13.0000  34.7500 Du        
  10851 ****         6.0000  13.0000  35.0000 Du        
  10852 ****         6.0000  13.0000  35.2500 Du        
  10853 ****         6.0000  13.0000  41.5000 Du        
  10854 ****         6.0000  13.0000  41.7500 Du        
  10855 ****         6.0000  13.0000  42.0000 Du        
  10856 ****         6.0000  13.2500  34.0000 Du        
  10857 ****         6.0000  13.2500  34.2500 Du        
  10858 ****         6.0000  13.2500  34.5000 Du        
  10859 ****         6.0000  13.2500  34.7500 Du        
  10860 ****         6.0000  13.2500  35.0000 Du        
  10861 ****         6.0000  13.2500  35.2500 Du        
  10862 ****         6.0000  13.2500  35.5000 Du        
  10863 ****         6.0000  13.2500  41.0000 Du        
  10864 ****         6.0000  13.2500  41.2500 Du        
  10865 ****         6.0000  13.2500  41.5000 Du        
  10866 ****         6.0000  13.2500  41.7500 Du        
  10867 ****         6.0000  13.2500  42.0000 Du        
  10868 ****         6.0000  13.2500  42.2500 Du        
  10869 ****         6.0000  13.2500  42.5000 Du        
  10870 ****         6.0000  13.2500  42.7500 Du        
  10871 ****         6.0000  13.5000  34.2500 Du        
  10872 ****         6.0000  13.5000  34.5000 Du        
  10873 ****         6.0000  13.5000  34.7500 Du        
  10874 ****         6.0000  13.5000  35.0000 Du        
  10875 ****         6.0000  13.5000  35.2500 Du        
  10876 ****         6.0000  13.5000  35.5000 Du        
  10877 ****         6.0000  13.5000  35.7500 Du        
  10878 ****         6.0000  13.5000  36.0000 Du        
  10879 ****         6.0000  13.5000  40.5000 Du        
  10880 ****         6.0000  13.5000  40.7500 Du        
  10881 ****         6.0000  13.5000  41.0000 Du        
  10882 ****         6.0000  13.5000  41.2500 Du        
  10883 ****         6.0000  13.5000  41.5000 Du        
  10884 ****         6.0000  13.5000  41.7500 Du        
  10885 ****         6.0000  13.5000  42.0000 Du        
  10886 ****         6.0000  13.5000  42.2500 Du        
  10887 ****         6.0000  13.5000  42.5000 Du        
  10888 ****         6.0000  13.5000  42.7500 Du        
  10889 ****         6.0000  13.5000  43.0000 Du        
  10890 ****         6.0000  13.5000  43.2500 Du        
  10891 ****         6.0000  13.7500  34.5000 Du        
  10892 ****         6.0000  13.7500  34.7500 Du        
  10893 ****         6.0000  13.7500  35.0000 Du        
  10894 ****         6.0000  13.7500  35.2500 Du        
  10895 ****         6.0000  13.7500  35.5000 Du        
  10896 ****         6.0000  13.7500  35.7500 Du        
  10897 ****         6.0000  13.7500  36.0000 Du        
  10898 ****         6.0000  13.7500  40.0000 Du        
  10899 ****         6.0000  13.7500  40.2500 Du        
  10900 ****         6.0000  13.7500  40.5000 Du        
  10901 ****         6.0000  13.7500  40.7500 Du        
  10902 ****         6.0000  13.7500  41.0000 Du        
  10903 ****         6.0000  13.7500  41.2500 Du        
  10904 ****         6.0000  13.7500  41.5000 Du        
  10905 ****         6.0000  13.7500  41.7500 Du        
  10906 ****         6.0000  13.7500  42.0000 Du        
  10907 ****         6.0000  13.7500  42.2500 Du        
  10908 ****         6.0000  13.7500  42.5000 Du        
  10909 ****         6.0000  13.7500  42.7500 Du        
  10910 ****         6.0000  13.7500  43.0000 Du        
  10911 ****         6.0000  13.7500  43.2500 Du        
  10912 ****         6.0000  14.0000  34.7500 Du        
  10913 ****         6.0000  14.0000  35.0000 Du        
  10914 ****         6.0000  14.0000  35.2500 Du        
  10915 ****         6.0000  14.0000  35.5000 Du        
  10916 ****         6.0000  14.0000  35.7500 Du        
  10917 ****         6.0000  14.0000  36.0000 Du        
  10918 ****         6.0000  14.0000  39.2500 Du        
  10919 ****         6.0000  14.0000  39.5000 Du        
  10920 ****         6.0000  14.0000  39.7500 Du        
  10921 ****         6.0000  14.0000  40.0000 Du        
  10922 ****         6.0000  14.0000  40.2500 Du        
  10923 ****         6.0000  14.0000  40.5000 Du        
  10924 ****         6.0000  14.0000  40.7500 Du        
  10925 ****         6.0000  14.0000  41.0000 Du        
  10926 ****         6.0000  14.0000  41.2500 Du        
  10927 ****         6.0000  14.0000  41.5000 Du        
  10928 ****         6.0000  14.0000  41.7500 Du        
  10929 ****         6.0000  14.0000  42.0000 Du        
  10930 ****         6.0000  14.0000  42.2500 Du        
  10931 ****         6.0000  14.0000  42.5000 Du        
  10932 ****         6.0000  14.0000  42.7500 Du        
  10933 ****         6.0000  14.0000  43.0000 Du        
  10934 ****         6.0000  14.0000  43.2500 Du        
  10935 ****         6.0000  14.2500  35.0000 Du        
  10936 ****         6.0000  14.2500  35.2500 Du        
  10937 ****         6.0000  14.2500  35.5000 Du        
  10938 ****         6.0000  14.2500  35.7500 Du        
  10939 ****         6.0000  14.2500  36.0000 Du        
  10940 ****         6.0000  14.2500  39.0000 Du        
  10941 ****         6.0000  14.2500  39.2500 Du        
  10942 ****         6.0000  14.2500  39.5000 Du        
  10943 ****         6.0000  14.2500  39.7500 Du        
  10944 ****         6.0000  14.2500  40.0000 Du        
  10945 ****         6.0000  14.2500  40.2500 Du        
  10946 ****         6.0000  14.2500  40.5000 Du        
  10947 ****         6.0000  14.2500  40.7500 Du        
  10948 ****         6.0000  14.2500  41.0000 Du        
  10949 ****         6.0000  14.2500  41.2500 Du        
  10950 ****         6.0000  14.2500  41.5000 Du        
  10951 ****         6.0000  14.2500  41.7500 Du        
  10952 ****         6.0000  14.2500  42.0000 Du        
  10953 ****         6.0000  14.2500  42.2500 Du        
  10954 ****         6.0000  14.2500  42.5000 Du        
  10955 ****         6.0000  14.2500  42.7500 Du        
  10956 ****         6.0000  14.2500  43.0000 Du        
  10957 ****         6.0000  14.2500  43.2500 Du        
  10958 ****         6.0000  14.2500  43.5000 Du        
  10959 ****         6.0000  14.5000  39.0000 Du        
  10960 ****         6.0000  14.5000  39.2500 Du        
  10961 ****         6.0000  14.5000  39.5000 Du        
  10962 ****         6.0000  14.5000  39.7500 Du        
  10963 ****         6.0000  14.5000  40.0000 Du        
  10964 ****         6.0000  14.5000  40.2500 Du        
  10965 ****         6.0000  14.5000  40.5000 Du        
  10966 ****         6.0000  14.5000  40.7500 Du        
  10967 ****         6.0000  14.5000  41.0000 Du        
  10968 ****         6.0000  14.5000  41.2500 Du        
  10969 ****         6.0000  14.5000  41.5000 Du        
  10970 ****         6.0000  14.5000  41.7500 Du        
  10971 ****         6.0000  14.5000  42.0000 Du        
  10972 ****         6.0000  14.5000  42.2500 Du        
  10973 ****         6.0000  14.5000  42.5000 Du        
  10974 ****         6.0000  14.5000  42.7500 Du        
  10975 ****         6.0000  14.5000  43.0000 Du        
  10976 ****         6.0000  14.5000  43.2500 Du        
  10977 ****         6.0000  14.5000  43.5000 Du        
  10978 ****         6.0000  14.7500  39.2500 Du        
  10979 ****         6.0000  14.7500  39.5000 Du        
  10980 ****         6.0000  14.7500  39.7500 Du        
  10981 ****         6.0000  14.7500  40.0000 Du        
  10982 ****         6.0000  14.7500  40.2500 Du        
  10983 ****         6.0000  14.7500  40.5000 Du        
  10984 ****         6.0000  14.7500  40.7500 Du        
  10985 ****         6.0000  14.7500  41.0000 Du        
  10986 ****         6.0000  14.7500  41.2500 Du        
  10987 ****         6.0000  14.7500  41.5000 Du        
  10988 ****         6.0000  14.7500  41.7500 Du        
  10989 ****         6.0000  14.7500  42.0000 Du        
  10990 ****         6.0000  14.7500  42.2500 Du        
  10991 ****         6.0000  14.7500  42.5000 Du        
  10992 ****         6.0000  14.7500  42.7500 Du        
  10993 ****         6.0000  14.7500  43.0000 Du        
  10994 ****         6.0000  14.7500  43.2500 Du        
  10995 ****         6.0000  14.7500  43.5000 Du        
  10996 ****         6.0000  15.0000  39.5000 Du        
  10997 ****         6.0000  15.0000  39.7500 Du        
  10998 ****         6.0000  15.0000  40.0000 Du        
  10999 ****         6.0000  15.0000  40.2500 Du        
  11000 ****         6.0000  15.0000  40.5000 Du        
  11001 ****         6.0000  15.0000  40.7500 Du        
  11002 ****         6.0000  15.0000  41.0000 Du        
  11003 ****         6.0000  15.0000  41.2500 Du        
  11004 ****         6.0000  15.0000  41.5000 Du        
  11005 ****         6.0000  15.0000  41.7500 Du        
  11006 ****         6.0000  15.0000  42.0000 Du        
  11007 ****         6.0000  15.0000  42.2500 Du        
  11008 ****         6.0000  15.0000  42.5000 Du        
  11009 ****         6.0000  15.0000  42.7500 Du        
  11010 ****         6.0000  15.0000  43.0000 Du        
  11011 ****         6.0000  15.0000  43.2500 Du        
  11012 ****         6.0000  15.0000  43.5000 Du        
  11013 ****         6.0000  15.2500  39.7500 Du        
  11014 ****         6.0000  15.2500  40.0000 Du        
  11015 ****         6.0000  15.2500  40.2500 Du        
  11016 ****         6.0000  15.2500  40.5000 Du        
  11017 ****         6.0000  15.2500  40.7500 Du        
  11018 ****         6.0000  15.2500  41.0000 Du        
  11019 ****         6.0000  15.2500  41.2500 Du        
  11020 ****         6.0000  15.2500  41.5000 Du        
  11021 ****         6.0000  15.2500  41.7500 Du        
  11022 ****         6.0000  15.2500  42.0000 Du        
  11023 ****         6.0000  15.2500  42.2500 Du        
  11024 ****         6.0000  15.2500  42.5000 Du        
  11025 ****         6.0000  15.2500  42.7500 Du        
  11026 ****         6.0000  15.2500  43.0000 Du        
  11027 ****         6.0000  15.2500  43.2500 Du        
  11028 ****         6.0000  15.2500  43.5000 Du        
  11029 ****         6.0000  15.5000  40.0000 Du        
  11030 ****         6.0000  15.5000  40.2500 Du        
  11031 ****         6.0000  15.5000  40.5000 Du        
  11032 ****         6.0000  15.5000  40.7500 Du        
  11033 ****         6.0000  15.5000  41.0000 Du        
  11034 ****         6.0000  15.5000  41.2500 Du        
  11035 ****         6.0000  15.5000  41.5000 Du        
  11036 ****         6.0000  15.5000  41.7500 Du        
  11037 ****         6.0000  15.5000  42.0000 Du        
  11038 ****         6.0000  15.5000  42.2500 Du        
  11039 ****         6.0000  15.5000  42.5000 Du        
  11040 ****         6.0000  15.5000  42.7500 Du        
  11041 ****         6.0000  15.5000  43.0000 Du        
  11042 ****         6.0000  15.5000  43.2500 Du        
  11043 ****         6.0000  15.7500  40.0000 Du        
  11044 ****         6.0000  15.7500  40.2500 Du        
  11045 ****         6.0000  15.7500  40.5000 Du        
  11046 ****         6.0000  15.7500  40.7500 Du        
  11047 ****         6.0000  15.7500  41.0000 Du        
  11048 ****         6.0000  15.7500  41.2500 Du        
  11049 ****         6.0000  15.7500  41.5000 Du        
  11050 ****         6.0000  15.7500  41.7500 Du        
  11051 ****         6.0000  15.7500  42.0000 Du        
  11052 ****         6.0000  15.7500  42.2500 Du        
  11053 ****         6.0000  15.7500  42.5000 Du        
  11054 ****         6.0000  15.7500  42.7500 Du        
  11055 ****         6.0000  15.7500  43.0000 Du        
  11056 ****         6.0000  15.7500  43.2500 Du        
  11057 ****         6.0000  15.7500  43.5000 Du        
  11058 ****         6.0000  16.0000  40.2500 Du        
  11059 ****         6.0000  16.0000  40.5000 Du        
  11060 ****         6.0000  16.0000  40.7500 Du        
  11061 ****         6.0000  16.0000  41.0000 Du        
  11062 ****         6.0000  16.0000  41.2500 Du        
  11063 ****         6.0000  16.0000  41.5000 Du        
  11064 ****         6.0000  16.0000  41.7500 Du        
  11065 ****         6.0000  16.0000  42.0000 Du        
  11066 ****         6.0000  16.0000  42.2500 Du        
  11067 ****         6.0000  16.0000  42.5000 Du        
  11068 ****         6.0000  16.0000  42.7500 Du        
  11069 ****         6.0000  16.0000  43.0000 Du        
  11070 ****         6.0000  16.0000  43.2500 Du        
  11071 ****         6.0000  16.2500  40.2500 Du        
  11072 ****         6.0000  16.2500  40.5000 Du        
  11073 ****         6.0000  16.2500  40.7500 Du        
  11074 ****         6.0000  16.2500  41.0000 Du        
  11075 ****         6.0000  16.2500  41.2500 Du        
  11076 ****         6.0000  16.2500  41.5000 Du        
  11077 ****         6.0000  16.2500  41.7500 Du        
  11078 ****         6.0000  16.2500  42.0000 Du        
  11079 ****         6.0000  16.2500  42.2500 Du        
  11080 ****         6.0000  16.2500  42.5000 Du        
  11081 ****         6.0000  16.2500  42.7500 Du        
  11082 ****         6.0000  16.2500  43.0000 Du        
  11083 ****         6.0000  16.2500  43.2500 Du        
  11084 ****         6.0000  16.5000  40.2500 Du        
  11085 ****         6.0000  16.5000  40.5000 Du        
  11086 ****         6.0000  16.5000  40.7500 Du        
  11087 ****         6.0000  16.5000  41.0000 Du        
  11088 ****         6.0000  16.5000  41.2500 Du        
  11089 ****         6.0000  16.5000  41.5000 Du        
  11090 ****         6.0000  16.5000  41.7500 Du        
  11091 ****         6.0000  16.5000  42.0000 Du        
  11092 ****         6.0000  16.5000  42.2500 Du        
  11093 ****         6.0000  16.5000  42.5000 Du        
  11094 ****         6.0000  16.7500  40.2500 Du        
  11095 ****         6.0000  16.7500  40.5000 Du        
  11096 ****         6.0000  16.7500  40.7500 Du        
  11097 ****         6.0000  16.7500  41.0000 Du        
  11098 ****         6.0000  16.7500  41.2500 Du        
  11099 ****         6.0000  16.7500  41.5000 Du        
  11100 ****         6.0000  16.7500  41.7500 Du        
  11101 ****         6.0000  16.7500  42.0000 Du        
  11102 ****         6.0000  16.7500  42.2500 Du        
  11103 ****         6.0000  17.0000  40.2500 Du        
  11104 ****         6.0000  17.0000  40.5000 Du        
  11105 ****         6.0000  17.0000  40.7500 Du        
  11106 ****         6.0000  17.0000  41.0000 Du        
  11107 ****         6.0000  17.0000  41.2500 Du        
  11108 ****         6.0000  17.0000  41.5000 Du        
  11109 ****         6.0000  17.0000  41.7500 Du        
  11110 ****         6.0000  17.0000  42.0000 Du        
  11111 ****         6.0000  17.2500  40.2500 Du        
  11112 ****         6.0000  17.2500  40.5000 Du        
  11113 ****         6.0000  17.2500  40.7500 Du        
  11114 ****         6.0000  17.2500  41.0000 Du        
  11115 ****         6.0000  17.2500  41.2500 Du        
  11116 ****         6.0000  17.2500  41.5000 Du        
  11117 ****         6.0000  17.2500  41.7500 Du        
  11118 ****         6.0000  17.5000  35.0000 Du        
  11119 ****         6.0000  17.5000  40.2500 Du        
  11120 ****         6.0000  17.5000  40.5000 Du        
  11121 ****         6.0000  17.5000  40.7500 Du        
  11122 ****         6.0000  17.5000  41.0000 Du        
  11123 ****         6.0000  17.5000  41.2500 Du        
  11124 ****         6.0000  17.5000  41.5000 Du        
  11125 ****         6.0000  17.7500  34.5000 Du        
  11126 ****         6.0000  17.7500  34.7500 Du        
  11127 ****         6.0000  17.7500  35.0000 Du        
  11128 ****         6.0000  17.7500  35.2500 Du        
  11129 ****         6.0000  17.7500  40.0000 Du        
  11130 ****         6.0000  17.7500  40.2500 Du        
  11131 ****         6.0000  17.7500  40.5000 Du        
  11132 ****         6.0000  17.7500  40.7500 Du        
  11133 ****         6.0000  17.7500  41.0000 Du        
  11134 ****         6.0000  17.7500  41.2500 Du        
  11135 ****         6.0000  17.7500  41.5000 Du        
  11136 ****         6.0000  18.0000  34.2500 Du        
  11137 ****         6.0000  18.0000  34.5000 Du        
  11138 ****         6.0000  18.0000  34.7500 Du        
  11139 ****         6.0000  18.0000  35.0000 Du        
  11140 ****         6.0000  18.0000  35.2500 Du        
  11141 ****         6.0000  18.0000  40.0000 Du        
  11142 ****         6.0000  18.0000  40.2500 Du        
  11143 ****         6.0000  18.0000  40.5000 Du        
  11144 ****         6.0000  18.0000  40.7500 Du        
  11145 ****         6.0000  18.0000  41.0000 Du        
  11146 ****         6.0000  18.0000  41.2500 Du        
  11147 ****         6.0000  18.2500  34.0000 Du        
  11148 ****         6.0000  18.2500  34.2500 Du        
  11149 ****         6.0000  18.2500  34.5000 Du        
  11150 ****         6.0000  18.2500  34.7500 Du        
  11151 ****         6.0000  18.2500  35.0000 Du        
  11152 ****         6.0000  18.2500  35.2500 Du        
  11153 ****         6.0000  18.2500  35.5000 Du        
  11154 ****         6.0000  18.2500  40.0000 Du        
  11155 ****         6.0000  18.2500  40.2500 Du        
  11156 ****         6.0000  18.2500  40.5000 Du        
  11157 ****         6.0000  18.2500  40.7500 Du        
  11158 ****         6.0000  18.2500  41.0000 Du        
  11159 ****         6.0000  18.2500  41.2500 Du        
  11160 ****         6.0000  18.5000  33.7500 Du        
  11161 ****         6.0000  18.5000  34.0000 Du        
  11162 ****         6.0000  18.5000  34.2500 Du        
  11163 ****         6.0000  18.5000  34.5000 Du        
  11164 ****         6.0000  18.5000  34.7500 Du        
  11165 ****         6.0000  18.5000  35.0000 Du        
  11166 ****         6.0000  18.5000  35.2500 Du        
  11167 ****         6.0000  18.5000  35.5000 Du        
  11168 ****         6.0000  18.5000  40.0000 Du        
  11169 ****         6.0000  18.5000  40.2500 Du        
  11170 ****         6.0000  18.5000  40.5000 Du        
  11171 ****         6.0000  18.5000  40.7500 Du        
  11172 ****         6.0000  18.5000  41.0000 Du        
  11173 ****         6.0000  18.5000  41.2500 Du        
  11174 ****         6.0000  18.7500  33.5000 Du        
  11175 ****         6.0000  18.7500  33.7500 Du        
  11176 ****         6.0000  18.7500  34.0000 Du        
  11177 ****         6.0000  18.7500  34.2500 Du        
  11178 ****         6.0000  18.7500  34.5000 Du        
  11179 ****         6.0000  18.7500  34.7500 Du        
  11180 ****         6.0000  18.7500  35.0000 Du        
  11181 ****         6.0000  18.7500  35.2500 Du        
  11182 ****         6.0000  18.7500  35.5000 Du        
  11183 ****         6.0000  18.7500  40.0000 Du        
  11184 ****         6.0000  18.7500  40.2500 Du        
  11185 ****         6.0000  18.7500  40.5000 Du        
  11186 ****         6.0000  18.7500  40.7500 Du        
  11187 ****         6.0000  18.7500  41.0000 Du        
  11188 ****         6.0000  18.7500  41.2500 Du        
  11189 ****         6.0000  19.0000  33.2500 Du        
  11190 ****         6.0000  19.0000  33.5000 Du        
  11191 ****         6.0000  19.0000  33.7500 Du        
  11192 ****         6.0000  19.0000  34.0000 Du        
  11193 ****         6.0000  19.0000  34.2500 Du        
  11194 ****         6.0000  19.0000  34.5000 Du        
  11195 ****         6.0000  19.0000  34.7500 Du        
  11196 ****         6.0000  19.0000  35.0000 Du        
  11197 ****         6.0000  19.0000  35.2500 Du        
  11198 ****         6.0000  19.0000  35.5000 Du        
  11199 ****         6.0000  19.0000  40.0000 Du        
  11200 ****         6.0000  19.0000  40.2500 Du        
  11201 ****         6.0000  19.0000  40.5000 Du        
  11202 ****         6.0000  19.0000  40.7500 Du        
  11203 ****         6.0000  19.0000  41.0000 Du        
  11204 ****         6.0000  19.2500  32.7500 Du        
  11205 ****         6.0000  19.2500  33.0000 Du        
  11206 ****         6.0000  19.2500  33.2500 Du        
  11207 ****         6.0000  19.2500  33.5000 Du        
  11208 ****         6.0000  19.2500  33.7500 Du        
  11209 ****         6.0000  19.2500  34.0000 Du        
  11210 ****         6.0000  19.2500  34.2500 Du        
  11211 ****         6.0000  19.2500  34.5000 Du        
  11212 ****         6.0000  19.2500  34.7500 Du        
  11213 ****         6.0000  19.2500  35.0000 Du        
  11214 ****         6.0000  19.2500  35.2500 Du        
  11215 ****         6.0000  19.2500  40.0000 Du        
  11216 ****         6.0000  19.2500  40.2500 Du        
  11217 ****         6.0000  19.2500  40.5000 Du        
  11218 ****         6.0000  19.2500  40.7500 Du        
  11219 ****         6.0000  19.2500  41.0000 Du        
  11220 ****         6.0000  19.5000  32.0000 Du        
  11221 ****         6.0000  19.5000  32.2500 Du        
  11222 ****         6.0000  19.5000  32.5000 Du        
  11223 ****         6.0000  19.5000  32.7500 Du        
  11224 ****         6.0000  19.5000  33.0000 Du        
  11225 ****         6.0000  19.5000  33.2500 Du        
  11226 ****         6.0000  19.5000  33.5000 Du        
  11227 ****         6.0000  19.5000  33.7500 Du        
  11228 ****         6.0000  19.5000  34.0000 Du        
  11229 ****         6.0000  19.5000  34.2500 Du        
  11230 ****         6.0000  19.5000  34.5000 Du        
  11231 ****         6.0000  19.5000  34.7500 Du        
  11232 ****         6.0000  19.5000  35.0000 Du        
  11233 ****         6.0000  19.5000  35.2500 Du        
  11234 ****         6.0000  19.5000  40.0000 Du        
  11235 ****         6.0000  19.5000  40.2500 Du        
  11236 ****         6.0000  19.5000  40.5000 Du        
  11237 ****         6.0000  19.5000  40.7500 Du        
  11238 ****         6.0000  19.5000  41.0000 Du        
  11239 ****         6.0000  19.7500  32.0000 Du        
  11240 ****         6.0000  19.7500  32.2500 Du        
  11241 ****         6.0000  19.7500  32.5000 Du        
  11242 ****         6.0000  19.7500  32.7500 Du        
  11243 ****         6.0000  19.7500  33.0000 Du        
  11244 ****         6.0000  19.7500  33.2500 Du        
  11245 ****         6.0000  19.7500  33.5000 Du        
  11246 ****         6.0000  19.7500  33.7500 Du        
  11247 ****         6.0000  19.7500  34.0000 Du        
  11248 ****         6.0000  19.7500  34.2500 Du        
  11249 ****         6.0000  19.7500  34.5000 Du        
  11250 ****         6.0000  19.7500  34.7500 Du        
  11251 ****         6.0000  19.7500  35.0000 Du        
  11252 ****         6.0000  19.7500  35.2500 Du        
  11253 ****         6.0000  19.7500  39.7500 Du        
  11254 ****         6.0000  19.7500  40.0000 Du        
  11255 ****         6.0000  19.7500  40.2500 Du        
  11256 ****         6.0000  19.7500  40.5000 Du        
  11257 ****         6.0000  19.7500  40.7500 Du        
  11258 ****         6.0000  20.0000  32.0000 Du        
  11259 ****         6.0000  20.0000  32.2500 Du        
  11260 ****         6.0000  20.0000  32.5000 Du        
  11261 ****         6.0000  20.0000  32.7500 Du        
  11262 ****         6.0000  20.0000  33.0000 Du        
  11263 ****         6.0000  20.0000  33.2500 Du        
  11264 ****         6.0000  20.0000  33.5000 Du        
  11265 ****         6.0000  20.0000  33.7500 Du        
  11266 ****         6.0000  20.0000  34.0000 Du        
  11267 ****         6.0000  20.0000  34.2500 Du        
  11268 ****         6.0000  20.0000  34.5000 Du        
  11269 ****         6.0000  20.0000  34.7500 Du        
  11270 ****         6.0000  20.0000  35.0000 Du        
  11271 ****         6.0000  20.0000  35.2500 Du        
  11272 ****         6.0000  20.0000  39.7500 Du        
  11273 ****         6.0000  20.0000  40.0000 Du        
  11274 ****         6.0000  20.0000  40.2500 Du        
  11275 ****         6.0000  20.0000  40.5000 Du        
  11276 ****         6.0000  20.2500  32.2500 Du        
  11277 ****         6.0000  20.2500  32.5000 Du        
  11278 ****         6.0000  20.2500  32.7500 Du        
  11279 ****         6.0000  20.2500  33.0000 Du        
  11280 ****         6.0000  20.2500  33.2500 Du        
  11281 ****         6.0000  20.2500  33.5000 Du        
  11282 ****         6.0000  20.2500  33.7500 Du        
  11283 ****         6.0000  20.2500  34.0000 Du        
  11284 ****         6.0000  20.2500  34.2500 Du        
  11285 ****         6.0000  20.2500  34.5000 Du        
  11286 ****         6.0000  20.2500  34.7500 Du        
  11287 ****         6.0000  20.2500  35.0000 Du        
  11288 ****         6.0000  20.2500  35.2500 Du        
  11289 ****         6.0000  20.2500  39.7500 Du        
  11290 ****         6.0000  20.2500  40.0000 Du        
  11291 ****         6.0000  20.2500  40.2500 Du        
  11292 ****         6.0000  20.5000  32.7500 Du        
  11293 ****         6.0000  20.5000  33.0000 Du        
  11294 ****         6.0000  20.5000  33.2500 Du        
  11295 ****         6.0000  20.5000  33.5000 Du        
  11296 ****         6.0000  20.5000  33.7500 Du        
  11297 ****         6.0000  20.5000  34.0000 Du        
  11298 ****         6.0000  20.5000  34.2500 Du        
  11299 ****         6.0000  20.5000  34.5000 Du        
  11300 ****         6.0000  20.5000  34.7500 Du        
  11301 ****         6.0000  20.5000  35.0000 Du        
  11302 ****         6.0000  20.5000  39.7500 Du        
  11303 ****         6.0000  20.5000  40.0000 Du        
  11304 ****         6.0000  20.7500  33.0000 Du        
  11305 ****         6.0000  20.7500  33.2500 Du        
  11306 ****         6.0000  20.7500  33.5000 Du        
  11307 ****         6.0000  20.7500  33.7500 Du        
  11308 ****         6.0000  20.7500  34.0000 Du        
  11309 ****         6.0000  20.7500  34.2500 Du        
  11310 ****         6.0000  20.7500  34.5000 Du        
  11311 ****         6.0000  20.7500  34.7500 Du        
  11312 ****         6.0000  20.7500  35.0000 Du        
  11313 ****         6.0000  20.7500  39.7500 Du        
  11314 ****         6.0000  21.0000  33.2500 Du        
  11315 ****         6.0000  21.0000  33.5000 Du        
  11316 ****         6.0000  21.0000  33.7500 Du        
  11317 ****         6.0000  21.0000  34.0000 Du        
  11318 ****         6.0000  21.0000  34.2500 Du        
  11319 ****         6.0000  21.0000  34.5000 Du        
  11320 ****         6.0000  21.0000  34.7500 Du        
  11321 ****         6.0000  21.2500  33.7500 Du        
  11322 ****         6.0000  21.2500  34.0000 Du        
  11323 ****         6.0000  21.2500  34.2500 Du        
  11324 ****         6.0000  21.5000  34.2500 Du        
  11325 ****         6.0000  24.2500  35.2500 Du        
  11326 ****         6.0000  24.5000  35.2500 Du        
  11327 ****         6.0000  24.5000  35.5000 Du        
  11328 ****         6.0000  24.5000  35.7500 Du        
  11329 ****         6.0000  24.7500  35.0000 Du        
  11330 ****         6.0000  24.7500  35.2500 Du        
  11331 ****         6.0000  24.7500  35.5000 Du        
  11332 ****         6.0000  24.7500  35.7500 Du        
  11333 ****         6.0000  24.7500  36.0000 Du        
  11334 ****         6.2500   9.7500  30.7500 Du        
  11335 ****         6.2500  10.0000  30.5000 Du        
  11336 ****         6.2500  10.0000  30.7500 Du        
  11337 ****         6.2500  10.0000  31.0000 Du        
  11338 ****         6.2500  10.0000  31.2500 Du        
  11339 ****         6.2500  10.2500  30.5000 Du        
  11340 ****         6.2500  10.2500  30.7500 Du        
  11341 ****         6.2500  10.2500  31.0000 Du        
  11342 ****         6.2500  10.2500  31.2500 Du        
  11343 ****         6.2500  10.2500  31.5000 Du        
  11344 ****         6.2500  10.2500  31.7500 Du        
  11345 ****         6.2500  10.5000  30.7500 Du        
  11346 ****         6.2500  10.5000  31.0000 Du        
  11347 ****         6.2500  10.5000  31.2500 Du        
  11348 ****         6.2500  10.5000  31.5000 Du        
  11349 ****         6.2500  10.5000  31.7500 Du        
  11350 ****         6.2500  10.5000  32.0000 Du        
  11351 ****         6.2500  10.5000  32.2500 Du        
  11352 ****         6.2500  10.7500  31.0000 Du        
  11353 ****         6.2500  10.7500  31.2500 Du        
  11354 ****         6.2500  10.7500  31.5000 Du        
  11355 ****         6.2500  10.7500  31.7500 Du        
  11356 ****         6.2500  10.7500  32.0000 Du        
  11357 ****         6.2500  10.7500  32.2500 Du        
  11358 ****         6.2500  10.7500  32.5000 Du        
  11359 ****         6.2500  10.7500  32.7500 Du        
  11360 ****         6.2500  11.0000  31.2500 Du        
  11361 ****         6.2500  11.0000  31.5000 Du        
  11362 ****         6.2500  11.0000  31.7500 Du        
  11363 ****         6.2500  11.0000  32.0000 Du        
  11364 ****         6.2500  11.0000  32.2500 Du        
  11365 ****         6.2500  11.0000  32.5000 Du        
  11366 ****         6.2500  11.0000  32.7500 Du        
  11367 ****         6.2500  11.0000  33.0000 Du        
  11368 ****         6.2500  11.2500  31.5000 Du        
  11369 ****         6.2500  11.2500  31.7500 Du        
  11370 ****         6.2500  11.2500  32.0000 Du        
  11371 ****         6.2500  11.2500  32.2500 Du        
  11372 ****         6.2500  11.2500  32.5000 Du        
  11373 ****         6.2500  11.2500  32.7500 Du        
  11374 ****         6.2500  11.2500  33.0000 Du        
  11375 ****         6.2500  11.2500  33.2500 Du        
  11376 ****         6.2500  11.5000  32.0000 Du        
  11377 ****         6.2500  11.5000  32.2500 Du        
  11378 ****         6.2500  11.5000  32.5000 Du        
  11379 ****         6.2500  11.5000  32.7500 Du        
  11380 ****         6.2500  11.5000  33.0000 Du        
  11381 ****         6.2500  11.5000  33.2500 Du        
  11382 ****         6.2500  11.7500  32.5000 Du        
  11383 ****         6.2500  11.7500  32.7500 Du        
  11384 ****         6.2500  11.7500  33.0000 Du        
  11385 ****         6.2500  11.7500  33.2500 Du        
  11386 ****         6.2500  11.7500  33.5000 Du        
  11387 ****         6.2500  12.0000  33.0000 Du        
  11388 ****         6.2500  12.0000  33.2500 Du        
  11389 ****         6.2500  12.0000  33.5000 Du        
  11390 ****         6.2500  12.0000  33.7500 Du        
  11391 ****         6.2500  12.2500  33.2500 Du        
  11392 ****         6.2500  12.2500  33.5000 Du        
  11393 ****         6.2500  12.2500  33.7500 Du        
  11394 ****         6.2500  12.2500  34.0000 Du        
  11395 ****         6.2500  12.5000  33.5000 Du        
  11396 ****         6.2500  12.5000  33.7500 Du        
  11397 ****         6.2500  12.5000  34.0000 Du        
  11398 ****         6.2500  12.5000  34.2500 Du        
  11399 ****         6.2500  12.7500  33.5000 Du        
  11400 ****         6.2500  12.7500  33.7500 Du        
  11401 ****         6.2500  12.7500  34.0000 Du        
  11402 ****         6.2500  12.7500  34.2500 Du        
  11403 ****         6.2500  12.7500  34.5000 Du        
  11404 ****         6.2500  12.7500  34.7500 Du        
  11405 ****         6.2500  13.0000  33.7500 Du        
  11406 ****         6.2500  13.0000  34.0000 Du        
  11407 ****         6.2500  13.0000  34.2500 Du        
  11408 ****         6.2500  13.0000  34.5000 Du        
  11409 ****         6.2500  13.0000  34.7500 Du        
  11410 ****         6.2500  13.0000  35.0000 Du        
  11411 ****         6.2500  13.0000  41.7500 Du        
  11412 ****         6.2500  13.2500  34.0000 Du        
  11413 ****         6.2500  13.2500  34.2500 Du        
  11414 ****         6.2500  13.2500  34.5000 Du        
  11415 ****         6.2500  13.2500  34.7500 Du        
  11416 ****         6.2500  13.2500  35.0000 Du        
  11417 ****         6.2500  13.2500  35.2500 Du        
  11418 ****         6.2500  13.2500  35.5000 Du        
  11419 ****         6.2500  13.2500  41.0000 Du        
  11420 ****         6.2500  13.2500  41.2500 Du        
  11421 ****         6.2500  13.2500  41.5000 Du        
  11422 ****         6.2500  13.2500  41.7500 Du        
  11423 ****         6.2500  13.2500  42.0000 Du        
  11424 ****         6.2500  13.2500  42.2500 Du        
  11425 ****         6.2500  13.2500  42.5000 Du        
  11426 ****         6.2500  13.5000  34.2500 Du        
  11427 ****         6.2500  13.5000  34.5000 Du        
  11428 ****         6.2500  13.5000  34.7500 Du        
  11429 ****         6.2500  13.5000  35.0000 Du        
  11430 ****         6.2500  13.5000  35.2500 Du        
  11431 ****         6.2500  13.5000  35.5000 Du        
  11432 ****         6.2500  13.5000  35.7500 Du        
  11433 ****         6.2500  13.5000  36.0000 Du        
  11434 ****         6.2500  13.5000  40.5000 Du        
  11435 ****         6.2500  13.5000  40.7500 Du        
  11436 ****         6.2500  13.5000  41.0000 Du        
  11437 ****         6.2500  13.5000  41.2500 Du        
  11438 ****         6.2500  13.5000  41.5000 Du        
  11439 ****         6.2500  13.5000  41.7500 Du        
  11440 ****         6.2500  13.5000  42.0000 Du        
  11441 ****         6.2500  13.5000  42.2500 Du        
  11442 ****         6.2500  13.5000  42.5000 Du        
  11443 ****         6.2500  13.5000  42.7500 Du        
  11444 ****         6.2500  13.5000  43.0000 Du        
  11445 ****         6.2500  13.7500  34.5000 Du        
  11446 ****         6.2500  13.7500  34.7500 Du        
  11447 ****         6.2500  13.7500  35.0000 Du        
  11448 ****         6.2500  13.7500  35.2500 Du        
  11449 ****         6.2500  13.7500  35.5000 Du        
  11450 ****         6.2500  13.7500  35.7500 Du        
  11451 ****         6.2500  13.7500  36.0000 Du        
  11452 ****         6.2500  13.7500  36.2500 Du        
  11453 ****         6.2500  13.7500  39.7500 Du        
  11454 ****         6.2500  13.7500  40.0000 Du        
  11455 ****         6.2500  13.7500  40.2500 Du        
  11456 ****         6.2500  13.7500  40.5000 Du        
  11457 ****         6.2500  13.7500  40.7500 Du        
  11458 ****         6.2500  13.7500  41.0000 Du        
  11459 ****         6.2500  13.7500  41.2500 Du        
  11460 ****         6.2500  13.7500  41.5000 Du        
  11461 ****         6.2500  13.7500  41.7500 Du        
  11462 ****         6.2500  13.7500  42.0000 Du        
  11463 ****         6.2500  13.7500  42.2500 Du        
  11464 ****         6.2500  13.7500  42.5000 Du        
  11465 ****         6.2500  13.7500  42.7500 Du        
  11466 ****         6.2500  13.7500  43.0000 Du        
  11467 ****         6.2500  13.7500  43.2500 Du        
  11468 ****         6.2500  14.0000  34.7500 Du        
  11469 ****         6.2500  14.0000  35.0000 Du        
  11470 ****         6.2500  14.0000  35.2500 Du        
  11471 ****         6.2500  14.0000  35.5000 Du        
  11472 ****         6.2500  14.0000  35.7500 Du        
  11473 ****         6.2500  14.0000  36.0000 Du        
  11474 ****         6.2500  14.0000  36.2500 Du        
  11475 ****         6.2500  14.0000  36.5000 Du        
  11476 ****         6.2500  14.0000  38.7500 Du        
  11477 ****         6.2500  14.0000  39.0000 Du        
  11478 ****         6.2500  14.0000  39.2500 Du        
  11479 ****         6.2500  14.0000  39.5000 Du        
  11480 ****         6.2500  14.0000  39.7500 Du        
  11481 ****         6.2500  14.0000  40.0000 Du        
  11482 ****         6.2500  14.0000  40.2500 Du        
  11483 ****         6.2500  14.0000  40.5000 Du        
  11484 ****         6.2500  14.0000  40.7500 Du        
  11485 ****         6.2500  14.0000  41.0000 Du        
  11486 ****         6.2500  14.0000  41.2500 Du        
  11487 ****         6.2500  14.0000  41.5000 Du        
  11488 ****         6.2500  14.0000  41.7500 Du        
  11489 ****         6.2500  14.0000  42.0000 Du        
  11490 ****         6.2500  14.0000  42.2500 Du        
  11491 ****         6.2500  14.0000  42.5000 Du        
  11492 ****         6.2500  14.0000  42.7500 Du        
  11493 ****         6.2500  14.0000  43.0000 Du        
  11494 ****         6.2500  14.0000  43.2500 Du        
  11495 ****         6.2500  14.2500  35.0000 Du        
  11496 ****         6.2500  14.2500  35.2500 Du        
  11497 ****         6.2500  14.2500  35.5000 Du        
  11498 ****         6.2500  14.2500  35.7500 Du        
  11499 ****         6.2500  14.2500  36.0000 Du        
  11500 ****         6.2500  14.2500  36.2500 Du        
  11501 ****         6.2500  14.2500  36.5000 Du        
  11502 ****         6.2500  14.2500  36.7500 Du        
  11503 ****         6.2500  14.2500  38.2500 Du        
  11504 ****         6.2500  14.2500  38.5000 Du        
  11505 ****         6.2500  14.2500  38.7500 Du        
  11506 ****         6.2500  14.2500  39.0000 Du        
  11507 ****         6.2500  14.2500  39.2500 Du        
  11508 ****         6.2500  14.2500  39.5000 Du        
  11509 ****         6.2500  14.2500  39.7500 Du        
  11510 ****         6.2500  14.2500  40.0000 Du        
  11511 ****         6.2500  14.2500  40.2500 Du        
  11512 ****         6.2500  14.2500  40.5000 Du        
  11513 ****         6.2500  14.2500  40.7500 Du        
  11514 ****         6.2500  14.2500  41.0000 Du        
  11515 ****         6.2500  14.2500  41.2500 Du        
  11516 ****         6.2500  14.2500  41.5000 Du        
  11517 ****         6.2500  14.2500  41.7500 Du        
  11518 ****         6.2500  14.2500  42.0000 Du        
  11519 ****         6.2500  14.2500  42.2500 Du        
  11520 ****         6.2500  14.2500  42.5000 Du        
  11521 ****         6.2500  14.2500  42.7500 Du        
  11522 ****         6.2500  14.2500  43.0000 Du        
  11523 ****         6.2500  14.2500  43.2500 Du        
  11524 ****         6.2500  14.2500  43.5000 Du        
  11525 ****         6.2500  14.5000  35.2500 Du        
  11526 ****         6.2500  14.5000  35.5000 Du        
  11527 ****         6.2500  14.5000  35.7500 Du        
  11528 ****         6.2500  14.5000  36.0000 Du        
  11529 ****         6.2500  14.5000  36.2500 Du        
  11530 ****         6.2500  14.5000  36.5000 Du        
  11531 ****         6.2500  14.5000  38.2500 Du        
  11532 ****         6.2500  14.5000  38.5000 Du        
  11533 ****         6.2500  14.5000  38.7500 Du        
  11534 ****         6.2500  14.5000  39.0000 Du        
  11535 ****         6.2500  14.5000  39.2500 Du        
  11536 ****         6.2500  14.5000  39.5000 Du        
  11537 ****         6.2500  14.5000  39.7500 Du        
  11538 ****         6.2500  14.5000  40.0000 Du        
  11539 ****         6.2500  14.5000  40.2500 Du        
  11540 ****         6.2500  14.5000  40.5000 Du        
  11541 ****         6.2500  14.5000  40.7500 Du        
  11542 ****         6.2500  14.5000  41.0000 Du        
  11543 ****         6.2500  14.5000  41.2500 Du        
  11544 ****         6.2500  14.5000  41.5000 Du        
  11545 ****         6.2500  14.5000  41.7500 Du        
  11546 ****         6.2500  14.5000  42.0000 Du        
  11547 ****         6.2500  14.5000  42.2500 Du        
  11548 ****         6.2500  14.5000  42.5000 Du        
  11549 ****         6.2500  14.5000  42.7500 Du        
  11550 ****         6.2500  14.5000  43.0000 Du        
  11551 ****         6.2500  14.5000  43.2500 Du        
  11552 ****         6.2500  14.5000  43.5000 Du        
  11553 ****         6.2500  14.7500  35.2500 Du        
  11554 ****         6.2500  14.7500  35.5000 Du        
  11555 ****         6.2500  14.7500  35.7500 Du        
  11556 ****         6.2500  14.7500  36.0000 Du        
  11557 ****         6.2500  14.7500  38.5000 Du        
  11558 ****         6.2500  14.7500  38.7500 Du        
  11559 ****         6.2500  14.7500  39.0000 Du        
  11560 ****         6.2500  14.7500  39.2500 Du        
  11561 ****         6.2500  14.7500  39.5000 Du        
  11562 ****         6.2500  14.7500  39.7500 Du        
  11563 ****         6.2500  14.7500  40.0000 Du        
  11564 ****         6.2500  14.7500  40.2500 Du        
  11565 ****         6.2500  14.7500  40.5000 Du        
  11566 ****         6.2500  14.7500  40.7500 Du        
  11567 ****         6.2500  14.7500  41.0000 Du        
  11568 ****         6.2500  14.7500  41.2500 Du        
  11569 ****         6.2500  14.7500  41.5000 Du        
  11570 ****         6.2500  14.7500  41.7500 Du        
  11571 ****         6.2500  14.7500  42.0000 Du        
  11572 ****         6.2500  14.7500  42.2500 Du        
  11573 ****         6.2500  14.7500  42.5000 Du        
  11574 ****         6.2500  14.7500  42.7500 Du        
  11575 ****         6.2500  14.7500  43.0000 Du        
  11576 ****         6.2500  14.7500  43.2500 Du        
  11577 ****         6.2500  14.7500  43.5000 Du        
  11578 ****         6.2500  15.0000  39.0000 Du        
  11579 ****         6.2500  15.0000  39.2500 Du        
  11580 ****         6.2500  15.0000  39.5000 Du        
  11581 ****         6.2500  15.0000  39.7500 Du        
  11582 ****         6.2500  15.0000  40.0000 Du        
  11583 ****         6.2500  15.0000  40.2500 Du        
  11584 ****         6.2500  15.0000  40.5000 Du        
  11585 ****         6.2500  15.0000  40.7500 Du        
  11586 ****         6.2500  15.0000  41.0000 Du        
  11587 ****         6.2500  15.0000  41.2500 Du        
  11588 ****         6.2500  15.0000  41.5000 Du        
  11589 ****         6.2500  15.0000  41.7500 Du        
  11590 ****         6.2500  15.0000  42.0000 Du        
  11591 ****         6.2500  15.0000  42.2500 Du        
  11592 ****         6.2500  15.0000  42.5000 Du        
  11593 ****         6.2500  15.0000  42.7500 Du        
  11594 ****         6.2500  15.0000  43.0000 Du        
  11595 ****         6.2500  15.0000  43.2500 Du        
  11596 ****         6.2500  15.0000  43.5000 Du        
  11597 ****         6.2500  15.2500  39.2500 Du        
  11598 ****         6.2500  15.2500  39.5000 Du        
  11599 ****         6.2500  15.2500  39.7500 Du        
  11600 ****         6.2500  15.2500  40.0000 Du        
  11601 ****         6.2500  15.2500  40.2500 Du        
  11602 ****         6.2500  15.2500  40.5000 Du        
  11603 ****         6.2500  15.2500  40.7500 Du        
  11604 ****         6.2500  15.2500  41.0000 Du        
  11605 ****         6.2500  15.2500  41.2500 Du        
  11606 ****         6.2500  15.2500  41.5000 Du        
  11607 ****         6.2500  15.2500  41.7500 Du        
  11608 ****         6.2500  15.2500  42.0000 Du        
  11609 ****         6.2500  15.2500  42.2500 Du        
  11610 ****         6.2500  15.2500  42.5000 Du        
  11611 ****         6.2500  15.2500  42.7500 Du        
  11612 ****         6.2500  15.2500  43.0000 Du        
  11613 ****         6.2500  15.2500  43.2500 Du        
  11614 ****         6.2500  15.2500  43.5000 Du        
  11615 ****         6.2500  15.5000  39.7500 Du        
  11616 ****         6.2500  15.5000  40.0000 Du        
  11617 ****         6.2500  15.5000  40.2500 Du        
  11618 ****         6.2500  15.5000  40.5000 Du        
  11619 ****         6.2500  15.5000  40.7500 Du        
  11620 ****         6.2500  15.5000  41.0000 Du        
  11621 ****         6.2500  15.5000  41.2500 Du        
  11622 ****         6.2500  15.5000  41.5000 Du        
  11623 ****         6.2500  15.5000  41.7500 Du        
  11624 ****         6.2500  15.5000  42.0000 Du        
  11625 ****         6.2500  15.5000  42.2500 Du        
  11626 ****         6.2500  15.5000  42.5000 Du        
  11627 ****         6.2500  15.5000  42.7500 Du        
  11628 ****         6.2500  15.5000  43.0000 Du        
  11629 ****         6.2500  15.5000  43.2500 Du        
  11630 ****         6.2500  15.5000  43.5000 Du        
  11631 ****         6.2500  15.7500  39.7500 Du        
  11632 ****         6.2500  15.7500  40.0000 Du        
  11633 ****         6.2500  15.7500  40.2500 Du        
  11634 ****         6.2500  15.7500  40.5000 Du        
  11635 ****         6.2500  15.7500  40.7500 Du        
  11636 ****         6.2500  15.7500  41.0000 Du        
  11637 ****         6.2500  15.7500  41.2500 Du        
  11638 ****         6.2500  15.7500  41.5000 Du        
  11639 ****         6.2500  15.7500  41.7500 Du        
  11640 ****         6.2500  15.7500  42.0000 Du        
  11641 ****         6.2500  15.7500  42.2500 Du        
  11642 ****         6.2500  15.7500  42.5000 Du        
  11643 ****         6.2500  15.7500  42.7500 Du        
  11644 ****         6.2500  15.7500  43.0000 Du        
  11645 ****         6.2500  15.7500  43.2500 Du        
  11646 ****         6.2500  15.7500  43.5000 Du        
  11647 ****         6.2500  16.0000  40.0000 Du        
  11648 ****         6.2500  16.0000  40.2500 Du        
  11649 ****         6.2500  16.0000  40.5000 Du        
  11650 ****         6.2500  16.0000  40.7500 Du        
  11651 ****         6.2500  16.0000  41.0000 Du        
  11652 ****         6.2500  16.0000  41.2500 Du        
  11653 ****         6.2500  16.0000  41.5000 Du        
  11654 ****         6.2500  16.0000  41.7500 Du        
  11655 ****         6.2500  16.0000  42.0000 Du        
  11656 ****         6.2500  16.0000  42.2500 Du        
  11657 ****         6.2500  16.0000  42.5000 Du        
  11658 ****         6.2500  16.0000  42.7500 Du        
  11659 ****         6.2500  16.0000  43.0000 Du        
  11660 ****         6.2500  16.0000  43.2500 Du        
  11661 ****         6.2500  16.0000  43.5000 Du        
  11662 ****         6.2500  16.2500  40.0000 Du        
  11663 ****         6.2500  16.2500  40.2500 Du        
  11664 ****         6.2500  16.2500  40.5000 Du        
  11665 ****         6.2500  16.2500  40.7500 Du        
  11666 ****         6.2500  16.2500  41.0000 Du        
  11667 ****         6.2500  16.2500  41.2500 Du        
  11668 ****         6.2500  16.2500  41.5000 Du        
  11669 ****         6.2500  16.2500  41.7500 Du        
  11670 ****         6.2500  16.2500  42.0000 Du        
  11671 ****         6.2500  16.2500  42.2500 Du        
  11672 ****         6.2500  16.2500  42.5000 Du        
  11673 ****         6.2500  16.2500  42.7500 Du        
  11674 ****         6.2500  16.2500  43.0000 Du        
  11675 ****         6.2500  16.2500  43.2500 Du        
  11676 ****         6.2500  16.2500  43.5000 Du        
  11677 ****         6.2500  16.5000  40.0000 Du        
  11678 ****         6.2500  16.5000  40.2500 Du        
  11679 ****         6.2500  16.5000  40.5000 Du        
  11680 ****         6.2500  16.5000  40.7500 Du        
  11681 ****         6.2500  16.5000  41.0000 Du        
  11682 ****         6.2500  16.5000  41.2500 Du        
  11683 ****         6.2500  16.5000  41.5000 Du        
  11684 ****         6.2500  16.5000  41.7500 Du        
  11685 ****         6.2500  16.5000  42.0000 Du        
  11686 ****         6.2500  16.5000  42.2500 Du        
  11687 ****         6.2500  16.5000  42.5000 Du        
  11688 ****         6.2500  16.5000  42.7500 Du        
  11689 ****         6.2500  16.5000  43.0000 Du        
  11690 ****         6.2500  16.5000  43.2500 Du        
  11691 ****         6.2500  16.7500  40.0000 Du        
  11692 ****         6.2500  16.7500  40.2500 Du        
  11693 ****         6.2500  16.7500  40.5000 Du        
  11694 ****         6.2500  16.7500  40.7500 Du        
  11695 ****         6.2500  16.7500  41.0000 Du        
  11696 ****         6.2500  16.7500  41.2500 Du        
  11697 ****         6.2500  16.7500  41.5000 Du        
  11698 ****         6.2500  16.7500  41.7500 Du        
  11699 ****         6.2500  16.7500  42.0000 Du        
  11700 ****         6.2500  16.7500  42.2500 Du        
  11701 ****         6.2500  16.7500  42.5000 Du        
  11702 ****         6.2500  16.7500  42.7500 Du        
  11703 ****         6.2500  17.0000  40.0000 Du        
  11704 ****         6.2500  17.0000  40.2500 Du        
  11705 ****         6.2500  17.0000  40.5000 Du        
  11706 ****         6.2500  17.0000  40.7500 Du        
  11707 ****         6.2500  17.0000  41.0000 Du        
  11708 ****         6.2500  17.0000  41.2500 Du        
  11709 ****         6.2500  17.0000  41.5000 Du        
  11710 ****         6.2500  17.0000  41.7500 Du        
  11711 ****         6.2500  17.0000  42.0000 Du        
  11712 ****         6.2500  17.0000  42.2500 Du        
  11713 ****         6.2500  17.2500  40.0000 Du        
  11714 ****         6.2500  17.2500  40.2500 Du        
  11715 ****         6.2500  17.2500  40.5000 Du        
  11716 ****         6.2500  17.2500  40.7500 Du        
  11717 ****         6.2500  17.2500  41.0000 Du        
  11718 ****         6.2500  17.2500  41.2500 Du        
  11719 ****         6.2500  17.2500  41.5000 Du        
  11720 ****         6.2500  17.2500  41.7500 Du        
  11721 ****         6.2500  17.2500  42.0000 Du        
  11722 ****         6.2500  17.5000  35.0000 Du        
  11723 ****         6.2500  17.5000  35.2500 Du        
  11724 ****         6.2500  17.5000  40.0000 Du        
  11725 ****         6.2500  17.5000  40.2500 Du        
  11726 ****         6.2500  17.5000  40.5000 Du        
  11727 ****         6.2500  17.5000  40.7500 Du        
  11728 ****         6.2500  17.5000  41.0000 Du        
  11729 ****         6.2500  17.5000  41.2500 Du        
  11730 ****         6.2500  17.5000  41.5000 Du        
  11731 ****         6.2500  17.5000  41.7500 Du        
  11732 ****         6.2500  17.7500  34.7500 Du        
  11733 ****         6.2500  17.7500  35.0000 Du        
  11734 ****         6.2500  17.7500  35.2500 Du        
  11735 ****         6.2500  17.7500  40.0000 Du        
  11736 ****         6.2500  17.7500  40.2500 Du        
  11737 ****         6.2500  17.7500  40.5000 Du        
  11738 ****         6.2500  17.7500  40.7500 Du        
  11739 ****         6.2500  17.7500  41.0000 Du        
  11740 ****         6.2500  17.7500  41.2500 Du        
  11741 ****         6.2500  17.7500  41.5000 Du        
  11742 ****         6.2500  18.0000  34.5000 Du        
  11743 ****         6.2500  18.0000  34.7500 Du        
  11744 ****         6.2500  18.0000  35.0000 Du        
  11745 ****         6.2500  18.0000  35.2500 Du        
  11746 ****         6.2500  18.0000  35.5000 Du        
  11747 ****         6.2500  18.0000  40.0000 Du        
  11748 ****         6.2500  18.0000  40.2500 Du        
  11749 ****         6.2500  18.0000  40.5000 Du        
  11750 ****         6.2500  18.0000  40.7500 Du        
  11751 ****         6.2500  18.0000  41.0000 Du        
  11752 ****         6.2500  18.0000  41.2500 Du        
  11753 ****         6.2500  18.0000  41.5000 Du        
  11754 ****         6.2500  18.2500  34.2500 Du        
  11755 ****         6.2500  18.2500  34.5000 Du        
  11756 ****         6.2500  18.2500  34.7500 Du        
  11757 ****         6.2500  18.2500  35.0000 Du        
  11758 ****         6.2500  18.2500  35.2500 Du        
  11759 ****         6.2500  18.2500  35.5000 Du        
  11760 ****         6.2500  18.2500  39.7500 Du        
  11761 ****         6.2500  18.2500  40.0000 Du        
  11762 ****         6.2500  18.2500  40.2500 Du        
  11763 ****         6.2500  18.2500  40.5000 Du        
  11764 ****         6.2500  18.2500  40.7500 Du        
  11765 ****         6.2500  18.2500  41.0000 Du        
  11766 ****         6.2500  18.2500  41.2500 Du        
  11767 ****         6.2500  18.2500  41.5000 Du        
  11768 ****         6.2500  18.5000  34.0000 Du        
  11769 ****         6.2500  18.5000  34.2500 Du        
  11770 ****         6.2500  18.5000  34.5000 Du        
  11771 ****         6.2500  18.5000  34.7500 Du        
  11772 ****         6.2500  18.5000  35.0000 Du        
  11773 ****         6.2500  18.5000  35.2500 Du        
  11774 ****         6.2500  18.5000  35.5000 Du        
  11775 ****         6.2500  18.5000  40.0000 Du        
  11776 ****         6.2500  18.5000  40.2500 Du        
  11777 ****         6.2500  18.5000  40.5000 Du        
  11778 ****         6.2500  18.5000  40.7500 Du        
  11779 ****         6.2500  18.5000  41.0000 Du        
  11780 ****         6.2500  18.5000  41.2500 Du        
  11781 ****         6.2500  18.7500  33.5000 Du        
  11782 ****         6.2500  18.7500  33.7500 Du        
  11783 ****         6.2500  18.7500  34.0000 Du        
  11784 ****         6.2500  18.7500  34.2500 Du        
  11785 ****         6.2500  18.7500  34.5000 Du        
  11786 ****         6.2500  18.7500  34.7500 Du        
  11787 ****         6.2500  18.7500  35.0000 Du        
  11788 ****         6.2500  18.7500  35.2500 Du        
  11789 ****         6.2500  18.7500  35.5000 Du        
  11790 ****         6.2500  18.7500  39.7500 Du        
  11791 ****         6.2500  18.7500  40.0000 Du        
  11792 ****         6.2500  18.7500  40.2500 Du        
  11793 ****         6.2500  18.7500  40.5000 Du        
  11794 ****         6.2500  18.7500  40.7500 Du        
  11795 ****         6.2500  18.7500  41.0000 Du        
  11796 ****         6.2500  18.7500  41.2500 Du        
  11797 ****         6.2500  19.0000  33.0000 Du        
  11798 ****         6.2500  19.0000  33.2500 Du        
  11799 ****         6.2500  19.0000  33.5000 Du        
  11800 ****         6.2500  19.0000  33.7500 Du        
  11801 ****         6.2500  19.0000  34.0000 Du        
  11802 ****         6.2500  19.0000  34.2500 Du        
  11803 ****         6.2500  19.0000  34.5000 Du        
  11804 ****         6.2500  19.0000  34.7500 Du        
  11805 ****         6.2500  19.0000  35.0000 Du        
  11806 ****         6.2500  19.0000  35.2500 Du        
  11807 ****         6.2500  19.0000  35.5000 Du        
  11808 ****         6.2500  19.0000  39.7500 Du        
  11809 ****         6.2500  19.0000  40.0000 Du        
  11810 ****         6.2500  19.0000  40.2500 Du        
  11811 ****         6.2500  19.0000  40.5000 Du        
  11812 ****         6.2500  19.0000  40.7500 Du        
  11813 ****         6.2500  19.0000  41.0000 Du        
  11814 ****         6.2500  19.0000  41.2500 Du        
  11815 ****         6.2500  19.2500  32.2500 Du        
  11816 ****         6.2500  19.2500  32.5000 Du        
  11817 ****         6.2500  19.2500  32.7500 Du        
  11818 ****         6.2500  19.2500  33.0000 Du        
  11819 ****         6.2500  19.2500  33.2500 Du        
  11820 ****         6.2500  19.2500  33.5000 Du        
  11821 ****         6.2500  19.2500  33.7500 Du        
  11822 ****         6.2500  19.2500  34.0000 Du        
  11823 ****         6.2500  19.2500  34.2500 Du        
  11824 ****         6.2500  19.2500  34.5000 Du        
  11825 ****         6.2500  19.2500  34.7500 Du        
  11826 ****         6.2500  19.2500  35.0000 Du        
  11827 ****         6.2500  19.2500  35.2500 Du        
  11828 ****         6.2500  19.2500  39.7500 Du        
  11829 ****         6.2500  19.2500  40.0000 Du        
  11830 ****         6.2500  19.2500  40.2500 Du        
  11831 ****         6.2500  19.2500  40.5000 Du        
  11832 ****         6.2500  19.2500  40.7500 Du        
  11833 ****         6.2500  19.2500  41.0000 Du        
  11834 ****         6.2500  19.2500  41.2500 Du        
  11835 ****         6.2500  19.5000  31.7500 Du        
  11836 ****         6.2500  19.5000  32.0000 Du        
  11837 ****         6.2500  19.5000  32.2500 Du        
  11838 ****         6.2500  19.5000  32.5000 Du        
  11839 ****         6.2500  19.5000  32.7500 Du        
  11840 ****         6.2500  19.5000  33.0000 Du        
  11841 ****         6.2500  19.5000  33.2500 Du        
  11842 ****         6.2500  19.5000  33.5000 Du        
  11843 ****         6.2500  19.5000  33.7500 Du        
  11844 ****         6.2500  19.5000  34.0000 Du        
  11845 ****         6.2500  19.5000  34.2500 Du        
  11846 ****         6.2500  19.5000  34.5000 Du        
  11847 ****         6.2500  19.5000  34.7500 Du        
  11848 ****         6.2500  19.5000  35.0000 Du        
  11849 ****         6.2500  19.5000  35.2500 Du        
  11850 ****         6.2500  19.5000  40.0000 Du        
  11851 ****         6.2500  19.5000  40.2500 Du        
  11852 ****         6.2500  19.5000  40.5000 Du        
  11853 ****         6.2500  19.5000  40.7500 Du        
  11854 ****         6.2500  19.5000  41.0000 Du        
  11855 ****         6.2500  19.7500  31.7500 Du        
  11856 ****         6.2500  19.7500  32.0000 Du        
  11857 ****         6.2500  19.7500  32.2500 Du        
  11858 ****         6.2500  19.7500  32.5000 Du        
  11859 ****         6.2500  19.7500  32.7500 Du        
  11860 ****         6.2500  19.7500  33.0000 Du        
  11861 ****         6.2500  19.7500  33.2500 Du        
  11862 ****         6.2500  19.7500  33.5000 Du        
  11863 ****         6.2500  19.7500  33.7500 Du        
  11864 ****         6.2500  19.7500  34.0000 Du        
  11865 ****         6.2500  19.7500  34.2500 Du        
  11866 ****         6.2500  19.7500  34.5000 Du        
  11867 ****         6.2500  19.7500  34.7500 Du        
  11868 ****         6.2500  19.7500  35.0000 Du        
  11869 ****         6.2500  19.7500  35.2500 Du        
  11870 ****         6.2500  19.7500  39.7500 Du        
  11871 ****         6.2500  19.7500  40.0000 Du        
  11872 ****         6.2500  19.7500  40.2500 Du        
  11873 ****         6.2500  19.7500  40.5000 Du        
  11874 ****         6.2500  19.7500  40.7500 Du        
  11875 ****         6.2500  20.0000  32.0000 Du        
  11876 ****         6.2500  20.0000  32.2500 Du        
  11877 ****         6.2500  20.0000  32.5000 Du        
  11878 ****         6.2500  20.0000  32.7500 Du        
  11879 ****         6.2500  20.0000  33.0000 Du        
  11880 ****         6.2500  20.0000  33.2500 Du        
  11881 ****         6.2500  20.0000  33.5000 Du        
  11882 ****         6.2500  20.0000  33.7500 Du        
  11883 ****         6.2500  20.0000  34.0000 Du        
  11884 ****         6.2500  20.0000  34.2500 Du        
  11885 ****         6.2500  20.0000  34.5000 Du        
  11886 ****         6.2500  20.0000  34.7500 Du        
  11887 ****         6.2500  20.0000  35.0000 Du        
  11888 ****         6.2500  20.0000  40.0000 Du        
  11889 ****         6.2500  20.0000  40.2500 Du        
  11890 ****         6.2500  20.0000  40.5000 Du        
  11891 ****         6.2500  20.2500  32.2500 Du        
  11892 ****         6.2500  20.2500  32.5000 Du        
  11893 ****         6.2500  20.2500  32.7500 Du        
  11894 ****         6.2500  20.2500  33.0000 Du        
  11895 ****         6.2500  20.2500  33.2500 Du        
  11896 ****         6.2500  20.2500  33.5000 Du        
  11897 ****         6.2500  20.2500  33.7500 Du        
  11898 ****         6.2500  20.2500  34.0000 Du        
  11899 ****         6.2500  20.2500  34.2500 Du        
  11900 ****         6.2500  20.2500  34.5000 Du        
  11901 ****         6.2500  20.2500  34.7500 Du        
  11902 ****         6.2500  20.2500  35.0000 Du        
  11903 ****         6.2500  20.2500  40.0000 Du        
  11904 ****         6.2500  20.5000  32.7500 Du        
  11905 ****         6.2500  20.5000  33.0000 Du        
  11906 ****         6.2500  20.5000  33.2500 Du        
  11907 ****         6.2500  20.5000  33.5000 Du        
  11908 ****         6.2500  20.5000  33.7500 Du        
  11909 ****         6.2500  20.5000  34.0000 Du        
  11910 ****         6.2500  20.5000  34.2500 Du        
  11911 ****         6.2500  20.5000  34.5000 Du        
  11912 ****         6.2500  20.5000  34.7500 Du        
  11913 ****         6.2500  20.5000  39.7500 Du        
  11914 ****         6.2500  20.7500  33.0000 Du        
  11915 ****         6.2500  20.7500  33.2500 Du        
  11916 ****         6.2500  20.7500  33.5000 Du        
  11917 ****         6.2500  20.7500  33.7500 Du        
  11918 ****         6.2500  20.7500  34.0000 Du        
  11919 ****         6.2500  20.7500  34.2500 Du        
  11920 ****         6.2500  20.7500  34.5000 Du        
  11921 ****         6.2500  20.7500  34.7500 Du        
  11922 ****         6.2500  21.0000  33.2500 Du        
  11923 ****         6.2500  21.0000  33.5000 Du        
  11924 ****         6.2500  21.0000  33.7500 Du        
  11925 ****         6.2500  21.0000  34.0000 Du        
  11926 ****         6.2500  21.0000  34.2500 Du        
  11927 ****         6.2500  21.0000  34.5000 Du        
  11928 ****         6.2500  21.0000  34.7500 Du        
  11929 ****         6.2500  21.2500  33.7500 Du        
  11930 ****         6.2500  21.2500  34.0000 Du        
  11931 ****         6.2500  21.2500  34.2500 Du        
  11932 ****         6.2500  24.7500  35.2500 Du        
  11933 ****         6.2500  24.7500  35.5000 Du        
  11934 ****         6.2500  24.7500  35.7500 Du        
  11935 ****         6.2500  24.7500  36.0000 Du        
  11936 ****         6.5000   9.7500  30.7500 Du        
  11937 ****         6.5000   9.7500  31.0000 Du        
  11938 ****         6.5000  10.0000  30.5000 Du        
  11939 ****         6.5000  10.0000  30.7500 Du        
  11940 ****         6.5000  10.0000  31.0000 Du        
  11941 ****         6.5000  10.0000  31.2500 Du        
  11942 ****         6.5000  10.2500  30.7500 Du        
  11943 ****         6.5000  10.2500  31.0000 Du        
  11944 ****         6.5000  10.2500  31.2500 Du        
  11945 ****         6.5000  10.2500  31.5000 Du        
  11946 ****         6.5000  10.2500  31.7500 Du        
  11947 ****         6.5000  10.2500  32.0000 Du        
  11948 ****         6.5000  10.5000  31.0000 Du        
  11949 ****         6.5000  10.5000  31.2500 Du        
  11950 ****         6.5000  10.5000  31.5000 Du        
  11951 ****         6.5000  10.5000  31.7500 Du        
  11952 ****         6.5000  10.5000  32.0000 Du        
  11953 ****         6.5000  10.5000  32.2500 Du        
  11954 ****         6.5000  10.5000  32.5000 Du        
  11955 ****         6.5000  10.7500  31.0000 Du        
  11956 ****         6.5000  10.7500  31.2500 Du        
  11957 ****         6.5000  10.7500  31.5000 Du        
  11958 ****         6.5000  10.7500  31.7500 Du        
  11959 ****         6.5000  10.7500  32.0000 Du        
  11960 ****         6.5000  10.7500  32.2500 Du        
  11961 ****         6.5000  10.7500  32.5000 Du        
  11962 ****         6.5000  10.7500  32.7500 Du        
  11963 ****         6.5000  11.0000  31.2500 Du        
  11964 ****         6.5000  11.0000  31.5000 Du        
  11965 ****         6.5000  11.0000  31.7500 Du        
  11966 ****         6.5000  11.0000  32.0000 Du        
  11967 ****         6.5000  11.0000  32.2500 Du        
  11968 ****         6.5000  11.0000  32.5000 Du        
  11969 ****         6.5000  11.0000  32.7500 Du        
  11970 ****         6.5000  11.0000  33.0000 Du        
  11971 ****         6.5000  11.2500  31.5000 Du        
  11972 ****         6.5000  11.2500  31.7500 Du        
  11973 ****         6.5000  11.2500  32.0000 Du        
  11974 ****         6.5000  11.2500  32.2500 Du        
  11975 ****         6.5000  11.2500  32.5000 Du        
  11976 ****         6.5000  11.2500  32.7500 Du        
  11977 ****         6.5000  11.2500  33.0000 Du        
  11978 ****         6.5000  11.2500  33.2500 Du        
  11979 ****         6.5000  11.5000  32.0000 Du        
  11980 ****         6.5000  11.5000  32.2500 Du        
  11981 ****         6.5000  11.5000  32.5000 Du        
  11982 ****         6.5000  11.5000  32.7500 Du        
  11983 ****         6.5000  11.5000  33.0000 Du        
  11984 ****         6.5000  11.5000  33.2500 Du        
  11985 ****         6.5000  11.7500  32.5000 Du        
  11986 ****         6.5000  11.7500  32.7500 Du        
  11987 ****         6.5000  11.7500  33.0000 Du        
  11988 ****         6.5000  11.7500  33.2500 Du        
  11989 ****         6.5000  11.7500  33.5000 Du        
  11990 ****         6.5000  12.0000  33.0000 Du        
  11991 ****         6.5000  12.0000  33.2500 Du        
  11992 ****         6.5000  12.0000  33.5000 Du        
  11993 ****         6.5000  12.0000  33.7500 Du        
  11994 ****         6.5000  12.2500  33.2500 Du        
  11995 ****         6.5000  12.2500  33.5000 Du        
  11996 ****         6.5000  12.2500  33.7500 Du        
  11997 ****         6.5000  12.2500  34.0000 Du        
  11998 ****         6.5000  12.5000  33.5000 Du        
  11999 ****         6.5000  12.5000  33.7500 Du        
  12000 ****         6.5000  12.5000  34.0000 Du        
  12001 ****         6.5000  12.5000  34.2500 Du        
  12002 ****         6.5000  12.7500  33.7500 Du        
  12003 ****         6.5000  12.7500  34.0000 Du        
  12004 ****         6.5000  12.7500  34.2500 Du        
  12005 ****         6.5000  12.7500  34.5000 Du        
  12006 ****         6.5000  13.0000  33.7500 Du        
  12007 ****         6.5000  13.0000  34.0000 Du        
  12008 ****         6.5000  13.0000  34.2500 Du        
  12009 ****         6.5000  13.0000  34.5000 Du        
  12010 ****         6.5000  13.0000  34.7500 Du        
  12011 ****         6.5000  13.0000  35.0000 Du        
  12012 ****         6.5000  13.2500  34.0000 Du        
  12013 ****         6.5000  13.2500  34.2500 Du        
  12014 ****         6.5000  13.2500  34.5000 Du        
  12015 ****         6.5000  13.2500  34.7500 Du        
  12016 ****         6.5000  13.2500  35.0000 Du        
  12017 ****         6.5000  13.2500  35.2500 Du        
  12018 ****         6.5000  13.2500  35.5000 Du        
  12019 ****         6.5000  13.2500  41.0000 Du        
  12020 ****         6.5000  13.2500  41.2500 Du        
  12021 ****         6.5000  13.2500  41.5000 Du        
  12022 ****         6.5000  13.2500  41.7500 Du        
  12023 ****         6.5000  13.2500  42.0000 Du        
  12024 ****         6.5000  13.2500  42.2500 Du        
  12025 ****         6.5000  13.5000  34.2500 Du        
  12026 ****         6.5000  13.5000  34.5000 Du        
  12027 ****         6.5000  13.5000  34.7500 Du        
  12028 ****         6.5000  13.5000  35.0000 Du        
  12029 ****         6.5000  13.5000  35.2500 Du        
  12030 ****         6.5000  13.5000  35.5000 Du        
  12031 ****         6.5000  13.5000  35.7500 Du        
  12032 ****         6.5000  13.5000  40.5000 Du        
  12033 ****         6.5000  13.5000  40.7500 Du        
  12034 ****         6.5000  13.5000  41.0000 Du        
  12035 ****         6.5000  13.5000  41.2500 Du        
  12036 ****         6.5000  13.5000  41.5000 Du        
  12037 ****         6.5000  13.5000  41.7500 Du        
  12038 ****         6.5000  13.5000  42.0000 Du        
  12039 ****         6.5000  13.5000  42.2500 Du        
  12040 ****         6.5000  13.5000  42.5000 Du        
  12041 ****         6.5000  13.5000  42.7500 Du        
  12042 ****         6.5000  13.7500  34.5000 Du        
  12043 ****         6.5000  13.7500  34.7500 Du        
  12044 ****         6.5000  13.7500  35.0000 Du        
  12045 ****         6.5000  13.7500  35.2500 Du        
  12046 ****         6.5000  13.7500  35.5000 Du        
  12047 ****         6.5000  13.7500  35.7500 Du        
  12048 ****         6.5000  13.7500  36.0000 Du        
  12049 ****         6.5000  13.7500  39.7500 Du        
  12050 ****         6.5000  13.7500  40.0000 Du        
  12051 ****         6.5000  13.7500  40.2500 Du        
  12052 ****         6.5000  13.7500  40.5000 Du        
  12053 ****         6.5000  13.7500  40.7500 Du        
  12054 ****         6.5000  13.7500  41.0000 Du        
  12055 ****         6.5000  13.7500  41.2500 Du        
  12056 ****         6.5000  13.7500  41.5000 Du        
  12057 ****         6.5000  13.7500  41.7500 Du        
  12058 ****         6.5000  13.7500  42.0000 Du        
  12059 ****         6.5000  13.7500  42.2500 Du        
  12060 ****         6.5000  13.7500  42.5000 Du        
  12061 ****         6.5000  13.7500  42.7500 Du        
  12062 ****         6.5000  13.7500  43.0000 Du        
  12063 ****         6.5000  13.7500  43.2500 Du        
  12064 ****         6.5000  14.0000  34.7500 Du        
  12065 ****         6.5000  14.0000  35.0000 Du        
  12066 ****         6.5000  14.0000  35.2500 Du        
  12067 ****         6.5000  14.0000  35.5000 Du        
  12068 ****         6.5000  14.0000  35.7500 Du        
  12069 ****         6.5000  14.0000  36.0000 Du        
  12070 ****         6.5000  14.0000  36.2500 Du        
  12071 ****         6.5000  14.0000  36.5000 Du        
  12072 ****         6.5000  14.0000  38.5000 Du        
  12073 ****         6.5000  14.0000  38.7500 Du        
  12074 ****         6.5000  14.0000  39.0000 Du        
  12075 ****         6.5000  14.0000  39.2500 Du        
  12076 ****         6.5000  14.0000  39.5000 Du        
  12077 ****         6.5000  14.0000  39.7500 Du        
  12078 ****         6.5000  14.0000  40.0000 Du        
  12079 ****         6.5000  14.0000  40.2500 Du        
  12080 ****         6.5000  14.0000  40.5000 Du        
  12081 ****         6.5000  14.0000  40.7500 Du        
  12082 ****         6.5000  14.0000  41.0000 Du        
  12083 ****         6.5000  14.0000  41.2500 Du        
  12084 ****         6.5000  14.0000  41.5000 Du        
  12085 ****         6.5000  14.0000  41.7500 Du        
  12086 ****         6.5000  14.0000  42.0000 Du        
  12087 ****         6.5000  14.0000  42.2500 Du        
  12088 ****         6.5000  14.0000  42.5000 Du        
  12089 ****         6.5000  14.0000  42.7500 Du        
  12090 ****         6.5000  14.0000  43.0000 Du        
  12091 ****         6.5000  14.0000  43.2500 Du        
  12092 ****         6.5000  14.2500  35.0000 Du        
  12093 ****         6.5000  14.2500  35.2500 Du        
  12094 ****         6.5000  14.2500  35.5000 Du        
  12095 ****         6.5000  14.2500  35.7500 Du        
  12096 ****         6.5000  14.2500  36.0000 Du        
  12097 ****         6.5000  14.2500  36.2500 Du        
  12098 ****         6.5000  14.2500  36.5000 Du        
  12099 ****         6.5000  14.2500  36.7500 Du        
  12100 ****         6.5000  14.2500  37.7500 Du        
  12101 ****         6.5000  14.2500  38.0000 Du        
  12102 ****         6.5000  14.2500  38.2500 Du        
  12103 ****         6.5000  14.2500  38.5000 Du        
  12104 ****         6.5000  14.2500  38.7500 Du        
  12105 ****         6.5000  14.2500  39.0000 Du        
  12106 ****         6.5000  14.2500  39.2500 Du        
  12107 ****         6.5000  14.2500  39.5000 Du        
  12108 ****         6.5000  14.2500  39.7500 Du        
  12109 ****         6.5000  14.2500  40.0000 Du        
  12110 ****         6.5000  14.2500  40.2500 Du        
  12111 ****         6.5000  14.2500  40.5000 Du        
  12112 ****         6.5000  14.2500  40.7500 Du        
  12113 ****         6.5000  14.2500  41.0000 Du        
  12114 ****         6.5000  14.2500  41.2500 Du        
  12115 ****         6.5000  14.2500  41.5000 Du        
  12116 ****         6.5000  14.2500  41.7500 Du        
  12117 ****         6.5000  14.2500  42.0000 Du        
  12118 ****         6.5000  14.2500  42.2500 Du        
  12119 ****         6.5000  14.2500  42.5000 Du        
  12120 ****         6.5000  14.2500  42.7500 Du        
  12121 ****         6.5000  14.2500  43.0000 Du        
  12122 ****         6.5000  14.2500  43.2500 Du        
  12123 ****         6.5000  14.5000  35.2500 Du        
  12124 ****         6.5000  14.5000  35.5000 Du        
  12125 ****         6.5000  14.5000  35.7500 Du        
  12126 ****         6.5000  14.5000  36.0000 Du        
  12127 ****         6.5000  14.5000  36.2500 Du        
  12128 ****         6.5000  14.5000  36.5000 Du        
  12129 ****         6.5000  14.5000  36.7500 Du        
  12130 ****         6.5000  14.5000  37.0000 Du        
  12131 ****         6.5000  14.5000  38.0000 Du        
  12132 ****         6.5000  14.5000  38.2500 Du        
  12133 ****         6.5000  14.5000  38.5000 Du        
  12134 ****         6.5000  14.5000  38.7500 Du        
  12135 ****         6.5000  14.5000  39.0000 Du        
  12136 ****         6.5000  14.5000  39.2500 Du        
  12137 ****         6.5000  14.5000  39.5000 Du        
  12138 ****         6.5000  14.5000  39.7500 Du        
  12139 ****         6.5000  14.5000  40.0000 Du        
  12140 ****         6.5000  14.5000  40.2500 Du        
  12141 ****         6.5000  14.5000  40.5000 Du        
  12142 ****         6.5000  14.5000  40.7500 Du        
  12143 ****         6.5000  14.5000  41.0000 Du        
  12144 ****         6.5000  14.5000  41.2500 Du        
  12145 ****         6.5000  14.5000  41.5000 Du        
  12146 ****         6.5000  14.5000  41.7500 Du        
  12147 ****         6.5000  14.5000  42.0000 Du        
  12148 ****         6.5000  14.5000  42.2500 Du        
  12149 ****         6.5000  14.5000  42.5000 Du        
  12150 ****         6.5000  14.5000  42.7500 Du        
  12151 ****         6.5000  14.5000  43.0000 Du        
  12152 ****         6.5000  14.5000  43.2500 Du        
  12153 ****         6.5000  14.5000  43.5000 Du        
  12154 ****         6.5000  14.7500  35.5000 Du        
  12155 ****         6.5000  14.7500  35.7500 Du        
  12156 ****         6.5000  14.7500  36.0000 Du        
  12157 ****         6.5000  14.7500  36.2500 Du        
  12158 ****         6.5000  14.7500  36.5000 Du        
  12159 ****         6.5000  14.7500  36.7500 Du        
  12160 ****         6.5000  14.7500  38.2500 Du        
  12161 ****         6.5000  14.7500  38.5000 Du        
  12162 ****         6.5000  14.7500  38.7500 Du        
  12163 ****         6.5000  14.7500  39.0000 Du        
  12164 ****         6.5000  14.7500  39.2500 Du        
  12165 ****         6.5000  14.7500  39.5000 Du        
  12166 ****         6.5000  14.7500  39.7500 Du        
  12167 ****         6.5000  14.7500  40.0000 Du        
  12168 ****         6.5000  14.7500  40.2500 Du        
  12169 ****         6.5000  14.7500  40.5000 Du        
  12170 ****         6.5000  14.7500  40.7500 Du        
  12171 ****         6.5000  14.7500  41.0000 Du        
  12172 ****         6.5000  14.7500  41.2500 Du        
  12173 ****         6.5000  14.7500  41.5000 Du        
  12174 ****         6.5000  14.7500  41.7500 Du        
  12175 ****         6.5000  14.7500  42.0000 Du        
  12176 ****         6.5000  14.7500  42.2500 Du        
  12177 ****         6.5000  14.7500  42.5000 Du        
  12178 ****         6.5000  14.7500  42.7500 Du        
  12179 ****         6.5000  14.7500  43.0000 Du        
  12180 ****         6.5000  14.7500  43.2500 Du        
  12181 ****         6.5000  14.7500  43.5000 Du        
  12182 ****         6.5000  15.0000  35.5000 Du        
  12183 ****         6.5000  15.0000  35.7500 Du        
  12184 ****         6.5000  15.0000  36.0000 Du        
  12185 ****         6.5000  15.0000  36.2500 Du        
  12186 ****         6.5000  15.0000  38.5000 Du        
  12187 ****         6.5000  15.0000  38.7500 Du        
  12188 ****         6.5000  15.0000  39.0000 Du        
  12189 ****         6.5000  15.0000  39.2500 Du        
  12190 ****         6.5000  15.0000  39.5000 Du        
  12191 ****         6.5000  15.0000  39.7500 Du        
  12192 ****         6.5000  15.0000  40.0000 Du        
  12193 ****         6.5000  15.0000  40.2500 Du        
  12194 ****         6.5000  15.0000  40.5000 Du        
  12195 ****         6.5000  15.0000  40.7500 Du        
  12196 ****         6.5000  15.0000  41.0000 Du        
  12197 ****         6.5000  15.0000  41.2500 Du        
  12198 ****         6.5000  15.0000  41.5000 Du        
  12199 ****         6.5000  15.0000  41.7500 Du        
  12200 ****         6.5000  15.0000  42.0000 Du        
  12201 ****         6.5000  15.0000  42.2500 Du        
  12202 ****         6.5000  15.0000  42.5000 Du        
  12203 ****         6.5000  15.0000  42.7500 Du        
  12204 ****         6.5000  15.0000  43.0000 Du        
  12205 ****         6.5000  15.0000  43.2500 Du        
  12206 ****         6.5000  15.0000  43.5000 Du        
  12207 ****         6.5000  15.2500  38.7500 Du        
  12208 ****         6.5000  15.2500  39.0000 Du        
  12209 ****         6.5000  15.2500  39.2500 Du        
  12210 ****         6.5000  15.2500  39.5000 Du        
  12211 ****         6.5000  15.2500  39.7500 Du        
  12212 ****         6.5000  15.2500  40.0000 Du        
  12213 ****         6.5000  15.2500  40.2500 Du        
  12214 ****         6.5000  15.2500  40.5000 Du        
  12215 ****         6.5000  15.2500  40.7500 Du        
  12216 ****         6.5000  15.2500  41.0000 Du        
  12217 ****         6.5000  15.2500  41.2500 Du        
  12218 ****         6.5000  15.2500  41.5000 Du        
  12219 ****         6.5000  15.2500  41.7500 Du        
  12220 ****         6.5000  15.2500  42.0000 Du        
  12221 ****         6.5000  15.2500  42.2500 Du        
  12222 ****         6.5000  15.2500  42.5000 Du        
  12223 ****         6.5000  15.2500  42.7500 Du        
  12224 ****         6.5000  15.2500  43.0000 Du        
  12225 ****         6.5000  15.2500  43.2500 Du        
  12226 ****         6.5000  15.2500  43.5000 Du        
  12227 ****         6.5000  15.5000  39.2500 Du        
  12228 ****         6.5000  15.5000  39.5000 Du        
  12229 ****         6.5000  15.5000  39.7500 Du        
  12230 ****         6.5000  15.5000  40.0000 Du        
  12231 ****         6.5000  15.5000  40.2500 Du        
  12232 ****         6.5000  15.5000  40.5000 Du        
  12233 ****         6.5000  15.5000  40.7500 Du        
  12234 ****         6.5000  15.5000  41.0000 Du        
  12235 ****         6.5000  15.5000  41.2500 Du        
  12236 ****         6.5000  15.5000  41.5000 Du        
  12237 ****         6.5000  15.5000  41.7500 Du        
  12238 ****         6.5000  15.5000  42.0000 Du        
  12239 ****         6.5000  15.5000  42.2500 Du        
  12240 ****         6.5000  15.5000  42.5000 Du        
  12241 ****         6.5000  15.5000  42.7500 Du        
  12242 ****         6.5000  15.5000  43.0000 Du        
  12243 ****         6.5000  15.5000  43.2500 Du        
  12244 ****         6.5000  15.5000  43.5000 Du        
  12245 ****         6.5000  15.7500  39.5000 Du        
  12246 ****         6.5000  15.7500  39.7500 Du        
  12247 ****         6.5000  15.7500  40.0000 Du        
  12248 ****         6.5000  15.7500  40.2500 Du        
  12249 ****         6.5000  15.7500  40.5000 Du        
  12250 ****         6.5000  15.7500  40.7500 Du        
  12251 ****         6.5000  15.7500  41.0000 Du        
  12252 ****         6.5000  15.7500  41.2500 Du        
  12253 ****         6.5000  15.7500  41.5000 Du        
  12254 ****         6.5000  15.7500  41.7500 Du        
  12255 ****         6.5000  15.7500  42.0000 Du        
  12256 ****         6.5000  15.7500  42.2500 Du        
  12257 ****         6.5000  15.7500  42.5000 Du        
  12258 ****         6.5000  15.7500  42.7500 Du        
  12259 ****         6.5000  15.7500  43.0000 Du        
  12260 ****         6.5000  15.7500  43.2500 Du        
  12261 ****         6.5000  15.7500  43.5000 Du        
  12262 ****         6.5000  16.0000  39.7500 Du        
  12263 ****         6.5000  16.0000  40.0000 Du        
  12264 ****         6.5000  16.0000  40.2500 Du        
  12265 ****         6.5000  16.0000  40.5000 Du        
  12266 ****         6.5000  16.0000  40.7500 Du        
  12267 ****         6.5000  16.0000  41.0000 Du        
  12268 ****         6.5000  16.0000  41.2500 Du        
  12269 ****         6.5000  16.0000  41.5000 Du        
  12270 ****         6.5000  16.0000  41.7500 Du        
  12271 ****         6.5000  16.0000  42.0000 Du        
  12272 ****         6.5000  16.0000  42.2500 Du        
  12273 ****         6.5000  16.0000  42.5000 Du        
  12274 ****         6.5000  16.0000  42.7500 Du        
  12275 ****         6.5000  16.0000  43.0000 Du        
  12276 ****         6.5000  16.0000  43.2500 Du        
  12277 ****         6.5000  16.0000  43.5000 Du        
  12278 ****         6.5000  16.2500  39.7500 Du        
  12279 ****         6.5000  16.2500  40.0000 Du        
  12280 ****         6.5000  16.2500  40.2500 Du        
  12281 ****         6.5000  16.2500  40.5000 Du        
  12282 ****         6.5000  16.2500  40.7500 Du        
  12283 ****         6.5000  16.2500  41.0000 Du        
  12284 ****         6.5000  16.2500  41.2500 Du        
  12285 ****         6.5000  16.2500  41.5000 Du        
  12286 ****         6.5000  16.2500  41.7500 Du        
  12287 ****         6.5000  16.2500  42.0000 Du        
  12288 ****         6.5000  16.2500  42.2500 Du        
  12289 ****         6.5000  16.2500  42.5000 Du        
  12290 ****         6.5000  16.2500  42.7500 Du        
  12291 ****         6.5000  16.2500  43.0000 Du        
  12292 ****         6.5000  16.2500  43.2500 Du        
  12293 ****         6.5000  16.2500  43.5000 Du        
  12294 ****         6.5000  16.5000  40.0000 Du        
  12295 ****         6.5000  16.5000  40.2500 Du        
  12296 ****         6.5000  16.5000  40.5000 Du        
  12297 ****         6.5000  16.5000  40.7500 Du        
  12298 ****         6.5000  16.5000  41.0000 Du        
  12299 ****         6.5000  16.5000  41.2500 Du        
  12300 ****         6.5000  16.5000  41.5000 Du        
  12301 ****         6.5000  16.5000  41.7500 Du        
  12302 ****         6.5000  16.5000  42.0000 Du        
  12303 ****         6.5000  16.5000  42.2500 Du        
  12304 ****         6.5000  16.5000  42.5000 Du        
  12305 ****         6.5000  16.5000  42.7500 Du        
  12306 ****         6.5000  16.5000  43.0000 Du        
  12307 ****         6.5000  16.5000  43.2500 Du        
  12308 ****         6.5000  16.5000  43.5000 Du        
  12309 ****         6.5000  16.7500  39.7500 Du        
  12310 ****         6.5000  16.7500  40.0000 Du        
  12311 ****         6.5000  16.7500  40.2500 Du        
  12312 ****         6.5000  16.7500  40.5000 Du        
  12313 ****         6.5000  16.7500  40.7500 Du        
  12314 ****         6.5000  16.7500  41.0000 Du        
  12315 ****         6.5000  16.7500  41.2500 Du        
  12316 ****         6.5000  16.7500  41.5000 Du        
  12317 ****         6.5000  16.7500  41.7500 Du        
  12318 ****         6.5000  16.7500  42.0000 Du        
  12319 ****         6.5000  16.7500  42.2500 Du        
  12320 ****         6.5000  16.7500  42.5000 Du        
  12321 ****         6.5000  16.7500  42.7500 Du        
  12322 ****         6.5000  16.7500  43.0000 Du        
  12323 ****         6.5000  16.7500  43.2500 Du        
  12324 ****         6.5000  17.0000  39.7500 Du        
  12325 ****         6.5000  17.0000  40.0000 Du        
  12326 ****         6.5000  17.0000  40.2500 Du        
  12327 ****         6.5000  17.0000  40.5000 Du        
  12328 ****         6.5000  17.0000  40.7500 Du        
  12329 ****         6.5000  17.0000  41.0000 Du        
  12330 ****         6.5000  17.0000  41.2500 Du        
  12331 ****         6.5000  17.0000  41.5000 Du        
  12332 ****         6.5000  17.0000  41.7500 Du        
  12333 ****         6.5000  17.0000  42.0000 Du        
  12334 ****         6.5000  17.0000  42.2500 Du        
  12335 ****         6.5000  17.0000  42.5000 Du        
  12336 ****         6.5000  17.0000  42.7500 Du        
  12337 ****         6.5000  17.2500  39.7500 Du        
  12338 ****         6.5000  17.2500  40.0000 Du        
  12339 ****         6.5000  17.2500  40.2500 Du        
  12340 ****         6.5000  17.2500  40.5000 Du        
  12341 ****         6.5000  17.2500  40.7500 Du        
  12342 ****         6.5000  17.2500  41.0000 Du        
  12343 ****         6.5000  17.2500  41.2500 Du        
  12344 ****         6.5000  17.2500  41.5000 Du        
  12345 ****         6.5000  17.2500  41.7500 Du        
  12346 ****         6.5000  17.2500  42.0000 Du        
  12347 ****         6.5000  17.2500  42.2500 Du        
  12348 ****         6.5000  17.5000  39.7500 Du        
  12349 ****         6.5000  17.5000  40.0000 Du        
  12350 ****         6.5000  17.5000  40.2500 Du        
  12351 ****         6.5000  17.5000  40.5000 Du        
  12352 ****         6.5000  17.5000  40.7500 Du        
  12353 ****         6.5000  17.5000  41.0000 Du        
  12354 ****         6.5000  17.5000  41.2500 Du        
  12355 ****         6.5000  17.5000  41.5000 Du        
  12356 ****         6.5000  17.5000  41.7500 Du        
  12357 ****         6.5000  17.5000  42.0000 Du        
  12358 ****         6.5000  17.7500  35.0000 Du        
  12359 ****         6.5000  17.7500  35.2500 Du        
  12360 ****         6.5000  17.7500  35.5000 Du        
  12361 ****         6.5000  17.7500  39.7500 Du        
  12362 ****         6.5000  17.7500  40.0000 Du        
  12363 ****         6.5000  17.7500  40.2500 Du        
  12364 ****         6.5000  17.7500  40.5000 Du        
  12365 ****         6.5000  17.7500  40.7500 Du        
  12366 ****         6.5000  17.7500  41.0000 Du        
  12367 ****         6.5000  17.7500  41.2500 Du        
  12368 ****         6.5000  17.7500  41.5000 Du        
  12369 ****         6.5000  17.7500  41.7500 Du        
  12370 ****         6.5000  18.0000  35.0000 Du        
  12371 ****         6.5000  18.0000  35.2500 Du        
  12372 ****         6.5000  18.0000  35.5000 Du        
  12373 ****         6.5000  18.0000  35.7500 Du        
  12374 ****         6.5000  18.0000  39.7500 Du        
  12375 ****         6.5000  18.0000  40.0000 Du        
  12376 ****         6.5000  18.0000  40.2500 Du        
  12377 ****         6.5000  18.0000  40.5000 Du        
  12378 ****         6.5000  18.0000  40.7500 Du        
  12379 ****         6.5000  18.0000  41.0000 Du        
  12380 ****         6.5000  18.0000  41.2500 Du        
  12381 ****         6.5000  18.0000  41.5000 Du        
  12382 ****         6.5000  18.0000  41.7500 Du        
  12383 ****         6.5000  18.2500  34.7500 Du        
  12384 ****         6.5000  18.2500  35.0000 Du        
  12385 ****         6.5000  18.2500  35.2500 Du        
  12386 ****         6.5000  18.2500  35.5000 Du        
  12387 ****         6.5000  18.2500  35.7500 Du        
  12388 ****         6.5000  18.2500  39.7500 Du        
  12389 ****         6.5000  18.2500  40.0000 Du        
  12390 ****         6.5000  18.2500  40.2500 Du        
  12391 ****         6.5000  18.2500  40.5000 Du        
  12392 ****         6.5000  18.2500  40.7500 Du        
  12393 ****         6.5000  18.2500  41.0000 Du        
  12394 ****         6.5000  18.2500  41.2500 Du        
  12395 ****         6.5000  18.2500  41.5000 Du        
  12396 ****         6.5000  18.5000  34.0000 Du        
  12397 ****         6.5000  18.5000  34.2500 Du        
  12398 ****         6.5000  18.5000  34.5000 Du        
  12399 ****         6.5000  18.5000  34.7500 Du        
  12400 ****         6.5000  18.5000  35.0000 Du        
  12401 ****         6.5000  18.5000  35.2500 Du        
  12402 ****         6.5000  18.5000  35.5000 Du        
  12403 ****         6.5000  18.5000  39.7500 Du        
  12404 ****         6.5000  18.5000  40.0000 Du        
  12405 ****         6.5000  18.5000  40.2500 Du        
  12406 ****         6.5000  18.5000  40.5000 Du        
  12407 ****         6.5000  18.5000  40.7500 Du        
  12408 ****         6.5000  18.5000  41.0000 Du        
  12409 ****         6.5000  18.5000  41.2500 Du        
  12410 ****         6.5000  18.5000  41.5000 Du        
  12411 ****         6.5000  18.7500  33.7500 Du        
  12412 ****         6.5000  18.7500  34.0000 Du        
  12413 ****         6.5000  18.7500  34.2500 Du        
  12414 ****         6.5000  18.7500  34.5000 Du        
  12415 ****         6.5000  18.7500  34.7500 Du        
  12416 ****         6.5000  18.7500  35.0000 Du        
  12417 ****         6.5000  18.7500  35.2500 Du        
  12418 ****         6.5000  18.7500  35.5000 Du        
  12419 ****         6.5000  18.7500  40.0000 Du        
  12420 ****         6.5000  18.7500  40.2500 Du        
  12421 ****         6.5000  18.7500  40.5000 Du        
  12422 ****         6.5000  18.7500  40.7500 Du        
  12423 ****         6.5000  18.7500  41.0000 Du        
  12424 ****         6.5000  18.7500  41.2500 Du        
  12425 ****         6.5000  18.7500  41.5000 Du        
  12426 ****         6.5000  19.0000  33.2500 Du        
  12427 ****         6.5000  19.0000  33.5000 Du        
  12428 ****         6.5000  19.0000  33.7500 Du        
  12429 ****         6.5000  19.0000  34.0000 Du        
  12430 ****         6.5000  19.0000  34.2500 Du        
  12431 ****         6.5000  19.0000  34.5000 Du        
  12432 ****         6.5000  19.0000  34.7500 Du        
  12433 ****         6.5000  19.0000  35.0000 Du        
  12434 ****         6.5000  19.0000  35.2500 Du        
  12435 ****         6.5000  19.0000  35.5000 Du        
  12436 ****         6.5000  19.0000  39.7500 Du        
  12437 ****         6.5000  19.0000  40.0000 Du        
  12438 ****         6.5000  19.0000  40.2500 Du        
  12439 ****         6.5000  19.0000  40.5000 Du        
  12440 ****         6.5000  19.0000  40.7500 Du        
  12441 ****         6.5000  19.0000  41.0000 Du        
  12442 ****         6.5000  19.0000  41.2500 Du        
  12443 ****         6.5000  19.0000  41.5000 Du        
  12444 ****         6.5000  19.2500  32.2500 Du        
  12445 ****         6.5000  19.2500  32.5000 Du        
  12446 ****         6.5000  19.2500  32.7500 Du        
  12447 ****         6.5000  19.2500  33.0000 Du        
  12448 ****         6.5000  19.2500  33.2500 Du        
  12449 ****         6.5000  19.2500  33.5000 Du        
  12450 ****         6.5000  19.2500  33.7500 Du        
  12451 ****         6.5000  19.2500  34.0000 Du        
  12452 ****         6.5000  19.2500  34.2500 Du        
  12453 ****         6.5000  19.2500  34.5000 Du        
  12454 ****         6.5000  19.2500  34.7500 Du        
  12455 ****         6.5000  19.2500  35.0000 Du        
  12456 ****         6.5000  19.2500  35.2500 Du        
  12457 ****         6.5000  19.2500  35.5000 Du        
  12458 ****         6.5000  19.2500  39.7500 Du        
  12459 ****         6.5000  19.2500  40.0000 Du        
  12460 ****         6.5000  19.2500  40.2500 Du        
  12461 ****         6.5000  19.2500  40.5000 Du        
  12462 ****         6.5000  19.2500  40.7500 Du        
  12463 ****         6.5000  19.2500  41.0000 Du        
  12464 ****         6.5000  19.2500  41.2500 Du        
  12465 ****         6.5000  19.5000  31.7500 Du        
  12466 ****         6.5000  19.5000  32.0000 Du        
  12467 ****         6.5000  19.5000  32.2500 Du        
  12468 ****         6.5000  19.5000  32.5000 Du        
  12469 ****         6.5000  19.5000  32.7500 Du        
  12470 ****         6.5000  19.5000  33.0000 Du        
  12471 ****         6.5000  19.5000  33.2500 Du        
  12472 ****         6.5000  19.5000  33.5000 Du        
  12473 ****         6.5000  19.5000  33.7500 Du        
  12474 ****         6.5000  19.5000  34.0000 Du        
  12475 ****         6.5000  19.5000  34.2500 Du        
  12476 ****         6.5000  19.5000  34.5000 Du        
  12477 ****         6.5000  19.5000  34.7500 Du        
  12478 ****         6.5000  19.5000  40.0000 Du        
  12479 ****         6.5000  19.5000  40.2500 Du        
  12480 ****         6.5000  19.5000  40.5000 Du        
  12481 ****         6.5000  19.5000  40.7500 Du        
  12482 ****         6.5000  19.5000  41.0000 Du        
  12483 ****         6.5000  19.7500  31.7500 Du        
  12484 ****         6.5000  19.7500  32.0000 Du        
  12485 ****         6.5000  19.7500  32.2500 Du        
  12486 ****         6.5000  19.7500  32.5000 Du        
  12487 ****         6.5000  19.7500  32.7500 Du        
  12488 ****         6.5000  19.7500  33.0000 Du        
  12489 ****         6.5000  19.7500  33.2500 Du        
  12490 ****         6.5000  19.7500  33.5000 Du        
  12491 ****         6.5000  19.7500  33.7500 Du        
  12492 ****         6.5000  19.7500  34.0000 Du        
  12493 ****         6.5000  19.7500  34.2500 Du        
  12494 ****         6.5000  19.7500  34.5000 Du        
  12495 ****         6.5000  19.7500  34.7500 Du        
  12496 ****         6.5000  19.7500  40.0000 Du        
  12497 ****         6.5000  19.7500  40.5000 Du        
  12498 ****         6.5000  19.7500  40.7500 Du        
  12499 ****         6.5000  20.0000  32.0000 Du        
  12500 ****         6.5000  20.0000  32.2500 Du        
  12501 ****         6.5000  20.0000  32.5000 Du        
  12502 ****         6.5000  20.0000  32.7500 Du        
  12503 ****         6.5000  20.0000  33.0000 Du        
  12504 ****         6.5000  20.0000  33.2500 Du        
  12505 ****         6.5000  20.0000  33.5000 Du        
  12506 ****         6.5000  20.0000  33.7500 Du        
  12507 ****         6.5000  20.0000  34.0000 Du        
  12508 ****         6.5000  20.0000  34.2500 Du        
  12509 ****         6.5000  20.0000  34.5000 Du        
  12510 ****         6.5000  20.0000  34.7500 Du        
  12511 ****         6.5000  20.0000  35.0000 Du        
  12512 ****         6.5000  20.2500  32.0000 Du        
  12513 ****         6.5000  20.2500  32.2500 Du        
  12514 ****         6.5000  20.2500  32.5000 Du        
  12515 ****         6.5000  20.2500  32.7500 Du        
  12516 ****         6.5000  20.2500  33.0000 Du        
  12517 ****         6.5000  20.2500  33.2500 Du        
  12518 ****         6.5000  20.2500  33.5000 Du        
  12519 ****         6.5000  20.2500  33.7500 Du        
  12520 ****         6.5000  20.2500  34.0000 Du        
  12521 ****         6.5000  20.2500  34.2500 Du        
  12522 ****         6.5000  20.2500  34.5000 Du        
  12523 ****         6.5000  20.2500  34.7500 Du        
  12524 ****         6.5000  20.5000  32.5000 Du        
  12525 ****         6.5000  20.5000  32.7500 Du        
  12526 ****         6.5000  20.5000  33.0000 Du        
  12527 ****         6.5000  20.5000  33.2500 Du        
  12528 ****         6.5000  20.5000  33.5000 Du        
  12529 ****         6.5000  20.5000  33.7500 Du        
  12530 ****         6.5000  20.5000  34.0000 Du        
  12531 ****         6.5000  20.5000  34.2500 Du        
  12532 ****         6.5000  20.5000  34.5000 Du        
  12533 ****         6.5000  20.5000  34.7500 Du        
  12534 ****         6.5000  20.7500  32.7500 Du        
  12535 ****         6.5000  20.7500  33.0000 Du        
  12536 ****         6.5000  20.7500  33.2500 Du        
  12537 ****         6.5000  20.7500  33.5000 Du        
  12538 ****         6.5000  20.7500  33.7500 Du        
  12539 ****         6.5000  20.7500  34.0000 Du        
  12540 ****         6.5000  20.7500  34.2500 Du        
  12541 ****         6.5000  20.7500  34.5000 Du        
  12542 ****         6.5000  21.0000  33.2500 Du        
  12543 ****         6.5000  21.0000  33.5000 Du        
  12544 ****         6.5000  21.0000  33.7500 Du        
  12545 ****         6.5000  21.0000  34.0000 Du        
  12546 ****         6.5000  21.0000  34.2500 Du        
  12547 ****         6.7500   9.7500  30.7500 Du        
  12548 ****         6.7500   9.7500  31.0000 Du        
  12549 ****         6.7500   9.7500  31.2500 Du        
  12550 ****         6.7500  10.0000  30.7500 Du        
  12551 ****         6.7500  10.0000  31.0000 Du        
  12552 ****         6.7500  10.0000  31.2500 Du        
  12553 ****         6.7500  10.0000  31.5000 Du        
  12554 ****         6.7500  10.2500  30.7500 Du        
  12555 ****         6.7500  10.2500  31.0000 Du        
  12556 ****         6.7500  10.2500  31.2500 Du        
  12557 ****         6.7500  10.2500  31.5000 Du        
  12558 ****         6.7500  10.2500  31.7500 Du        
  12559 ****         6.7500  10.2500  32.0000 Du        
  12560 ****         6.7500  10.2500  32.2500 Du        
  12561 ****         6.7500  10.5000  31.0000 Du        
  12562 ****         6.7500  10.5000  31.2500 Du        
  12563 ****         6.7500  10.5000  31.5000 Du        
  12564 ****         6.7500  10.5000  31.7500 Du        
  12565 ****         6.7500  10.5000  32.0000 Du        
  12566 ****         6.7500  10.5000  32.2500 Du        
  12567 ****         6.7500  10.5000  32.5000 Du        
  12568 ****         6.7500  10.5000  32.7500 Du        
  12569 ****         6.7500  10.7500  31.0000 Du        
  12570 ****         6.7500  10.7500  31.2500 Du        
  12571 ****         6.7500  10.7500  31.5000 Du        
  12572 ****         6.7500  10.7500  31.7500 Du        
  12573 ****         6.7500  10.7500  32.0000 Du        
  12574 ****         6.7500  10.7500  32.2500 Du        
  12575 ****         6.7500  10.7500  32.5000 Du        
  12576 ****         6.7500  10.7500  32.7500 Du        
  12577 ****         6.7500  10.7500  33.0000 Du        
  12578 ****         6.7500  11.0000  31.2500 Du        
  12579 ****         6.7500  11.0000  31.5000 Du        
  12580 ****         6.7500  11.0000  31.7500 Du        
  12581 ****         6.7500  11.0000  32.0000 Du        
  12582 ****         6.7500  11.0000  32.2500 Du        
  12583 ****         6.7500  11.0000  32.5000 Du        
  12584 ****         6.7500  11.0000  32.7500 Du        
  12585 ****         6.7500  11.0000  33.0000 Du        
  12586 ****         6.7500  11.2500  31.5000 Du        
  12587 ****         6.7500  11.2500  31.7500 Du        
  12588 ****         6.7500  11.2500  32.0000 Du        
  12589 ****         6.7500  11.2500  32.2500 Du        
  12590 ****         6.7500  11.2500  32.5000 Du        
  12591 ****         6.7500  11.2500  32.7500 Du        
  12592 ****         6.7500  11.2500  33.0000 Du        
  12593 ****         6.7500  11.2500  33.2500 Du        
  12594 ****         6.7500  11.5000  32.0000 Du        
  12595 ****         6.7500  11.5000  32.2500 Du        
  12596 ****         6.7500  11.5000  32.5000 Du        
  12597 ****         6.7500  11.5000  32.7500 Du        
  12598 ****         6.7500  11.5000  33.0000 Du        
  12599 ****         6.7500  11.5000  33.2500 Du        
  12600 ****         6.7500  11.7500  32.7500 Du        
  12601 ****         6.7500  11.7500  33.0000 Du        
  12602 ****         6.7500  11.7500  33.2500 Du        
  12603 ****         6.7500  11.7500  33.5000 Du        
  12604 ****         6.7500  12.0000  33.0000 Du        
  12605 ****         6.7500  12.0000  33.2500 Du        
  12606 ****         6.7500  12.0000  33.5000 Du        
  12607 ****         6.7500  12.0000  33.7500 Du        
  12608 ****         6.7500  12.2500  33.2500 Du        
  12609 ****         6.7500  12.2500  33.5000 Du        
  12610 ****         6.7500  12.2500  33.7500 Du        
  12611 ****         6.7500  12.2500  34.0000 Du        
  12612 ****         6.7500  12.5000  33.5000 Du        
  12613 ****         6.7500  12.5000  33.7500 Du        
  12614 ****         6.7500  12.5000  34.0000 Du        
  12615 ****         6.7500  12.5000  34.2500 Du        
  12616 ****         6.7500  12.7500  33.7500 Du        
  12617 ****         6.7500  12.7500  34.0000 Du        
  12618 ****         6.7500  12.7500  34.2500 Du        
  12619 ****         6.7500  12.7500  34.5000 Du        
  12620 ****         6.7500  13.0000  33.7500 Du        
  12621 ****         6.7500  13.0000  34.0000 Du        
  12622 ****         6.7500  13.0000  34.2500 Du        
  12623 ****         6.7500  13.0000  34.5000 Du        
  12624 ****         6.7500  13.0000  34.7500 Du        
  12625 ****         6.7500  13.0000  35.0000 Du        
  12626 ****         6.7500  13.2500  34.0000 Du        
  12627 ****         6.7500  13.2500  34.2500 Du        
  12628 ****         6.7500  13.2500  34.5000 Du        
  12629 ****         6.7500  13.2500  34.7500 Du        
  12630 ****         6.7500  13.2500  35.0000 Du        
  12631 ****         6.7500  13.2500  35.2500 Du        
  12632 ****         6.7500  13.2500  41.0000 Du        
  12633 ****         6.7500  13.2500  41.2500 Du        
  12634 ****         6.7500  13.2500  41.5000 Du        
  12635 ****         6.7500  13.2500  41.7500 Du        
  12636 ****         6.7500  13.2500  42.0000 Du        
  12637 ****         6.7500  13.5000  34.5000 Du        
  12638 ****         6.7500  13.5000  34.7500 Du        
  12639 ****         6.7500  13.5000  35.0000 Du        
  12640 ****         6.7500  13.5000  35.2500 Du        
  12641 ****         6.7500  13.5000  35.5000 Du        
  12642 ****         6.7500  13.5000  40.5000 Du        
  12643 ****         6.7500  13.5000  40.7500 Du        
  12644 ****         6.7500  13.5000  41.0000 Du        
  12645 ****         6.7500  13.5000  41.2500 Du        
  12646 ****         6.7500  13.5000  41.5000 Du        
  12647 ****         6.7500  13.5000  41.7500 Du        
  12648 ****         6.7500  13.5000  42.0000 Du        
  12649 ****         6.7500  13.5000  42.2500 Du        
  12650 ****         6.7500  13.7500  34.7500 Du        
  12651 ****         6.7500  13.7500  35.0000 Du        
  12652 ****         6.7500  13.7500  35.2500 Du        
  12653 ****         6.7500  13.7500  35.5000 Du        
  12654 ****         6.7500  13.7500  35.7500 Du        
  12655 ****         6.7500  13.7500  39.7500 Du        
  12656 ****         6.7500  13.7500  40.0000 Du        
  12657 ****         6.7500  13.7500  40.2500 Du        
  12658 ****         6.7500  13.7500  40.5000 Du        
  12659 ****         6.7500  13.7500  40.7500 Du        
  12660 ****         6.7500  13.7500  41.0000 Du        
  12661 ****         6.7500  13.7500  41.2500 Du        
  12662 ****         6.7500  13.7500  41.5000 Du        
  12663 ****         6.7500  13.7500  41.7500 Du        
  12664 ****         6.7500  13.7500  42.0000 Du        
  12665 ****         6.7500  13.7500  42.2500 Du        
  12666 ****         6.7500  13.7500  42.5000 Du        
  12667 ****         6.7500  13.7500  42.7500 Du        
  12668 ****         6.7500  14.0000  35.0000 Du        
  12669 ****         6.7500  14.0000  35.2500 Du        
  12670 ****         6.7500  14.0000  35.5000 Du        
  12671 ****         6.7500  14.0000  35.7500 Du        
  12672 ****         6.7500  14.0000  36.0000 Du        
  12673 ****         6.7500  14.0000  38.5000 Du        
  12674 ****         6.7500  14.0000  38.7500 Du        
  12675 ****         6.7500  14.0000  39.0000 Du        
  12676 ****         6.7500  14.0000  39.2500 Du        
  12677 ****         6.7500  14.0000  39.5000 Du        
  12678 ****         6.7500  14.0000  39.7500 Du        
  12679 ****         6.7500  14.0000  40.0000 Du        
  12680 ****         6.7500  14.0000  40.2500 Du        
  12681 ****         6.7500  14.0000  40.5000 Du        
  12682 ****         6.7500  14.0000  40.7500 Du        
  12683 ****         6.7500  14.0000  41.0000 Du        
  12684 ****         6.7500  14.0000  41.2500 Du        
  12685 ****         6.7500  14.0000  41.5000 Du        
  12686 ****         6.7500  14.0000  41.7500 Du        
  12687 ****         6.7500  14.0000  42.0000 Du        
  12688 ****         6.7500  14.0000  42.2500 Du        
  12689 ****         6.7500  14.0000  42.5000 Du        
  12690 ****         6.7500  14.0000  42.7500 Du        
  12691 ****         6.7500  14.0000  43.0000 Du        
  12692 ****         6.7500  14.2500  35.2500 Du        
  12693 ****         6.7500  14.2500  35.5000 Du        
  12694 ****         6.7500  14.2500  35.7500 Du        
  12695 ****         6.7500  14.2500  36.0000 Du        
  12696 ****         6.7500  14.2500  36.2500 Du        
  12697 ****         6.7500  14.2500  38.0000 Du        
  12698 ****         6.7500  14.2500  38.2500 Du        
  12699 ****         6.7500  14.2500  38.5000 Du        
  12700 ****         6.7500  14.2500  38.7500 Du        
  12701 ****         6.7500  14.2500  39.0000 Du        
  12702 ****         6.7500  14.2500  39.2500 Du        
  12703 ****         6.7500  14.2500  39.5000 Du        
  12704 ****         6.7500  14.2500  39.7500 Du        
  12705 ****         6.7500  14.2500  40.0000 Du        
  12706 ****         6.7500  14.2500  40.2500 Du        
  12707 ****         6.7500  14.2500  40.5000 Du        
  12708 ****         6.7500  14.2500  40.7500 Du        
  12709 ****         6.7500  14.2500  41.0000 Du        
  12710 ****         6.7500  14.2500  41.2500 Du        
  12711 ****         6.7500  14.2500  41.5000 Du        
  12712 ****         6.7500  14.2500  41.7500 Du        
  12713 ****         6.7500  14.2500  42.0000 Du        
  12714 ****         6.7500  14.2500  42.2500 Du        
  12715 ****         6.7500  14.2500  42.5000 Du        
  12716 ****         6.7500  14.2500  42.7500 Du        
  12717 ****         6.7500  14.2500  43.0000 Du        
  12718 ****         6.7500  14.2500  43.2500 Du        
  12719 ****         6.7500  14.5000  35.5000 Du        
  12720 ****         6.7500  14.5000  35.7500 Du        
  12721 ****         6.7500  14.5000  36.0000 Du        
  12722 ****         6.7500  14.5000  36.2500 Du        
  12723 ****         6.7500  14.5000  36.5000 Du        
  12724 ****         6.7500  14.5000  36.7500 Du        
  12725 ****         6.7500  14.5000  37.0000 Du        
  12726 ****         6.7500  14.5000  37.7500 Du        
  12727 ****         6.7500  14.5000  38.0000 Du        
  12728 ****         6.7500  14.5000  38.2500 Du        
  12729 ****         6.7500  14.5000  38.5000 Du        
  12730 ****         6.7500  14.5000  38.7500 Du        
  12731 ****         6.7500  14.5000  39.0000 Du        
  12732 ****         6.7500  14.5000  39.2500 Du        
  12733 ****         6.7500  14.5000  39.5000 Du        
  12734 ****         6.7500  14.5000  39.7500 Du        
  12735 ****         6.7500  14.5000  40.0000 Du        
  12736 ****         6.7500  14.5000  40.2500 Du        
  12737 ****         6.7500  14.5000  40.5000 Du        
  12738 ****         6.7500  14.5000  40.7500 Du        
  12739 ****         6.7500  14.5000  41.0000 Du        
  12740 ****         6.7500  14.5000  41.2500 Du        
  12741 ****         6.7500  14.5000  41.5000 Du        
  12742 ****         6.7500  14.5000  41.7500 Du        
  12743 ****         6.7500  14.5000  42.0000 Du        
  12744 ****         6.7500  14.5000  42.2500 Du        
  12745 ****         6.7500  14.5000  42.5000 Du        
  12746 ****         6.7500  14.5000  42.7500 Du        
  12747 ****         6.7500  14.5000  43.0000 Du        
  12748 ****         6.7500  14.5000  43.2500 Du        
  12749 ****         6.7500  14.5000  43.5000 Du        
  12750 ****         6.7500  14.7500  35.5000 Du        
  12751 ****         6.7500  14.7500  35.7500 Du        
  12752 ****         6.7500  14.7500  36.0000 Du        
  12753 ****         6.7500  14.7500  36.2500 Du        
  12754 ****         6.7500  14.7500  36.5000 Du        
  12755 ****         6.7500  14.7500  36.7500 Du        
  12756 ****         6.7500  14.7500  37.0000 Du        
  12757 ****         6.7500  14.7500  37.2500 Du        
  12758 ****         6.7500  14.7500  37.5000 Du        
  12759 ****         6.7500  14.7500  37.7500 Du        
  12760 ****         6.7500  14.7500  38.0000 Du        
  12761 ****         6.7500  14.7500  38.2500 Du        
  12762 ****         6.7500  14.7500  38.5000 Du        
  12763 ****         6.7500  14.7500  38.7500 Du        
  12764 ****         6.7500  14.7500  39.0000 Du        
  12765 ****         6.7500  14.7500  39.2500 Du        
  12766 ****         6.7500  14.7500  39.5000 Du        
  12767 ****         6.7500  14.7500  39.7500 Du        
  12768 ****         6.7500  14.7500  40.0000 Du        
  12769 ****         6.7500  14.7500  40.2500 Du        
  12770 ****         6.7500  14.7500  40.5000 Du        
  12771 ****         6.7500  14.7500  40.7500 Du        
  12772 ****         6.7500  14.7500  41.0000 Du        
  12773 ****         6.7500  14.7500  41.2500 Du        
  12774 ****         6.7500  14.7500  41.5000 Du        
  12775 ****         6.7500  14.7500  41.7500 Du        
  12776 ****         6.7500  14.7500  42.0000 Du        
  12777 ****         6.7500  14.7500  42.2500 Du        
  12778 ****         6.7500  14.7500  42.5000 Du        
  12779 ****         6.7500  14.7500  42.7500 Du        
  12780 ****         6.7500  14.7500  43.0000 Du        
  12781 ****         6.7500  14.7500  43.2500 Du        
  12782 ****         6.7500  14.7500  43.5000 Du        
  12783 ****         6.7500  15.0000  35.7500 Du        
  12784 ****         6.7500  15.0000  36.0000 Du        
  12785 ****         6.7500  15.0000  36.2500 Du        
  12786 ****         6.7500  15.0000  36.5000 Du        
  12787 ****         6.7500  15.0000  36.7500 Du        
  12788 ****         6.7500  15.0000  37.0000 Du        
  12789 ****         6.7500  15.0000  37.2500 Du        
  12790 ****         6.7500  15.0000  37.5000 Du        
  12791 ****         6.7500  15.0000  37.7500 Du        
  12792 ****         6.7500  15.0000  38.0000 Du        
  12793 ****         6.7500  15.0000  38.2500 Du        
  12794 ****         6.7500  15.0000  38.5000 Du        
  12795 ****         6.7500  15.0000  38.7500 Du        
  12796 ****         6.7500  15.0000  39.0000 Du        
  12797 ****         6.7500  15.0000  39.2500 Du        
  12798 ****         6.7500  15.0000  39.5000 Du        
  12799 ****         6.7500  15.0000  39.7500 Du        
  12800 ****         6.7500  15.0000  40.0000 Du        
  12801 ****         6.7500  15.0000  40.2500 Du        
  12802 ****         6.7500  15.0000  40.5000 Du        
  12803 ****         6.7500  15.0000  40.7500 Du        
  12804 ****         6.7500  15.0000  41.0000 Du        
  12805 ****         6.7500  15.0000  41.2500 Du        
  12806 ****         6.7500  15.0000  41.5000 Du        
  12807 ****         6.7500  15.0000  41.7500 Du        
  12808 ****         6.7500  15.0000  42.0000 Du        
  12809 ****         6.7500  15.0000  42.2500 Du        
  12810 ****         6.7500  15.0000  42.5000 Du        
  12811 ****         6.7500  15.0000  42.7500 Du        
  12812 ****         6.7500  15.0000  43.0000 Du        
  12813 ****         6.7500  15.0000  43.2500 Du        
  12814 ****         6.7500  15.0000  43.5000 Du        
  12815 ****         6.7500  15.0000  43.7500 Du        
  12816 ****         6.7500  15.2500  35.7500 Du        
  12817 ****         6.7500  15.2500  36.0000 Du        
  12818 ****         6.7500  15.2500  36.2500 Du        
  12819 ****         6.7500  15.2500  36.5000 Du        
  12820 ****         6.7500  15.2500  36.7500 Du        
  12821 ****         6.7500  15.2500  38.2500 Du        
  12822 ****         6.7500  15.2500  38.5000 Du        
  12823 ****         6.7500  15.2500  38.7500 Du        
  12824 ****         6.7500  15.2500  39.0000 Du        
  12825 ****         6.7500  15.2500  39.2500 Du        
  12826 ****         6.7500  15.2500  39.5000 Du        
  12827 ****         6.7500  15.2500  39.7500 Du        
  12828 ****         6.7500  15.2500  40.0000 Du        
  12829 ****         6.7500  15.2500  40.2500 Du        
  12830 ****         6.7500  15.2500  40.5000 Du        
  12831 ****         6.7500  15.2500  40.7500 Du        
  12832 ****         6.7500  15.2500  41.0000 Du        
  12833 ****         6.7500  15.2500  41.2500 Du        
  12834 ****         6.7500  15.2500  41.5000 Du        
  12835 ****         6.7500  15.2500  41.7500 Du        
  12836 ****         6.7500  15.2500  42.0000 Du        
  12837 ****         6.7500  15.2500  42.2500 Du        
  12838 ****         6.7500  15.2500  42.5000 Du        
  12839 ****         6.7500  15.2500  42.7500 Du        
  12840 ****         6.7500  15.2500  43.0000 Du        
  12841 ****         6.7500  15.2500  43.2500 Du        
  12842 ****         6.7500  15.2500  43.5000 Du        
  12843 ****         6.7500  15.2500  43.7500 Du        
  12844 ****         6.7500  15.5000  38.5000 Du        
  12845 ****         6.7500  15.5000  38.7500 Du        
  12846 ****         6.7500  15.5000  39.0000 Du        
  12847 ****         6.7500  15.5000  39.2500 Du        
  12848 ****         6.7500  15.5000  39.5000 Du        
  12849 ****         6.7500  15.5000  39.7500 Du        
  12850 ****         6.7500  15.5000  40.0000 Du        
  12851 ****         6.7500  15.5000  40.2500 Du        
  12852 ****         6.7500  15.5000  40.5000 Du        
  12853 ****         6.7500  15.5000  40.7500 Du        
  12854 ****         6.7500  15.5000  41.0000 Du        
  12855 ****         6.7500  15.5000  41.2500 Du        
  12856 ****         6.7500  15.5000  41.5000 Du        
  12857 ****         6.7500  15.5000  41.7500 Du        
  12858 ****         6.7500  15.5000  42.0000 Du        
  12859 ****         6.7500  15.5000  42.2500 Du        
  12860 ****         6.7500  15.5000  42.5000 Du        
  12861 ****         6.7500  15.5000  42.7500 Du        
  12862 ****         6.7500  15.5000  43.0000 Du        
  12863 ****         6.7500  15.5000  43.2500 Du        
  12864 ****         6.7500  15.5000  43.5000 Du        
  12865 ****         6.7500  15.5000  43.7500 Du        
  12866 ****         6.7500  15.7500  38.7500 Du        
  12867 ****         6.7500  15.7500  39.0000 Du        
  12868 ****         6.7500  15.7500  39.2500 Du        
  12869 ****         6.7500  15.7500  39.5000 Du        
  12870 ****         6.7500  15.7500  39.7500 Du        
  12871 ****         6.7500  15.7500  40.0000 Du        
  12872 ****         6.7500  15.7500  40.2500 Du        
  12873 ****         6.7500  15.7500  40.5000 Du        
  12874 ****         6.7500  15.7500  40.7500 Du        
  12875 ****         6.7500  15.7500  41.0000 Du        
  12876 ****         6.7500  15.7500  41.2500 Du        
  12877 ****         6.7500  15.7500  41.5000 Du        
  12878 ****         6.7500  15.7500  41.7500 Du        
  12879 ****         6.7500  15.7500  42.0000 Du        
  12880 ****         6.7500  15.7500  42.2500 Du        
  12881 ****         6.7500  15.7500  42.5000 Du        
  12882 ****         6.7500  15.7500  42.7500 Du        
  12883 ****         6.7500  15.7500  43.0000 Du        
  12884 ****         6.7500  15.7500  43.2500 Du        
  12885 ****         6.7500  15.7500  43.5000 Du        
  12886 ****         6.7500  15.7500  43.7500 Du        
  12887 ****         6.7500  16.0000  39.0000 Du        
  12888 ****         6.7500  16.0000  39.2500 Du        
  12889 ****         6.7500  16.0000  39.5000 Du        
  12890 ****         6.7500  16.0000  39.7500 Du        
  12891 ****         6.7500  16.0000  40.0000 Du        
  12892 ****         6.7500  16.0000  40.2500 Du        
  12893 ****         6.7500  16.0000  40.5000 Du        
  12894 ****         6.7500  16.0000  40.7500 Du        
  12895 ****         6.7500  16.0000  41.0000 Du        
  12896 ****         6.7500  16.0000  41.2500 Du        
  12897 ****         6.7500  16.0000  41.5000 Du        
  12898 ****         6.7500  16.0000  41.7500 Du        
  12899 ****         6.7500  16.0000  42.0000 Du        
  12900 ****         6.7500  16.0000  42.2500 Du        
  12901 ****         6.7500  16.0000  42.5000 Du        
  12902 ****         6.7500  16.0000  42.7500 Du        
  12903 ****         6.7500  16.0000  43.0000 Du        
  12904 ****         6.7500  16.0000  43.2500 Du        
  12905 ****         6.7500  16.0000  43.5000 Du        
  12906 ****         6.7500  16.0000  43.7500 Du        
  12907 ****         6.7500  16.2500  39.2500 Du        
  12908 ****         6.7500  16.2500  39.5000 Du        
  12909 ****         6.7500  16.2500  39.7500 Du        
  12910 ****         6.7500  16.2500  40.0000 Du        
  12911 ****         6.7500  16.2500  40.2500 Du        
  12912 ****         6.7500  16.2500  40.5000 Du        
  12913 ****         6.7500  16.2500  40.7500 Du        
  12914 ****         6.7500  16.2500  41.0000 Du        
  12915 ****         6.7500  16.2500  41.2500 Du        
  12916 ****         6.7500  16.2500  41.5000 Du        
  12917 ****         6.7500  16.2500  41.7500 Du        
  12918 ****         6.7500  16.2500  42.0000 Du        
  12919 ****         6.7500  16.2500  42.2500 Du        
  12920 ****         6.7500  16.2500  42.5000 Du        
  12921 ****         6.7500  16.2500  42.7500 Du        
  12922 ****         6.7500  16.2500  43.0000 Du        
  12923 ****         6.7500  16.2500  43.2500 Du        
  12924 ****         6.7500  16.2500  43.5000 Du        
  12925 ****         6.7500  16.5000  39.5000 Du        
  12926 ****         6.7500  16.5000  39.7500 Du        
  12927 ****         6.7500  16.5000  40.0000 Du        
  12928 ****         6.7500  16.5000  40.2500 Du        
  12929 ****         6.7500  16.5000  40.5000 Du        
  12930 ****         6.7500  16.5000  40.7500 Du        
  12931 ****         6.7500  16.5000  41.0000 Du        
  12932 ****         6.7500  16.5000  41.2500 Du        
  12933 ****         6.7500  16.5000  41.5000 Du        
  12934 ****         6.7500  16.5000  41.7500 Du        
  12935 ****         6.7500  16.5000  42.0000 Du        
  12936 ****         6.7500  16.5000  42.2500 Du        
  12937 ****         6.7500  16.5000  42.5000 Du        
  12938 ****         6.7500  16.5000  42.7500 Du        
  12939 ****         6.7500  16.5000  43.0000 Du        
  12940 ****         6.7500  16.5000  43.2500 Du        
  12941 ****         6.7500  16.5000  43.5000 Du        
  12942 ****         6.7500  16.7500  39.5000 Du        
  12943 ****         6.7500  16.7500  39.7500 Du        
  12944 ****         6.7500  16.7500  40.0000 Du        
  12945 ****         6.7500  16.7500  40.2500 Du        
  12946 ****         6.7500  16.7500  40.5000 Du        
  12947 ****         6.7500  16.7500  40.7500 Du        
  12948 ****         6.7500  16.7500  41.0000 Du        
  12949 ****         6.7500  16.7500  41.2500 Du        
  12950 ****         6.7500  16.7500  41.5000 Du        
  12951 ****         6.7500  16.7500  41.7500 Du        
  12952 ****         6.7500  16.7500  42.0000 Du        
  12953 ****         6.7500  16.7500  42.2500 Du        
  12954 ****         6.7500  16.7500  42.5000 Du        
  12955 ****         6.7500  16.7500  42.7500 Du        
  12956 ****         6.7500  16.7500  43.0000 Du        
  12957 ****         6.7500  16.7500  43.2500 Du        
  12958 ****         6.7500  17.0000  39.5000 Du        
  12959 ****         6.7500  17.0000  39.7500 Du        
  12960 ****         6.7500  17.0000  40.0000 Du        
  12961 ****         6.7500  17.0000  40.2500 Du        
  12962 ****         6.7500  17.0000  40.5000 Du        
  12963 ****         6.7500  17.0000  40.7500 Du        
  12964 ****         6.7500  17.0000  41.0000 Du        
  12965 ****         6.7500  17.0000  41.2500 Du        
  12966 ****         6.7500  17.0000  41.5000 Du        
  12967 ****         6.7500  17.0000  41.7500 Du        
  12968 ****         6.7500  17.0000  42.0000 Du        
  12969 ****         6.7500  17.0000  42.2500 Du        
  12970 ****         6.7500  17.0000  42.5000 Du        
  12971 ****         6.7500  17.0000  42.7500 Du        
  12972 ****         6.7500  17.0000  43.0000 Du        
  12973 ****         6.7500  17.2500  39.5000 Du        
  12974 ****         6.7500  17.2500  39.7500 Du        
  12975 ****         6.7500  17.2500  40.0000 Du        
  12976 ****         6.7500  17.2500  40.2500 Du        
  12977 ****         6.7500  17.2500  40.5000 Du        
  12978 ****         6.7500  17.2500  40.7500 Du        
  12979 ****         6.7500  17.2500  41.0000 Du        
  12980 ****         6.7500  17.2500  41.2500 Du        
  12981 ****         6.7500  17.2500  41.5000 Du        
  12982 ****         6.7500  17.2500  41.7500 Du        
  12983 ****         6.7500  17.2500  42.0000 Du        
  12984 ****         6.7500  17.2500  42.2500 Du        
  12985 ****         6.7500  17.2500  42.5000 Du        
  12986 ****         6.7500  17.2500  42.7500 Du        
  12987 ****         6.7500  17.5000  39.7500 Du        
  12988 ****         6.7500  17.5000  40.0000 Du        
  12989 ****         6.7500  17.5000  40.2500 Du        
  12990 ****         6.7500  17.5000  40.5000 Du        
  12991 ****         6.7500  17.5000  40.7500 Du        
  12992 ****         6.7500  17.5000  41.0000 Du        
  12993 ****         6.7500  17.5000  41.2500 Du        
  12994 ****         6.7500  17.5000  41.5000 Du        
  12995 ****         6.7500  17.5000  41.7500 Du        
  12996 ****         6.7500  17.5000  42.0000 Du        
  12997 ****         6.7500  17.5000  42.2500 Du        
  12998 ****         6.7500  17.7500  35.7500 Du        
  12999 ****         6.7500  17.7500  39.7500 Du        
  13000 ****         6.7500  17.7500  40.0000 Du        
  13001 ****         6.7500  17.7500  40.2500 Du        
  13002 ****         6.7500  17.7500  40.5000 Du        
  13003 ****         6.7500  17.7500  40.7500 Du        
  13004 ****         6.7500  17.7500  41.0000 Du        
  13005 ****         6.7500  17.7500  41.2500 Du        
  13006 ****         6.7500  17.7500  41.5000 Du        
  13007 ****         6.7500  17.7500  41.7500 Du        
  13008 ****         6.7500  17.7500  42.0000 Du        
  13009 ****         6.7500  18.0000  35.2500 Du        
  13010 ****         6.7500  18.0000  35.5000 Du        
  13011 ****         6.7500  18.0000  35.7500 Du        
  13012 ****         6.7500  18.0000  36.0000 Du        
  13013 ****         6.7500  18.0000  39.7500 Du        
  13014 ****         6.7500  18.0000  40.0000 Du        
  13015 ****         6.7500  18.0000  40.2500 Du        
  13016 ****         6.7500  18.0000  40.5000 Du        
  13017 ****         6.7500  18.0000  40.7500 Du        
  13018 ****         6.7500  18.0000  41.0000 Du        
  13019 ****         6.7500  18.0000  41.2500 Du        
  13020 ****         6.7500  18.0000  41.5000 Du        
  13021 ****         6.7500  18.0000  41.7500 Du        
  13022 ****         6.7500  18.0000  42.0000 Du        
  13023 ****         6.7500  18.2500  35.0000 Du        
  13024 ****         6.7500  18.2500  35.2500 Du        
  13025 ****         6.7500  18.2500  35.5000 Du        
  13026 ****         6.7500  18.2500  35.7500 Du        
  13027 ****         6.7500  18.2500  36.0000 Du        
  13028 ****         6.7500  18.2500  36.2500 Du        
  13029 ****         6.7500  18.2500  39.7500 Du        
  13030 ****         6.7500  18.2500  40.0000 Du        
  13031 ****         6.7500  18.2500  40.2500 Du        
  13032 ****         6.7500  18.2500  40.5000 Du        
  13033 ****         6.7500  18.2500  40.7500 Du        
  13034 ****         6.7500  18.2500  41.0000 Du        
  13035 ****         6.7500  18.2500  41.2500 Du        
  13036 ****         6.7500  18.2500  41.5000 Du        
  13037 ****         6.7500  18.2500  41.7500 Du        
  13038 ****         6.7500  18.5000  34.7500 Du        
  13039 ****         6.7500  18.5000  35.0000 Du        
  13040 ****         6.7500  18.5000  35.2500 Du        
  13041 ****         6.7500  18.5000  35.5000 Du        
  13042 ****         6.7500  18.5000  35.7500 Du        
  13043 ****         6.7500  18.5000  39.7500 Du        
  13044 ****         6.7500  18.5000  40.0000 Du        
  13045 ****         6.7500  18.5000  40.2500 Du        
  13046 ****         6.7500  18.5000  40.5000 Du        
  13047 ****         6.7500  18.5000  40.7500 Du        
  13048 ****         6.7500  18.5000  41.0000 Du        
  13049 ****         6.7500  18.5000  41.2500 Du        
  13050 ****         6.7500  18.5000  41.5000 Du        
  13051 ****         6.7500  18.5000  41.7500 Du        
  13052 ****         6.7500  18.7500  34.0000 Du        
  13053 ****         6.7500  18.7500  34.2500 Du        
  13054 ****         6.7500  18.7500  34.5000 Du        
  13055 ****         6.7500  18.7500  34.7500 Du        
  13056 ****         6.7500  18.7500  35.0000 Du        
  13057 ****         6.7500  18.7500  35.2500 Du        
  13058 ****         6.7500  18.7500  35.5000 Du        
  13059 ****         6.7500  18.7500  35.7500 Du        
  13060 ****         6.7500  18.7500  36.0000 Du        
  13061 ****         6.7500  18.7500  39.7500 Du        
  13062 ****         6.7500  18.7500  40.0000 Du        
  13063 ****         6.7500  18.7500  40.2500 Du        
  13064 ****         6.7500  18.7500  40.5000 Du        
  13065 ****         6.7500  18.7500  40.7500 Du        
  13066 ****         6.7500  18.7500  41.0000 Du        
  13067 ****         6.7500  18.7500  41.2500 Du        
  13068 ****         6.7500  18.7500  41.5000 Du        
  13069 ****         6.7500  18.7500  41.7500 Du        
  13070 ****         6.7500  19.0000  33.5000 Du        
  13071 ****         6.7500  19.0000  33.7500 Du        
  13072 ****         6.7500  19.0000  34.0000 Du        
  13073 ****         6.7500  19.0000  34.2500 Du        
  13074 ****         6.7500  19.0000  34.5000 Du        
  13075 ****         6.7500  19.0000  34.7500 Du        
  13076 ****         6.7500  19.0000  35.0000 Du        
  13077 ****         6.7500  19.0000  35.2500 Du        
  13078 ****         6.7500  19.0000  35.5000 Du        
  13079 ****         6.7500  19.0000  35.7500 Du        
  13080 ****         6.7500  19.0000  36.0000 Du        
  13081 ****         6.7500  19.0000  39.7500 Du        
  13082 ****         6.7500  19.0000  40.0000 Du        
  13083 ****         6.7500  19.0000  40.2500 Du        
  13084 ****         6.7500  19.0000  40.5000 Du        
  13085 ****         6.7500  19.0000  40.7500 Du        
  13086 ****         6.7500  19.0000  41.0000 Du        
  13087 ****         6.7500  19.0000  41.2500 Du        
  13088 ****         6.7500  19.0000  41.5000 Du        
  13089 ****         6.7500  19.0000  41.7500 Du        
  13090 ****         6.7500  19.2500  32.5000 Du        
  13091 ****         6.7500  19.2500  32.7500 Du        
  13092 ****         6.7500  19.2500  33.0000 Du        
  13093 ****         6.7500  19.2500  33.2500 Du        
  13094 ****         6.7500  19.2500  33.5000 Du        
  13095 ****         6.7500  19.2500  33.7500 Du        
  13096 ****         6.7500  19.2500  34.0000 Du        
  13097 ****         6.7500  19.2500  34.2500 Du        
  13098 ****         6.7500  19.2500  34.5000 Du        
  13099 ****         6.7500  19.2500  34.7500 Du        
  13100 ****         6.7500  19.2500  35.0000 Du        
  13101 ****         6.7500  19.2500  35.2500 Du        
  13102 ****         6.7500  19.2500  35.5000 Du        
  13103 ****         6.7500  19.2500  35.7500 Du        
  13104 ****         6.7500  19.2500  39.7500 Du        
  13105 ****         6.7500  19.2500  40.0000 Du        
  13106 ****         6.7500  19.2500  40.2500 Du        
  13107 ****         6.7500  19.2500  40.5000 Du        
  13108 ****         6.7500  19.2500  40.7500 Du        
  13109 ****         6.7500  19.2500  41.0000 Du        
  13110 ****         6.7500  19.2500  41.2500 Du        
  13111 ****         6.7500  19.2500  41.5000 Du        
  13112 ****         6.7500  19.5000  31.7500 Du        
  13113 ****         6.7500  19.5000  32.0000 Du        
  13114 ****         6.7500  19.5000  32.2500 Du        
  13115 ****         6.7500  19.5000  32.5000 Du        
  13116 ****         6.7500  19.5000  32.7500 Du        
  13117 ****         6.7500  19.5000  33.0000 Du        
  13118 ****         6.7500  19.5000  33.2500 Du        
  13119 ****         6.7500  19.5000  33.5000 Du        
  13120 ****         6.7500  19.5000  33.7500 Du        
  13121 ****         6.7500  19.5000  34.0000 Du        
  13122 ****         6.7500  19.5000  34.2500 Du        
  13123 ****         6.7500  19.5000  34.5000 Du        
  13124 ****         6.7500  19.5000  34.7500 Du        
  13125 ****         6.7500  19.5000  35.0000 Du        
  13126 ****         6.7500  19.5000  40.0000 Du        
  13127 ****         6.7500  19.5000  40.2500 Du        
  13128 ****         6.7500  19.5000  40.5000 Du        
  13129 ****         6.7500  19.5000  40.7500 Du        
  13130 ****         6.7500  19.5000  41.0000 Du        
  13131 ****         6.7500  19.7500  31.7500 Du        
  13132 ****         6.7500  19.7500  32.0000 Du        
  13133 ****         6.7500  19.7500  32.2500 Du        
  13134 ****         6.7500  19.7500  32.5000 Du        
  13135 ****         6.7500  19.7500  32.7500 Du        
  13136 ****         6.7500  19.7500  33.0000 Du        
  13137 ****         6.7500  19.7500  33.2500 Du        
  13138 ****         6.7500  19.7500  33.5000 Du        
  13139 ****         6.7500  19.7500  33.7500 Du        
  13140 ****         6.7500  19.7500  34.0000 Du        
  13141 ****         6.7500  19.7500  34.2500 Du        
  13142 ****         6.7500  19.7500  34.5000 Du        
  13143 ****         6.7500  19.7500  34.7500 Du        
  13144 ****         6.7500  19.7500  35.0000 Du        
  13145 ****         6.7500  19.7500  40.0000 Du        
  13146 ****         6.7500  19.7500  40.2500 Du        
  13147 ****         6.7500  19.7500  40.5000 Du        
  13148 ****         6.7500  19.7500  40.7500 Du        
  13149 ****         6.7500  20.0000  31.7500 Du        
  13150 ****         6.7500  20.0000  32.0000 Du        
  13151 ****         6.7500  20.0000  32.2500 Du        
  13152 ****         6.7500  20.0000  32.5000 Du        
  13153 ****         6.7500  20.0000  32.7500 Du        
  13154 ****         6.7500  20.0000  33.0000 Du        
  13155 ****         6.7500  20.0000  33.2500 Du        
  13156 ****         6.7500  20.0000  33.5000 Du        
  13157 ****         6.7500  20.0000  33.7500 Du        
  13158 ****         6.7500  20.0000  34.0000 Du        
  13159 ****         6.7500  20.0000  34.2500 Du        
  13160 ****         6.7500  20.0000  34.5000 Du        
  13161 ****         6.7500  20.0000  34.7500 Du        
  13162 ****         6.7500  20.0000  35.0000 Du        
  13163 ****         6.7500  20.2500  32.0000 Du        
  13164 ****         6.7500  20.2500  32.2500 Du        
  13165 ****         6.7500  20.2500  32.5000 Du        
  13166 ****         6.7500  20.2500  32.7500 Du        
  13167 ****         6.7500  20.2500  33.0000 Du        
  13168 ****         6.7500  20.2500  33.2500 Du        
  13169 ****         6.7500  20.2500  33.5000 Du        
  13170 ****         6.7500  20.2500  33.7500 Du        
  13171 ****         6.7500  20.2500  34.0000 Du        
  13172 ****         6.7500  20.2500  34.2500 Du        
  13173 ****         6.7500  20.2500  34.5000 Du        
  13174 ****         6.7500  20.2500  34.7500 Du        
  13175 ****         6.7500  20.5000  32.2500 Du        
  13176 ****         6.7500  20.5000  32.5000 Du        
  13177 ****         6.7500  20.5000  32.7500 Du        
  13178 ****         6.7500  20.5000  33.0000 Du        
  13179 ****         6.7500  20.5000  33.2500 Du        
  13180 ****         6.7500  20.5000  33.5000 Du        
  13181 ****         6.7500  20.5000  33.7500 Du        
  13182 ****         6.7500  20.5000  34.0000 Du        
  13183 ****         6.7500  20.5000  34.2500 Du        
  13184 ****         6.7500  20.5000  34.5000 Du        
  13185 ****         6.7500  20.5000  34.7500 Du        
  13186 ****         6.7500  20.7500  32.5000 Du        
  13187 ****         6.7500  20.7500  32.7500 Du        
  13188 ****         6.7500  20.7500  33.0000 Du        
  13189 ****         6.7500  20.7500  33.2500 Du        
  13190 ****         6.7500  20.7500  33.5000 Du        
  13191 ****         6.7500  20.7500  33.7500 Du        
  13192 ****         6.7500  20.7500  34.0000 Du        
  13193 ****         6.7500  20.7500  34.2500 Du        
  13194 ****         6.7500  20.7500  34.5000 Du        
  13195 ****         6.7500  21.0000  33.0000 Du        
  13196 ****         6.7500  21.0000  33.2500 Du        
  13197 ****         7.0000   9.7500  31.0000 Du        
  13198 ****         7.0000   9.7500  31.2500 Du        
  13199 ****         7.0000  10.0000  31.0000 Du        
  13200 ****         7.0000  10.0000  31.2500 Du        
  13201 ****         7.0000  10.0000  31.5000 Du        
  13202 ****         7.0000  10.0000  31.7500 Du        
  13203 ****         7.0000  10.0000  32.0000 Du        
  13204 ****         7.0000  10.2500  31.0000 Du        
  13205 ****         7.0000  10.2500  31.2500 Du        
  13206 ****         7.0000  10.2500  31.5000 Du        
  13207 ****         7.0000  10.2500  31.7500 Du        
  13208 ****         7.0000  10.2500  32.0000 Du        
  13209 ****         7.0000  10.2500  32.2500 Du        
  13210 ****         7.0000  10.2500  32.5000 Du        
  13211 ****         7.0000  10.5000  31.0000 Du        
  13212 ****         7.0000  10.5000  31.2500 Du        
  13213 ****         7.0000  10.5000  31.5000 Du        
  13214 ****         7.0000  10.5000  31.7500 Du        
  13215 ****         7.0000  10.5000  32.0000 Du        
  13216 ****         7.0000  10.5000  32.2500 Du        
  13217 ****         7.0000  10.5000  32.5000 Du        
  13218 ****         7.0000  10.5000  32.7500 Du        
  13219 ****         7.0000  10.7500  31.0000 Du        
  13220 ****         7.0000  10.7500  31.2500 Du        
  13221 ****         7.0000  10.7500  31.5000 Du        
  13222 ****         7.0000  10.7500  31.7500 Du        
  13223 ****         7.0000  10.7500  32.0000 Du        
  13224 ****         7.0000  10.7500  32.2500 Du        
  13225 ****         7.0000  10.7500  32.5000 Du        
  13226 ****         7.0000  10.7500  32.7500 Du        
  13227 ****         7.0000  10.7500  33.0000 Du        
  13228 ****         7.0000  11.0000  31.2500 Du        
  13229 ****         7.0000  11.0000  31.5000 Du        
  13230 ****         7.0000  11.0000  31.7500 Du        
  13231 ****         7.0000  11.0000  32.0000 Du        
  13232 ****         7.0000  11.0000  32.2500 Du        
  13233 ****         7.0000  11.0000  32.5000 Du        
  13234 ****         7.0000  11.0000  32.7500 Du        
  13235 ****         7.0000  11.0000  33.0000 Du        
  13236 ****         7.0000  11.2500  31.5000 Du        
  13237 ****         7.0000  11.2500  31.7500 Du        
  13238 ****         7.0000  11.2500  32.0000 Du        
  13239 ****         7.0000  11.2500  32.2500 Du        
  13240 ****         7.0000  11.2500  32.5000 Du        
  13241 ****         7.0000  11.2500  32.7500 Du        
  13242 ****         7.0000  11.2500  33.0000 Du        
  13243 ****         7.0000  11.2500  33.2500 Du        
  13244 ****         7.0000  11.5000  32.0000 Du        
  13245 ****         7.0000  11.5000  32.2500 Du        
  13246 ****         7.0000  11.5000  32.5000 Du        
  13247 ****         7.0000  11.5000  32.7500 Du        
  13248 ****         7.0000  11.5000  33.0000 Du        
  13249 ****         7.0000  11.5000  33.2500 Du        
  13250 ****         7.0000  11.7500  32.7500 Du        
  13251 ****         7.0000  11.7500  33.0000 Du        
  13252 ****         7.0000  11.7500  33.2500 Du        
  13253 ****         7.0000  11.7500  33.5000 Du        
  13254 ****         7.0000  12.0000  33.0000 Du        
  13255 ****         7.0000  12.0000  33.2500 Du        
  13256 ****         7.0000  12.0000  33.5000 Du        
  13257 ****         7.0000  12.0000  33.7500 Du        
  13258 ****         7.0000  12.2500  33.2500 Du        
  13259 ****         7.0000  12.2500  33.5000 Du        
  13260 ****         7.0000  12.2500  33.7500 Du        
  13261 ****         7.0000  12.2500  34.0000 Du        
  13262 ****         7.0000  12.5000  33.5000 Du        
  13263 ****         7.0000  12.5000  33.7500 Du        
  13264 ****         7.0000  12.5000  34.0000 Du        
  13265 ****         7.0000  12.5000  34.2500 Du        
  13266 ****         7.0000  12.7500  33.7500 Du        
  13267 ****         7.0000  12.7500  34.0000 Du        
  13268 ****         7.0000  12.7500  34.2500 Du        
  13269 ****         7.0000  12.7500  34.5000 Du        
  13270 ****         7.0000  13.0000  34.0000 Du        
  13271 ****         7.0000  13.0000  34.2500 Du        
  13272 ****         7.0000  13.0000  34.5000 Du        
  13273 ****         7.0000  13.0000  34.7500 Du        
  13274 ****         7.0000  13.2500  34.2500 Du        
  13275 ****         7.0000  13.2500  34.5000 Du        
  13276 ****         7.0000  13.2500  34.7500 Du        
  13277 ****         7.0000  13.2500  35.0000 Du        
  13278 ****         7.0000  13.2500  40.7500 Du        
  13279 ****         7.0000  13.2500  41.0000 Du        
  13280 ****         7.0000  13.2500  41.2500 Du        
  13281 ****         7.0000  13.2500  41.5000 Du        
  13282 ****         7.0000  13.2500  41.7500 Du        
  13283 ****         7.0000  13.5000  34.7500 Du        
  13284 ****         7.0000  13.5000  35.0000 Du        
  13285 ****         7.0000  13.5000  40.5000 Du        
  13286 ****         7.0000  13.5000  40.7500 Du        
  13287 ****         7.0000  13.5000  41.0000 Du        
  13288 ****         7.0000  13.5000  41.2500 Du        
  13289 ****         7.0000  13.5000  41.5000 Du        
  13290 ****         7.0000  13.5000  41.7500 Du        
  13291 ****         7.0000  13.5000  42.0000 Du        
  13292 ****         7.0000  13.7500  35.0000 Du        
  13293 ****         7.0000  13.7500  35.2500 Du        
  13294 ****         7.0000  13.7500  39.7500 Du        
  13295 ****         7.0000  13.7500  40.0000 Du        
  13296 ****         7.0000  13.7500  40.2500 Du        
  13297 ****         7.0000  13.7500  40.5000 Du        
  13298 ****         7.0000  13.7500  40.7500 Du        
  13299 ****         7.0000  13.7500  41.0000 Du        
  13300 ****         7.0000  13.7500  41.2500 Du        
  13301 ****         7.0000  13.7500  41.5000 Du        
  13302 ****         7.0000  13.7500  41.7500 Du        
  13303 ****         7.0000  13.7500  42.0000 Du        
  13304 ****         7.0000  13.7500  42.2500 Du        
  13305 ****         7.0000  14.0000  38.7500 Du        
  13306 ****         7.0000  14.0000  39.0000 Du        
  13307 ****         7.0000  14.0000  39.2500 Du        
  13308 ****         7.0000  14.0000  39.5000 Du        
  13309 ****         7.0000  14.0000  39.7500 Du        
  13310 ****         7.0000  14.0000  40.0000 Du        
  13311 ****         7.0000  14.0000  40.2500 Du        
  13312 ****         7.0000  14.0000  40.5000 Du        
  13313 ****         7.0000  14.0000  40.7500 Du        
  13314 ****         7.0000  14.0000  41.0000 Du        
  13315 ****         7.0000  14.0000  41.2500 Du        
  13316 ****         7.0000  14.0000  41.5000 Du        
  13317 ****         7.0000  14.0000  41.7500 Du        
  13318 ****         7.0000  14.0000  42.0000 Du        
  13319 ****         7.0000  14.0000  42.2500 Du        
  13320 ****         7.0000  14.0000  42.5000 Du        
  13321 ****         7.0000  14.2500  38.5000 Du        
  13322 ****         7.0000  14.2500  38.7500 Du        
  13323 ****         7.0000  14.2500  39.0000 Du        
  13324 ****         7.0000  14.2500  39.2500 Du        
  13325 ****         7.0000  14.2500  39.5000 Du        
  13326 ****         7.0000  14.2500  39.7500 Du        
  13327 ****         7.0000  14.2500  40.0000 Du        
  13328 ****         7.0000  14.2500  40.2500 Du        
  13329 ****         7.0000  14.2500  40.5000 Du        
  13330 ****         7.0000  14.2500  40.7500 Du        
  13331 ****         7.0000  14.2500  41.0000 Du        
  13332 ****         7.0000  14.2500  41.2500 Du        
  13333 ****         7.0000  14.2500  41.5000 Du        
  13334 ****         7.0000  14.2500  41.7500 Du        
  13335 ****         7.0000  14.2500  42.0000 Du        
  13336 ****         7.0000  14.2500  42.2500 Du        
  13337 ****         7.0000  14.2500  42.5000 Du        
  13338 ****         7.0000  14.2500  42.7500 Du        
  13339 ****         7.0000  14.2500  43.0000 Du        
  13340 ****         7.0000  14.5000  38.2500 Du        
  13341 ****         7.0000  14.5000  38.5000 Du        
  13342 ****         7.0000  14.5000  38.7500 Du        
  13343 ****         7.0000  14.5000  39.0000 Du        
  13344 ****         7.0000  14.5000  39.2500 Du        
  13345 ****         7.0000  14.5000  39.5000 Du        
  13346 ****         7.0000  14.5000  39.7500 Du        
  13347 ****         7.0000  14.5000  40.0000 Du        
  13348 ****         7.0000  14.5000  40.2500 Du        
  13349 ****         7.0000  14.5000  40.5000 Du        
  13350 ****         7.0000  14.5000  40.7500 Du        
  13351 ****         7.0000  14.5000  41.0000 Du        
  13352 ****         7.0000  14.5000  41.2500 Du        
  13353 ****         7.0000  14.5000  41.5000 Du        
  13354 ****         7.0000  14.5000  41.7500 Du        
  13355 ****         7.0000  14.5000  42.0000 Du        
  13356 ****         7.0000  14.5000  42.2500 Du        
  13357 ****         7.0000  14.5000  42.5000 Du        
  13358 ****         7.0000  14.5000  42.7500 Du        
  13359 ****         7.0000  14.5000  43.0000 Du        
  13360 ****         7.0000  14.5000  43.2500 Du        
  13361 ****         7.0000  14.7500  36.0000 Du        
  13362 ****         7.0000  14.7500  36.2500 Du        
  13363 ****         7.0000  14.7500  36.5000 Du        
  13364 ****         7.0000  14.7500  37.7500 Du        
  13365 ****         7.0000  14.7500  38.0000 Du        
  13366 ****         7.0000  14.7500  38.2500 Du        
  13367 ****         7.0000  14.7500  38.5000 Du        
  13368 ****         7.0000  14.7500  38.7500 Du        
  13369 ****         7.0000  14.7500  39.0000 Du        
  13370 ****         7.0000  14.7500  39.2500 Du        
  13371 ****         7.0000  14.7500  39.5000 Du        
  13372 ****         7.0000  14.7500  39.7500 Du        
  13373 ****         7.0000  14.7500  40.0000 Du        
  13374 ****         7.0000  14.7500  40.2500 Du        
  13375 ****         7.0000  14.7500  40.5000 Du        
  13376 ****         7.0000  14.7500  40.7500 Du        
  13377 ****         7.0000  14.7500  41.0000 Du        
  13378 ****         7.0000  14.7500  41.2500 Du        
  13379 ****         7.0000  14.7500  41.5000 Du        
  13380 ****         7.0000  14.7500  41.7500 Du        
  13381 ****         7.0000  14.7500  42.0000 Du        
  13382 ****         7.0000  14.7500  42.2500 Du        
  13383 ****         7.0000  14.7500  42.5000 Du        
  13384 ****         7.0000  14.7500  42.7500 Du        
  13385 ****         7.0000  14.7500  43.0000 Du        
  13386 ****         7.0000  14.7500  43.2500 Du        
  13387 ****         7.0000  14.7500  43.5000 Du        
  13388 ****         7.0000  15.0000  36.0000 Du        
  13389 ****         7.0000  15.0000  36.2500 Du        
  13390 ****         7.0000  15.0000  36.5000 Du        
  13391 ****         7.0000  15.0000  36.7500 Du        
  13392 ****         7.0000  15.0000  37.0000 Du        
  13393 ****         7.0000  15.0000  37.2500 Du        
  13394 ****         7.0000  15.0000  37.5000 Du        
  13395 ****         7.0000  15.0000  37.7500 Du        
  13396 ****         7.0000  15.0000  38.0000 Du        
  13397 ****         7.0000  15.0000  38.2500 Du        
  13398 ****         7.0000  15.0000  38.5000 Du        
  13399 ****         7.0000  15.0000  38.7500 Du        
  13400 ****         7.0000  15.0000  39.0000 Du        
  13401 ****         7.0000  15.0000  39.2500 Du        
  13402 ****         7.0000  15.0000  39.5000 Du        
  13403 ****         7.0000  15.0000  39.7500 Du        
  13404 ****         7.0000  15.0000  40.0000 Du        
  13405 ****         7.0000  15.0000  40.2500 Du        
  13406 ****         7.0000  15.0000  40.5000 Du        
  13407 ****         7.0000  15.0000  40.7500 Du        
  13408 ****         7.0000  15.0000  41.0000 Du        
  13409 ****         7.0000  15.0000  41.2500 Du        
  13410 ****         7.0000  15.0000  41.5000 Du        
  13411 ****         7.0000  15.0000  41.7500 Du        
  13412 ****         7.0000  15.0000  42.0000 Du        
  13413 ****         7.0000  15.0000  42.2500 Du        
  13414 ****         7.0000  15.0000  42.5000 Du        
  13415 ****         7.0000  15.0000  42.7500 Du        
  13416 ****         7.0000  15.0000  43.0000 Du        
  13417 ****         7.0000  15.0000  43.2500 Du        
  13418 ****         7.0000  15.0000  43.5000 Du        
  13419 ****         7.0000  15.0000  43.7500 Du        
  13420 ****         7.0000  15.2500  36.0000 Du        
  13421 ****         7.0000  15.2500  36.2500 Du        
  13422 ****         7.0000  15.2500  36.5000 Du        
  13423 ****         7.0000  15.2500  36.7500 Du        
  13424 ****         7.0000  15.2500  37.0000 Du        
  13425 ****         7.0000  15.2500  37.2500 Du        
  13426 ****         7.0000  15.2500  37.5000 Du        
  13427 ****         7.0000  15.2500  37.7500 Du        
  13428 ****         7.0000  15.2500  38.0000 Du        
  13429 ****         7.0000  15.2500  38.2500 Du        
  13430 ****         7.0000  15.2500  38.5000 Du        
  13431 ****         7.0000  15.2500  38.7500 Du        
  13432 ****         7.0000  15.2500  39.0000 Du        
  13433 ****         7.0000  15.2500  39.2500 Du        
  13434 ****         7.0000  15.2500  39.5000 Du        
  13435 ****         7.0000  15.2500  39.7500 Du        
  13436 ****         7.0000  15.2500  40.0000 Du        
  13437 ****         7.0000  15.2500  40.2500 Du        
  13438 ****         7.0000  15.2500  40.5000 Du        
  13439 ****         7.0000  15.2500  40.7500 Du        
  13440 ****         7.0000  15.2500  41.0000 Du        
  13441 ****         7.0000  15.2500  41.2500 Du        
  13442 ****         7.0000  15.2500  41.5000 Du        
  13443 ****         7.0000  15.2500  41.7500 Du        
  13444 ****         7.0000  15.2500  42.0000 Du        
  13445 ****         7.0000  15.2500  42.2500 Du        
  13446 ****         7.0000  15.2500  42.5000 Du        
  13447 ****         7.0000  15.2500  42.7500 Du        
  13448 ****         7.0000  15.2500  43.0000 Du        
  13449 ****         7.0000  15.2500  43.2500 Du        
  13450 ****         7.0000  15.2500  43.5000 Du        
  13451 ****         7.0000  15.2500  43.7500 Du        
  13452 ****         7.0000  15.5000  36.2500 Du        
  13453 ****         7.0000  15.5000  36.5000 Du        
  13454 ****         7.0000  15.5000  36.7500 Du        
  13455 ****         7.0000  15.5000  37.0000 Du        
  13456 ****         7.0000  15.5000  37.2500 Du        
  13457 ****         7.0000  15.5000  37.5000 Du        
  13458 ****         7.0000  15.5000  37.7500 Du        
  13459 ****         7.0000  15.5000  38.0000 Du        
  13460 ****         7.0000  15.5000  38.2500 Du        
  13461 ****         7.0000  15.5000  38.5000 Du        
  13462 ****         7.0000  15.5000  38.7500 Du        
  13463 ****         7.0000  15.5000  39.0000 Du        
  13464 ****         7.0000  15.5000  39.2500 Du        
  13465 ****         7.0000  15.5000  39.5000 Du        
  13466 ****         7.0000  15.5000  39.7500 Du        
  13467 ****         7.0000  15.5000  40.0000 Du        
  13468 ****         7.0000  15.5000  40.2500 Du        
  13469 ****         7.0000  15.5000  40.5000 Du        
  13470 ****         7.0000  15.5000  40.7500 Du        
  13471 ****         7.0000  15.5000  41.0000 Du        
  13472 ****         7.0000  15.5000  41.2500 Du        
  13473 ****         7.0000  15.5000  41.5000 Du        
  13474 ****         7.0000  15.5000  41.7500 Du        
  13475 ****         7.0000  15.5000  42.0000 Du        
  13476 ****         7.0000  15.5000  42.2500 Du        
  13477 ****         7.0000  15.5000  42.5000 Du        
  13478 ****         7.0000  15.5000  42.7500 Du        
  13479 ****         7.0000  15.5000  43.0000 Du        
  13480 ****         7.0000  15.5000  43.2500 Du        
  13481 ****         7.0000  15.5000  43.5000 Du        
  13482 ****         7.0000  15.5000  43.7500 Du        
  13483 ****         7.0000  15.7500  36.2500 Du        
  13484 ****         7.0000  15.7500  36.5000 Du        
  13485 ****         7.0000  15.7500  36.7500 Du        
  13486 ****         7.0000  15.7500  37.0000 Du        
  13487 ****         7.0000  15.7500  37.5000 Du        
  13488 ****         7.0000  15.7500  37.7500 Du        
  13489 ****         7.0000  15.7500  38.0000 Du        
  13490 ****         7.0000  15.7500  38.2500 Du        
  13491 ****         7.0000  15.7500  38.5000 Du        
  13492 ****         7.0000  15.7500  38.7500 Du        
  13493 ****         7.0000  15.7500  39.0000 Du        
  13494 ****         7.0000  15.7500  39.2500 Du        
  13495 ****         7.0000  15.7500  39.5000 Du        
  13496 ****         7.0000  15.7500  39.7500 Du        
  13497 ****         7.0000  15.7500  40.0000 Du        
  13498 ****         7.0000  15.7500  40.2500 Du        
  13499 ****         7.0000  15.7500  40.5000 Du        
  13500 ****         7.0000  15.7500  40.7500 Du        
  13501 ****         7.0000  15.7500  41.0000 Du        
  13502 ****         7.0000  15.7500  41.2500 Du        
  13503 ****         7.0000  15.7500  41.5000 Du        
  13504 ****         7.0000  15.7500  41.7500 Du        
  13505 ****         7.0000  15.7500  42.0000 Du        
  13506 ****         7.0000  15.7500  42.2500 Du        
  13507 ****         7.0000  15.7500  42.5000 Du        
  13508 ****         7.0000  15.7500  42.7500 Du        
  13509 ****         7.0000  15.7500  43.0000 Du        
  13510 ****         7.0000  15.7500  43.2500 Du        
  13511 ****         7.0000  15.7500  43.5000 Du        
  13512 ****         7.0000  16.0000  36.7500 Du        
  13513 ****         7.0000  16.0000  38.0000 Du        
  13514 ****         7.0000  16.0000  38.2500 Du        
  13515 ****         7.0000  16.0000  38.5000 Du        
  13516 ****         7.0000  16.0000  38.7500 Du        
  13517 ****         7.0000  16.0000  39.0000 Du        
  13518 ****         7.0000  16.0000  39.2500 Du        
  13519 ****         7.0000  16.0000  39.5000 Du        
  13520 ****         7.0000  16.0000  39.7500 Du        
  13521 ****         7.0000  16.0000  40.0000 Du        
  13522 ****         7.0000  16.0000  40.2500 Du        
  13523 ****         7.0000  16.0000  40.5000 Du        
  13524 ****         7.0000  16.0000  40.7500 Du        
  13525 ****         7.0000  16.0000  41.0000 Du        
  13526 ****         7.0000  16.0000  41.2500 Du        
  13527 ****         7.0000  16.0000  41.5000 Du        
  13528 ****         7.0000  16.0000  41.7500 Du        
  13529 ****         7.0000  16.0000  42.0000 Du        
  13530 ****         7.0000  16.0000  42.2500 Du        
  13531 ****         7.0000  16.0000  42.5000 Du        
  13532 ****         7.0000  16.0000  42.7500 Du        
  13533 ****         7.0000  16.0000  43.0000 Du        
  13534 ****         7.0000  16.0000  43.2500 Du        
  13535 ****         7.0000  16.0000  43.5000 Du        
  13536 ****         7.0000  16.2500  38.5000 Du        
  13537 ****         7.0000  16.2500  38.7500 Du        
  13538 ****         7.0000  16.2500  39.0000 Du        
  13539 ****         7.0000  16.2500  39.2500 Du        
  13540 ****         7.0000  16.2500  39.5000 Du        
  13541 ****         7.0000  16.2500  39.7500 Du        
  13542 ****         7.0000  16.2500  40.0000 Du        
  13543 ****         7.0000  16.2500  40.2500 Du        
  13544 ****         7.0000  16.2500  40.5000 Du        
  13545 ****         7.0000  16.2500  40.7500 Du        
  13546 ****         7.0000  16.2500  41.0000 Du        
  13547 ****         7.0000  16.2500  41.2500 Du        
  13548 ****         7.0000  16.2500  41.5000 Du        
  13549 ****         7.0000  16.2500  41.7500 Du        
  13550 ****         7.0000  16.2500  42.0000 Du        
  13551 ****         7.0000  16.2500  42.2500 Du        
  13552 ****         7.0000  16.2500  42.5000 Du        
  13553 ****         7.0000  16.2500  42.7500 Du        
  13554 ****         7.0000  16.2500  43.0000 Du        
  13555 ****         7.0000  16.2500  43.2500 Du        
  13556 ****         7.0000  16.2500  43.5000 Du        
  13557 ****         7.0000  16.5000  39.0000 Du        
  13558 ****         7.0000  16.5000  39.2500 Du        
  13559 ****         7.0000  16.5000  39.5000 Du        
  13560 ****         7.0000  16.5000  39.7500 Du        
  13561 ****         7.0000  16.5000  40.0000 Du        
  13562 ****         7.0000  16.5000  40.2500 Du        
  13563 ****         7.0000  16.5000  40.5000 Du        
  13564 ****         7.0000  16.5000  40.7500 Du        
  13565 ****         7.0000  16.5000  41.0000 Du        
  13566 ****         7.0000  16.5000  41.2500 Du        
  13567 ****         7.0000  16.5000  41.5000 Du        
  13568 ****         7.0000  16.5000  41.7500 Du        
  13569 ****         7.0000  16.5000  42.0000 Du        
  13570 ****         7.0000  16.5000  42.2500 Du        
  13571 ****         7.0000  16.5000  42.5000 Du        
  13572 ****         7.0000  16.5000  42.7500 Du        
  13573 ****         7.0000  16.5000  43.0000 Du        
  13574 ****         7.0000  16.5000  43.2500 Du        
  13575 ****         7.0000  16.7500  39.5000 Du        
  13576 ****         7.0000  16.7500  39.7500 Du        
  13577 ****         7.0000  16.7500  40.0000 Du        
  13578 ****         7.0000  16.7500  40.2500 Du        
  13579 ****         7.0000  16.7500  40.5000 Du        
  13580 ****         7.0000  16.7500  40.7500 Du        
  13581 ****         7.0000  16.7500  41.0000 Du        
  13582 ****         7.0000  16.7500  41.2500 Du        
  13583 ****         7.0000  16.7500  41.5000 Du        
  13584 ****         7.0000  16.7500  41.7500 Du        
  13585 ****         7.0000  16.7500  42.0000 Du        
  13586 ****         7.0000  16.7500  42.2500 Du        
  13587 ****         7.0000  16.7500  42.5000 Du        
  13588 ****         7.0000  16.7500  42.7500 Du        
  13589 ****         7.0000  16.7500  43.0000 Du        
  13590 ****         7.0000  16.7500  43.2500 Du        
  13591 ****         7.0000  17.0000  39.7500 Du        
  13592 ****         7.0000  17.0000  40.0000 Du        
  13593 ****         7.0000  17.0000  40.2500 Du        
  13594 ****         7.0000  17.0000  40.5000 Du        
  13595 ****         7.0000  17.0000  40.7500 Du        
  13596 ****         7.0000  17.0000  41.0000 Du        
  13597 ****         7.0000  17.0000  41.2500 Du        
  13598 ****         7.0000  17.0000  41.5000 Du        
  13599 ****         7.0000  17.0000  41.7500 Du        
  13600 ****         7.0000  17.0000  42.0000 Du        
  13601 ****         7.0000  17.0000  42.2500 Du        
  13602 ****         7.0000  17.0000  42.5000 Du        
  13603 ****         7.0000  17.0000  42.7500 Du        
  13604 ****         7.0000  17.0000  43.0000 Du        
  13605 ****         7.0000  17.2500  39.7500 Du        
  13606 ****         7.0000  17.2500  40.0000 Du        
  13607 ****         7.0000  17.2500  40.2500 Du        
  13608 ****         7.0000  17.2500  40.5000 Du        
  13609 ****         7.0000  17.2500  40.7500 Du        
  13610 ****         7.0000  17.2500  41.0000 Du        
  13611 ****         7.0000  17.2500  41.2500 Du        
  13612 ****         7.0000  17.2500  41.5000 Du        
  13613 ****         7.0000  17.2500  41.7500 Du        
  13614 ****         7.0000  17.2500  42.0000 Du        
  13615 ****         7.0000  17.2500  42.2500 Du        
  13616 ****         7.0000  17.2500  42.5000 Du        
  13617 ****         7.0000  17.2500  42.7500 Du        
  13618 ****         7.0000  17.5000  40.5000 Du        
  13619 ****         7.0000  17.5000  40.7500 Du        
  13620 ****         7.0000  17.5000  41.0000 Du        
  13621 ****         7.0000  17.5000  41.2500 Du        
  13622 ****         7.0000  17.5000  41.5000 Du        
  13623 ****         7.0000  17.5000  41.7500 Du        
  13624 ****         7.0000  17.5000  42.0000 Du        
  13625 ****         7.0000  17.5000  42.2500 Du        
  13626 ****         7.0000  17.5000  42.5000 Du        
  13627 ****         7.0000  17.5000  42.7500 Du        
  13628 ****         7.0000  17.7500  40.5000 Du        
  13629 ****         7.0000  17.7500  40.7500 Du        
  13630 ****         7.0000  17.7500  41.0000 Du        
  13631 ****         7.0000  17.7500  41.2500 Du        
  13632 ****         7.0000  17.7500  41.5000 Du        
  13633 ****         7.0000  17.7500  41.7500 Du        
  13634 ****         7.0000  17.7500  42.0000 Du        
  13635 ****         7.0000  17.7500  42.2500 Du        
  13636 ****         7.0000  17.7500  42.5000 Du        
  13637 ****         7.0000  18.0000  35.7500 Du        
  13638 ****         7.0000  18.0000  36.0000 Du        
  13639 ****         7.0000  18.0000  40.7500 Du        
  13640 ****         7.0000  18.0000  41.0000 Du        
  13641 ****         7.0000  18.0000  41.2500 Du        
  13642 ****         7.0000  18.0000  41.5000 Du        
  13643 ****         7.0000  18.0000  41.7500 Du        
  13644 ****         7.0000  18.0000  42.0000 Du        
  13645 ****         7.0000  18.0000  42.2500 Du        
  13646 ****         7.0000  18.2500  35.5000 Du        
  13647 ****         7.0000  18.2500  35.7500 Du        
  13648 ****         7.0000  18.2500  36.0000 Du        
  13649 ****         7.0000  18.2500  36.2500 Du        
  13650 ****         7.0000  18.2500  40.5000 Du        
  13651 ****         7.0000  18.2500  40.7500 Du        
  13652 ****         7.0000  18.2500  41.0000 Du        
  13653 ****         7.0000  18.2500  41.2500 Du        
  13654 ****         7.0000  18.2500  41.5000 Du        
  13655 ****         7.0000  18.2500  41.7500 Du        
  13656 ****         7.0000  18.2500  42.0000 Du        
  13657 ****         7.0000  18.2500  42.2500 Du        
  13658 ****         7.0000  18.5000  35.2500 Du        
  13659 ****         7.0000  18.5000  35.5000 Du        
  13660 ****         7.0000  18.5000  35.7500 Du        
  13661 ****         7.0000  18.5000  40.0000 Du        
  13662 ****         7.0000  18.5000  40.2500 Du        
  13663 ****         7.0000  18.5000  40.5000 Du        
  13664 ****         7.0000  18.5000  40.7500 Du        
  13665 ****         7.0000  18.5000  41.0000 Du        
  13666 ****         7.0000  18.5000  41.2500 Du        
  13667 ****         7.0000  18.5000  41.5000 Du        
  13668 ****         7.0000  18.5000  41.7500 Du        
  13669 ****         7.0000  18.5000  42.0000 Du        
  13670 ****         7.0000  18.7500  34.2500 Du        
  13671 ****         7.0000  18.7500  34.7500 Du        
  13672 ****         7.0000  18.7500  35.0000 Du        
  13673 ****         7.0000  18.7500  35.2500 Du        
  13674 ****         7.0000  18.7500  35.5000 Du        
  13675 ****         7.0000  18.7500  35.7500 Du        
  13676 ****         7.0000  18.7500  36.0000 Du        
  13677 ****         7.0000  18.7500  39.7500 Du        
  13678 ****         7.0000  18.7500  40.0000 Du        
  13679 ****         7.0000  18.7500  40.2500 Du        
  13680 ****         7.0000  18.7500  40.5000 Du        
  13681 ****         7.0000  18.7500  40.7500 Du        
  13682 ****         7.0000  18.7500  41.0000 Du        
  13683 ****         7.0000  18.7500  41.2500 Du        
  13684 ****         7.0000  18.7500  41.5000 Du        
  13685 ****         7.0000  18.7500  41.7500 Du        
  13686 ****         7.0000  18.7500  42.0000 Du        
  13687 ****         7.0000  19.0000  33.7500 Du        
  13688 ****         7.0000  19.0000  34.0000 Du        
  13689 ****         7.0000  19.0000  34.2500 Du        
  13690 ****         7.0000  19.0000  34.5000 Du        
  13691 ****         7.0000  19.0000  34.7500 Du        
  13692 ****         7.0000  19.0000  35.0000 Du        
  13693 ****         7.0000  19.0000  35.2500 Du        
  13694 ****         7.0000  19.0000  35.5000 Du        
  13695 ****         7.0000  19.0000  35.7500 Du        
  13696 ****         7.0000  19.0000  39.7500 Du        
  13697 ****         7.0000  19.0000  40.0000 Du        
  13698 ****         7.0000  19.0000  40.2500 Du        
  13699 ****         7.0000  19.0000  40.5000 Du        
  13700 ****         7.0000  19.0000  40.7500 Du        
  13701 ****         7.0000  19.0000  41.0000 Du        
  13702 ****         7.0000  19.0000  41.2500 Du        
  13703 ****         7.0000  19.0000  41.5000 Du        
  13704 ****         7.0000  19.0000  41.7500 Du        
  13705 ****         7.0000  19.2500  32.7500 Du        
  13706 ****         7.0000  19.2500  33.0000 Du        
  13707 ****         7.0000  19.2500  33.2500 Du        
  13708 ****         7.0000  19.2500  33.5000 Du        
  13709 ****         7.0000  19.2500  33.7500 Du        
  13710 ****         7.0000  19.2500  34.0000 Du        
  13711 ****         7.0000  19.2500  34.2500 Du        
  13712 ****         7.0000  19.2500  34.5000 Du        
  13713 ****         7.0000  19.2500  34.7500 Du        
  13714 ****         7.0000  19.2500  35.0000 Du        
  13715 ****         7.0000  19.2500  35.2500 Du        
  13716 ****         7.0000  19.2500  35.5000 Du        
  13717 ****         7.0000  19.2500  35.7500 Du        
  13718 ****         7.0000  19.2500  39.7500 Du        
  13719 ****         7.0000  19.2500  40.0000 Du        
  13720 ****         7.0000  19.2500  40.2500 Du        
  13721 ****         7.0000  19.2500  40.5000 Du        
  13722 ****         7.0000  19.2500  40.7500 Du        
  13723 ****         7.0000  19.2500  41.0000 Du        
  13724 ****         7.0000  19.2500  41.2500 Du        
  13725 ****         7.0000  19.2500  41.5000 Du        
  13726 ****         7.0000  19.2500  41.7500 Du        
  13727 ****         7.0000  19.5000  31.7500 Du        
  13728 ****         7.0000  19.5000  32.0000 Du        
  13729 ****         7.0000  19.5000  32.2500 Du        
  13730 ****         7.0000  19.5000  32.5000 Du        
  13731 ****         7.0000  19.5000  32.7500 Du        
  13732 ****         7.0000  19.5000  33.0000 Du        
  13733 ****         7.0000  19.5000  33.2500 Du        
  13734 ****         7.0000  19.5000  33.5000 Du        
  13735 ****         7.0000  19.5000  33.7500 Du        
  13736 ****         7.0000  19.5000  34.0000 Du        
  13737 ****         7.0000  19.5000  34.2500 Du        
  13738 ****         7.0000  19.5000  34.5000 Du        
  13739 ****         7.0000  19.5000  34.7500 Du        
  13740 ****         7.0000  19.5000  35.0000 Du        
  13741 ****         7.0000  19.5000  40.0000 Du        
  13742 ****         7.0000  19.5000  40.2500 Du        
  13743 ****         7.0000  19.5000  40.5000 Du        
  13744 ****         7.0000  19.5000  40.7500 Du        
  13745 ****         7.0000  19.5000  41.0000 Du        
  13746 ****         7.0000  19.7500  31.7500 Du        
  13747 ****         7.0000  19.7500  32.0000 Du        
  13748 ****         7.0000  19.7500  32.2500 Du        
  13749 ****         7.0000  19.7500  32.5000 Du        
  13750 ****         7.0000  19.7500  32.7500 Du        
  13751 ****         7.0000  19.7500  33.0000 Du        
  13752 ****         7.0000  19.7500  33.2500 Du        
  13753 ****         7.0000  19.7500  33.5000 Du        
  13754 ****         7.0000  19.7500  33.7500 Du        
  13755 ****         7.0000  19.7500  34.0000 Du        
  13756 ****         7.0000  19.7500  34.2500 Du        
  13757 ****         7.0000  19.7500  34.5000 Du        
  13758 ****         7.0000  19.7500  34.7500 Du        
  13759 ****         7.0000  19.7500  35.0000 Du        
  13760 ****         7.0000  19.7500  40.0000 Du        
  13761 ****         7.0000  19.7500  40.5000 Du        
  13762 ****         7.0000  20.0000  31.7500 Du        
  13763 ****         7.0000  20.0000  32.0000 Du        
  13764 ****         7.0000  20.0000  32.2500 Du        
  13765 ****         7.0000  20.0000  32.5000 Du        
  13766 ****         7.0000  20.0000  32.7500 Du        
  13767 ****         7.0000  20.0000  33.0000 Du        
  13768 ****         7.0000  20.0000  33.2500 Du        
  13769 ****         7.0000  20.0000  33.5000 Du        
  13770 ****         7.0000  20.0000  33.7500 Du        
  13771 ****         7.0000  20.0000  34.0000 Du        
  13772 ****         7.0000  20.0000  34.2500 Du        
  13773 ****         7.0000  20.0000  34.5000 Du        
  13774 ****         7.0000  20.0000  34.7500 Du        
  13775 ****         7.0000  20.0000  35.0000 Du        
  13776 ****         7.0000  20.2500  32.0000 Du        
  13777 ****         7.0000  20.2500  32.2500 Du        
  13778 ****         7.0000  20.2500  32.5000 Du        
  13779 ****         7.0000  20.2500  32.7500 Du        
  13780 ****         7.0000  20.2500  33.0000 Du        
  13781 ****         7.0000  20.2500  33.2500 Du        
  13782 ****         7.0000  20.2500  33.5000 Du        
  13783 ****         7.0000  20.2500  33.7500 Du        
  13784 ****         7.0000  20.2500  34.0000 Du        
  13785 ****         7.0000  20.2500  34.2500 Du        
  13786 ****         7.0000  20.2500  34.5000 Du        
  13787 ****         7.0000  20.2500  34.7500 Du        
  13788 ****         7.0000  20.2500  35.0000 Du        
  13789 ****         7.0000  20.5000  32.2500 Du        
  13790 ****         7.0000  20.5000  32.5000 Du        
  13791 ****         7.0000  20.5000  32.7500 Du        
  13792 ****         7.0000  20.5000  33.0000 Du        
  13793 ****         7.0000  20.5000  33.2500 Du        
  13794 ****         7.0000  20.5000  33.5000 Du        
  13795 ****         7.0000  20.5000  33.7500 Du        
  13796 ****         7.0000  20.5000  34.0000 Du        
  13797 ****         7.0000  20.5000  34.2500 Du        
  13798 ****         7.0000  20.5000  34.5000 Du        
  13799 ****         7.0000  20.5000  34.7500 Du        
  13800 ****         7.0000  20.7500  32.2500 Du        
  13801 ****         7.0000  20.7500  32.5000 Du        
  13802 ****         7.0000  20.7500  32.7500 Du        
  13803 ****         7.0000  20.7500  33.0000 Du        
  13804 ****         7.0000  20.7500  33.2500 Du        
  13805 ****         7.0000  20.7500  33.5000 Du        
  13806 ****         7.0000  20.7500  33.7500 Du        
  13807 ****         7.0000  20.7500  34.0000 Du        
  13808 ****         7.0000  20.7500  34.2500 Du        
  13809 ****         7.0000  21.0000  32.7500 Du        
  13810 ****         7.0000  21.0000  33.0000 Du        
  13811 ****         7.2500   9.7500  31.2500 Du        
  13812 ****         7.2500   9.7500  31.5000 Du        
  13813 ****         7.2500  10.0000  31.2500 Du        
  13814 ****         7.2500  10.0000  31.5000 Du        
  13815 ****         7.2500  10.0000  31.7500 Du        
  13816 ****         7.2500  10.0000  32.0000 Du        
  13817 ****         7.2500  10.0000  32.2500 Du        
  13818 ****         7.2500  10.2500  31.0000 Du        
  13819 ****         7.2500  10.2500  31.2500 Du        
  13820 ****         7.2500  10.2500  31.5000 Du        
  13821 ****         7.2500  10.2500  31.7500 Du        
  13822 ****         7.2500  10.2500  32.0000 Du        
  13823 ****         7.2500  10.2500  32.2500 Du        
  13824 ****         7.2500  10.2500  32.5000 Du        
  13825 ****         7.2500  10.2500  32.7500 Du        
  13826 ****         7.2500  10.5000  31.2500 Du        
  13827 ****         7.2500  10.5000  31.5000 Du        
  13828 ****         7.2500  10.5000  31.7500 Du        
  13829 ****         7.2500  10.5000  32.0000 Du        
  13830 ****         7.2500  10.5000  32.2500 Du        
  13831 ****         7.2500  10.5000  32.5000 Du        
  13832 ****         7.2500  10.5000  32.7500 Du        
  13833 ****         7.2500  10.7500  31.2500 Du        
  13834 ****         7.2500  10.7500  31.5000 Du        
  13835 ****         7.2500  10.7500  31.7500 Du        
  13836 ****         7.2500  10.7500  32.0000 Du        
  13837 ****         7.2500  10.7500  32.2500 Du        
  13838 ****         7.2500  10.7500  32.5000 Du        
  13839 ****         7.2500  10.7500  32.7500 Du        
  13840 ****         7.2500  10.7500  33.0000 Du        
  13841 ****         7.2500  11.0000  31.2500 Du        
  13842 ****         7.2500  11.0000  31.5000 Du        
  13843 ****         7.2500  11.0000  31.7500 Du        
  13844 ****         7.2500  11.0000  32.0000 Du        
  13845 ****         7.2500  11.0000  32.2500 Du        
  13846 ****         7.2500  11.0000  32.5000 Du        
  13847 ****         7.2500  11.0000  32.7500 Du        
  13848 ****         7.2500  11.0000  33.0000 Du        
  13849 ****         7.2500  11.0000  33.2500 Du        
  13850 ****         7.2500  11.2500  31.7500 Du        
  13851 ****         7.2500  11.2500  32.0000 Du        
  13852 ****         7.2500  11.2500  32.2500 Du        
  13853 ****         7.2500  11.2500  32.5000 Du        
  13854 ****         7.2500  11.2500  32.7500 Du        
  13855 ****         7.2500  11.2500  33.0000 Du        
  13856 ****         7.2500  11.2500  33.2500 Du        
  13857 ****         7.2500  11.5000  32.0000 Du        
  13858 ****         7.2500  11.5000  32.2500 Du        
  13859 ****         7.2500  11.5000  32.5000 Du        
  13860 ****         7.2500  11.5000  32.7500 Du        
  13861 ****         7.2500  11.5000  33.0000 Du        
  13862 ****         7.2500  11.5000  33.2500 Du        
  13863 ****         7.2500  11.5000  33.5000 Du        
  13864 ****         7.2500  11.7500  32.5000 Du        
  13865 ****         7.2500  11.7500  32.7500 Du        
  13866 ****         7.2500  11.7500  33.0000 Du        
  13867 ****         7.2500  11.7500  33.2500 Du        
  13868 ****         7.2500  11.7500  33.5000 Du        
  13869 ****         7.2500  11.7500  33.7500 Du        
  13870 ****         7.2500  12.0000  33.0000 Du        
  13871 ****         7.2500  12.0000  33.2500 Du        
  13872 ****         7.2500  12.0000  33.5000 Du        
  13873 ****         7.2500  12.0000  33.7500 Du        
  13874 ****         7.2500  12.2500  33.2500 Du        
  13875 ****         7.2500  12.2500  33.5000 Du        
  13876 ****         7.2500  12.2500  33.7500 Du        
  13877 ****         7.2500  12.2500  34.0000 Du        
  13878 ****         7.2500  12.5000  33.5000 Du        
  13879 ****         7.2500  12.5000  33.7500 Du        
  13880 ****         7.2500  12.5000  34.0000 Du        
  13881 ****         7.2500  12.7500  33.7500 Du        
  13882 ****         7.2500  12.7500  34.0000 Du        
  13883 ****         7.2500  12.7500  34.2500 Du        
  13884 ****         7.2500  13.0000  34.2500 Du        
  13885 ****         7.2500  13.2500  40.7500 Du        
  13886 ****         7.2500  13.2500  41.0000 Du        
  13887 ****         7.2500  13.2500  41.2500 Du        
  13888 ****         7.2500  13.5000  40.2500 Du        
  13889 ****         7.2500  13.5000  40.5000 Du        
  13890 ****         7.2500  13.5000  40.7500 Du        
  13891 ****         7.2500  13.5000  41.0000 Du        
  13892 ****         7.2500  13.5000  41.2500 Du        
  13893 ****         7.2500  13.5000  41.5000 Du        
  13894 ****         7.2500  13.7500  39.7500 Du        
  13895 ****         7.2500  13.7500  40.0000 Du        
  13896 ****         7.2500  13.7500  40.2500 Du        
  13897 ****         7.2500  13.7500  40.5000 Du        
  13898 ****         7.2500  13.7500  40.7500 Du        
  13899 ****         7.2500  13.7500  41.0000 Du        
  13900 ****         7.2500  13.7500  41.2500 Du        
  13901 ****         7.2500  13.7500  41.5000 Du        
  13902 ****         7.2500  13.7500  41.7500 Du        
  13903 ****         7.2500  14.0000  39.0000 Du        
  13904 ****         7.2500  14.0000  39.2500 Du        
  13905 ****         7.2500  14.0000  39.5000 Du        
  13906 ****         7.2500  14.0000  39.7500 Du        
  13907 ****         7.2500  14.0000  40.0000 Du        
  13908 ****         7.2500  14.0000  40.2500 Du        
  13909 ****         7.2500  14.0000  40.5000 Du        
  13910 ****         7.2500  14.0000  40.7500 Du        
  13911 ****         7.2500  14.0000  41.0000 Du        
  13912 ****         7.2500  14.0000  41.2500 Du        
  13913 ****         7.2500  14.0000  41.5000 Du        
  13914 ****         7.2500  14.0000  41.7500 Du        
  13915 ****         7.2500  14.0000  42.0000 Du        
  13916 ****         7.2500  14.2500  38.7500 Du        
  13917 ****         7.2500  14.2500  39.0000 Du        
  13918 ****         7.2500  14.2500  39.2500 Du        
  13919 ****         7.2500  14.2500  39.5000 Du        
  13920 ****         7.2500  14.2500  39.7500 Du        
  13921 ****         7.2500  14.2500  40.0000 Du        
  13922 ****         7.2500  14.2500  40.2500 Du        
  13923 ****         7.2500  14.2500  40.5000 Du        
  13924 ****         7.2500  14.2500  40.7500 Du        
  13925 ****         7.2500  14.2500  41.0000 Du        
  13926 ****         7.2500  14.2500  41.2500 Du        
  13927 ****         7.2500  14.2500  41.5000 Du        
  13928 ****         7.2500  14.2500  41.7500 Du        
  13929 ****         7.2500  14.2500  42.0000 Du        
  13930 ****         7.2500  14.5000  38.7500 Du        
  13931 ****         7.2500  14.5000  39.0000 Du        
  13932 ****         7.2500  14.5000  39.2500 Du        
  13933 ****         7.2500  14.5000  39.5000 Du        
  13934 ****         7.2500  14.5000  39.7500 Du        
  13935 ****         7.2500  14.5000  40.0000 Du        
  13936 ****         7.2500  14.5000  40.2500 Du        
  13937 ****         7.2500  14.5000  40.5000 Du        
  13938 ****         7.2500  14.5000  40.7500 Du        
  13939 ****         7.2500  14.5000  41.0000 Du        
  13940 ****         7.2500  14.5000  41.2500 Du        
  13941 ****         7.2500  14.5000  41.5000 Du        
  13942 ****         7.2500  14.5000  41.7500 Du        
  13943 ****         7.2500  14.5000  42.0000 Du        
  13944 ****         7.2500  14.5000  42.2500 Du        
  13945 ****         7.2500  14.5000  42.5000 Du        
  13946 ****         7.2500  14.7500  38.2500 Du        
  13947 ****         7.2500  14.7500  38.5000 Du        
  13948 ****         7.2500  14.7500  38.7500 Du        
  13949 ****         7.2500  14.7500  39.0000 Du        
  13950 ****         7.2500  14.7500  39.2500 Du        
  13951 ****         7.2500  14.7500  39.5000 Du        
  13952 ****         7.2500  14.7500  39.7500 Du        
  13953 ****         7.2500  14.7500  40.0000 Du        
  13954 ****         7.2500  14.7500  40.2500 Du        
  13955 ****         7.2500  14.7500  40.5000 Du        
  13956 ****         7.2500  14.7500  40.7500 Du        
  13957 ****         7.2500  14.7500  41.0000 Du        
  13958 ****         7.2500  14.7500  41.2500 Du        
  13959 ****         7.2500  14.7500  41.5000 Du        
  13960 ****         7.2500  14.7500  41.7500 Du        
  13961 ****         7.2500  14.7500  42.0000 Du        
  13962 ****         7.2500  14.7500  42.2500 Du        
  13963 ****         7.2500  14.7500  42.5000 Du        
  13964 ****         7.2500  14.7500  42.7500 Du        
  13965 ****         7.2500  14.7500  43.0000 Du        
  13966 ****         7.2500  14.7500  43.2500 Du        
  13967 ****         7.2500  15.0000  37.7500 Du        
  13968 ****         7.2500  15.0000  38.0000 Du        
  13969 ****         7.2500  15.0000  38.2500 Du        
  13970 ****         7.2500  15.0000  38.5000 Du        
  13971 ****         7.2500  15.0000  38.7500 Du        
  13972 ****         7.2500  15.0000  39.0000 Du        
  13973 ****         7.2500  15.0000  39.2500 Du        
  13974 ****         7.2500  15.0000  39.5000 Du        
  13975 ****         7.2500  15.0000  39.7500 Du        
  13976 ****         7.2500  15.0000  40.0000 Du        
  13977 ****         7.2500  15.0000  40.2500 Du        
  13978 ****         7.2500  15.0000  40.5000 Du        
  13979 ****         7.2500  15.0000  40.7500 Du        
  13980 ****         7.2500  15.0000  41.0000 Du        
  13981 ****         7.2500  15.0000  41.2500 Du        
  13982 ****         7.2500  15.0000  41.5000 Du        
  13983 ****         7.2500  15.0000  41.7500 Du        
  13984 ****         7.2500  15.0000  42.0000 Du        
  13985 ****         7.2500  15.0000  42.2500 Du        
  13986 ****         7.2500  15.0000  42.5000 Du        
  13987 ****         7.2500  15.0000  42.7500 Du        
  13988 ****         7.2500  15.0000  43.0000 Du        
  13989 ****         7.2500  15.0000  43.2500 Du        
  13990 ****         7.2500  15.0000  43.5000 Du        
  13991 ****         7.2500  15.2500  36.5000 Du        
  13992 ****         7.2500  15.2500  36.7500 Du        
  13993 ****         7.2500  15.2500  37.0000 Du        
  13994 ****         7.2500  15.2500  37.2500 Du        
  13995 ****         7.2500  15.2500  37.5000 Du        
  13996 ****         7.2500  15.2500  37.7500 Du        
  13997 ****         7.2500  15.2500  38.0000 Du        
  13998 ****         7.2500  15.2500  38.2500 Du        
  13999 ****         7.2500  15.2500  38.5000 Du        
  14000 ****         7.2500  15.2500  38.7500 Du        
  14001 ****         7.2500  15.2500  39.0000 Du        
  14002 ****         7.2500  15.2500  39.2500 Du        
  14003 ****         7.2500  15.2500  39.5000 Du        
  14004 ****         7.2500  15.2500  39.7500 Du        
  14005 ****         7.2500  15.2500  40.0000 Du        
  14006 ****         7.2500  15.2500  40.2500 Du        
  14007 ****         7.2500  15.2500  40.5000 Du        
  14008 ****         7.2500  15.2500  40.7500 Du        
  14009 ****         7.2500  15.2500  41.0000 Du        
  14010 ****         7.2500  15.2500  41.2500 Du        
  14011 ****         7.2500  15.2500  41.5000 Du        
  14012 ****         7.2500  15.2500  41.7500 Du        
  14013 ****         7.2500  15.2500  42.0000 Du        
  14014 ****         7.2500  15.2500  42.2500 Du        
  14015 ****         7.2500  15.2500  42.5000 Du        
  14016 ****         7.2500  15.2500  42.7500 Du        
  14017 ****         7.2500  15.2500  43.0000 Du        
  14018 ****         7.2500  15.2500  43.2500 Du        
  14019 ****         7.2500  15.2500  43.5000 Du        
  14020 ****         7.2500  15.5000  36.5000 Du        
  14021 ****         7.2500  15.5000  36.7500 Du        
  14022 ****         7.2500  15.5000  37.0000 Du        
  14023 ****         7.2500  15.5000  37.2500 Du        
  14024 ****         7.2500  15.5000  37.5000 Du        
  14025 ****         7.2500  15.5000  37.7500 Du        
  14026 ****         7.2500  15.5000  38.0000 Du        
  14027 ****         7.2500  15.5000  38.2500 Du        
  14028 ****         7.2500  15.5000  38.5000 Du        
  14029 ****         7.2500  15.5000  38.7500 Du        
  14030 ****         7.2500  15.5000  39.0000 Du        
  14031 ****         7.2500  15.5000  39.2500 Du        
  14032 ****         7.2500  15.5000  39.5000 Du        
  14033 ****         7.2500  15.5000  39.7500 Du        
  14034 ****         7.2500  15.5000  40.0000 Du        
  14035 ****         7.2500  15.5000  40.2500 Du        
  14036 ****         7.2500  15.5000  40.5000 Du        
  14037 ****         7.2500  15.5000  40.7500 Du        
  14038 ****         7.2500  15.5000  41.0000 Du        
  14039 ****         7.2500  15.5000  41.2500 Du        
  14040 ****         7.2500  15.5000  41.5000 Du        
  14041 ****         7.2500  15.5000  41.7500 Du        
  14042 ****         7.2500  15.5000  42.0000 Du        
  14043 ****         7.2500  15.5000  42.2500 Du        
  14044 ****         7.2500  15.5000  42.5000 Du        
  14045 ****         7.2500  15.5000  42.7500 Du        
  14046 ****         7.2500  15.5000  43.0000 Du        
  14047 ****         7.2500  15.5000  43.2500 Du        
  14048 ****         7.2500  15.5000  43.5000 Du        
  14049 ****         7.2500  15.7500  36.5000 Du        
  14050 ****         7.2500  15.7500  36.7500 Du        
  14051 ****         7.2500  15.7500  37.0000 Du        
  14052 ****         7.2500  15.7500  37.2500 Du        
  14053 ****         7.2500  15.7500  37.5000 Du        
  14054 ****         7.2500  15.7500  37.7500 Du        
  14055 ****         7.2500  15.7500  38.0000 Du        
  14056 ****         7.2500  15.7500  38.2500 Du        
  14057 ****         7.2500  15.7500  38.5000 Du        
  14058 ****         7.2500  15.7500  38.7500 Du        
  14059 ****         7.2500  15.7500  39.0000 Du        
  14060 ****         7.2500  15.7500  39.2500 Du        
  14061 ****         7.2500  15.7500  39.5000 Du        
  14062 ****         7.2500  15.7500  39.7500 Du        
  14063 ****         7.2500  15.7500  40.0000 Du        
  14064 ****         7.2500  15.7500  40.2500 Du        
  14065 ****         7.2500  15.7500  40.5000 Du        
  14066 ****         7.2500  15.7500  40.7500 Du        
  14067 ****         7.2500  15.7500  41.0000 Du        
  14068 ****         7.2500  15.7500  41.2500 Du        
  14069 ****         7.2500  15.7500  41.5000 Du        
  14070 ****         7.2500  15.7500  41.7500 Du        
  14071 ****         7.2500  15.7500  42.0000 Du        
  14072 ****         7.2500  15.7500  42.2500 Du        
  14073 ****         7.2500  15.7500  42.5000 Du        
  14074 ****         7.2500  15.7500  42.7500 Du        
  14075 ****         7.2500  15.7500  43.0000 Du        
  14076 ****         7.2500  15.7500  43.2500 Du        
  14077 ****         7.2500  15.7500  43.5000 Du        
  14078 ****         7.2500  16.0000  36.5000 Du        
  14079 ****         7.2500  16.0000  36.7500 Du        
  14080 ****         7.2500  16.0000  37.0000 Du        
  14081 ****         7.2500  16.0000  37.2500 Du        
  14082 ****         7.2500  16.0000  37.5000 Du        
  14083 ****         7.2500  16.0000  37.7500 Du        
  14084 ****         7.2500  16.0000  38.0000 Du        
  14085 ****         7.2500  16.0000  38.2500 Du        
  14086 ****         7.2500  16.0000  38.5000 Du        
  14087 ****         7.2500  16.0000  38.7500 Du        
  14088 ****         7.2500  16.0000  39.0000 Du        
  14089 ****         7.2500  16.0000  39.2500 Du        
  14090 ****         7.2500  16.0000  39.5000 Du        
  14091 ****         7.2500  16.0000  39.7500 Du        
  14092 ****         7.2500  16.0000  40.0000 Du        
  14093 ****         7.2500  16.0000  40.2500 Du        
  14094 ****         7.2500  16.0000  40.5000 Du        
  14095 ****         7.2500  16.0000  40.7500 Du        
  14096 ****         7.2500  16.0000  41.0000 Du        
  14097 ****         7.2500  16.0000  41.2500 Du        
  14098 ****         7.2500  16.0000  41.5000 Du        
  14099 ****         7.2500  16.0000  41.7500 Du        
  14100 ****         7.2500  16.0000  42.0000 Du        
  14101 ****         7.2500  16.0000  42.2500 Du        
  14102 ****         7.2500  16.0000  42.5000 Du        
  14103 ****         7.2500  16.0000  42.7500 Du        
  14104 ****         7.2500  16.0000  43.0000 Du        
  14105 ****         7.2500  16.0000  43.2500 Du        
  14106 ****         7.2500  16.2500  36.7500 Du        
  14107 ****         7.2500  16.2500  37.0000 Du        
  14108 ****         7.2500  16.2500  37.2500 Du        
  14109 ****         7.2500  16.2500  37.5000 Du        
  14110 ****         7.2500  16.2500  37.7500 Du        
  14111 ****         7.2500  16.2500  38.0000 Du        
  14112 ****         7.2500  16.2500  38.2500 Du        
  14113 ****         7.2500  16.2500  38.5000 Du        
  14114 ****         7.2500  16.2500  38.7500 Du        
  14115 ****         7.2500  16.2500  39.0000 Du        
  14116 ****         7.2500  16.2500  39.2500 Du        
  14117 ****         7.2500  16.2500  39.5000 Du        
  14118 ****         7.2500  16.2500  39.7500 Du        
  14119 ****         7.2500  16.2500  40.0000 Du        
  14120 ****         7.2500  16.2500  40.2500 Du        
  14121 ****         7.2500  16.2500  40.5000 Du        
  14122 ****         7.2500  16.2500  40.7500 Du        
  14123 ****         7.2500  16.2500  41.0000 Du        
  14124 ****         7.2500  16.2500  41.2500 Du        
  14125 ****         7.2500  16.2500  41.5000 Du        
  14126 ****         7.2500  16.2500  41.7500 Du        
  14127 ****         7.2500  16.2500  42.0000 Du        
  14128 ****         7.2500  16.2500  42.2500 Du        
  14129 ****         7.2500  16.2500  42.5000 Du        
  14130 ****         7.2500  16.2500  42.7500 Du        
  14131 ****         7.2500  16.2500  43.0000 Du        
  14132 ****         7.2500  16.2500  43.2500 Du        
  14133 ****         7.2500  16.5000  37.0000 Du        
  14134 ****         7.2500  16.5000  37.2500 Du        
  14135 ****         7.2500  16.5000  37.7500 Du        
  14136 ****         7.2500  16.5000  38.0000 Du        
  14137 ****         7.2500  16.5000  38.2500 Du        
  14138 ****         7.2500  16.5000  40.7500 Du        
  14139 ****         7.2500  16.5000  41.0000 Du        
  14140 ****         7.2500  16.5000  41.2500 Du        
  14141 ****         7.2500  16.5000  41.5000 Du        
  14142 ****         7.2500  16.5000  41.7500 Du        
  14143 ****         7.2500  16.5000  42.0000 Du        
  14144 ****         7.2500  16.5000  42.2500 Du        
  14145 ****         7.2500  16.5000  42.5000 Du        
  14146 ****         7.2500  16.5000  42.7500 Du        
  14147 ****         7.2500  16.5000  43.0000 Du        
  14148 ****         7.2500  16.7500  37.0000 Du        
  14149 ****         7.2500  16.7500  37.2500 Du        
  14150 ****         7.2500  16.7500  37.7500 Du        
  14151 ****         7.2500  16.7500  38.0000 Du        
  14152 ****         7.2500  16.7500  38.2500 Du        
  14153 ****         7.2500  16.7500  40.7500 Du        
  14154 ****         7.2500  16.7500  41.0000 Du        
  14155 ****         7.2500  16.7500  41.2500 Du        
  14156 ****         7.2500  16.7500  41.5000 Du        
  14157 ****         7.2500  16.7500  41.7500 Du        
  14158 ****         7.2500  16.7500  42.0000 Du        
  14159 ****         7.2500  16.7500  42.2500 Du        
  14160 ****         7.2500  16.7500  42.5000 Du        
  14161 ****         7.2500  16.7500  42.7500 Du        
  14162 ****         7.2500  16.7500  43.0000 Du        
  14163 ****         7.2500  17.0000  37.0000 Du        
  14164 ****         7.2500  17.0000  37.2500 Du        
  14165 ****         7.2500  17.0000  37.7500 Du        
  14166 ****         7.2500  17.0000  38.0000 Du        
  14167 ****         7.2500  17.0000  41.0000 Du        
  14168 ****         7.2500  17.0000  41.2500 Du        
  14169 ****         7.2500  17.0000  41.5000 Du        
  14170 ****         7.2500  17.0000  41.7500 Du        
  14171 ****         7.2500  17.0000  42.0000 Du        
  14172 ****         7.2500  17.0000  42.2500 Du        
  14173 ****         7.2500  17.0000  42.5000 Du        
  14174 ****         7.2500  17.0000  42.7500 Du        
  14175 ****         7.2500  17.2500  36.7500 Du        
  14176 ****         7.2500  17.2500  37.0000 Du        
  14177 ****         7.2500  17.2500  37.2500 Du        
  14178 ****         7.2500  17.2500  37.5000 Du        
  14179 ****         7.2500  17.2500  37.7500 Du        
  14180 ****         7.2500  17.2500  41.5000 Du        
  14181 ****         7.2500  17.2500  41.7500 Du        
  14182 ****         7.2500  17.2500  42.0000 Du        
  14183 ****         7.2500  17.2500  42.2500 Du        
  14184 ****         7.2500  17.2500  42.5000 Du        
  14185 ****         7.2500  17.2500  42.7500 Du        
  14186 ****         7.2500  17.5000  41.5000 Du        
  14187 ****         7.2500  17.5000  41.7500 Du        
  14188 ****         7.2500  17.5000  42.0000 Du        
  14189 ****         7.2500  17.5000  42.2500 Du        
  14190 ****         7.2500  17.5000  42.5000 Du        
  14191 ****         7.2500  17.5000  42.7500 Du        
  14192 ****         7.2500  17.7500  41.5000 Du        
  14193 ****         7.2500  17.7500  41.7500 Du        
  14194 ****         7.2500  17.7500  42.0000 Du        
  14195 ****         7.2500  17.7500  42.2500 Du        
  14196 ****         7.2500  17.7500  42.5000 Du        
  14197 ****         7.2500  17.7500  42.7500 Du        
  14198 ****         7.2500  18.0000  36.2500 Du        
  14199 ****         7.2500  18.0000  41.5000 Du        
  14200 ****         7.2500  18.0000  41.7500 Du        
  14201 ****         7.2500  18.0000  42.0000 Du        
  14202 ****         7.2500  18.0000  42.2500 Du        
  14203 ****         7.2500  18.0000  42.5000 Du        
  14204 ****         7.2500  18.2500  36.7500 Du        
  14205 ****         7.2500  18.2500  41.5000 Du        
  14206 ****         7.2500  18.2500  41.7500 Du        
  14207 ****         7.2500  18.2500  42.0000 Du        
  14208 ****         7.2500  18.2500  42.2500 Du        
  14209 ****         7.2500  18.5000  41.5000 Du        
  14210 ****         7.2500  18.5000  41.7500 Du        
  14211 ****         7.2500  18.5000  42.0000 Du        
  14212 ****         7.2500  18.5000  42.2500 Du        
  14213 ****         7.2500  18.7500  35.7500 Du        
  14214 ****         7.2500  18.7500  41.5000 Du        
  14215 ****         7.2500  18.7500  41.7500 Du        
  14216 ****         7.2500  18.7500  42.0000 Du        
  14217 ****         7.2500  19.0000  35.0000 Du        
  14218 ****         7.2500  19.0000  35.2500 Du        
  14219 ****         7.2500  19.0000  35.5000 Du        
  14220 ****         7.2500  19.0000  35.7500 Du        
  14221 ****         7.2500  19.0000  41.2500 Du        
  14222 ****         7.2500  19.0000  41.5000 Du        
  14223 ****         7.2500  19.0000  41.7500 Du        
  14224 ****         7.2500  19.0000  42.0000 Du        
  14225 ****         7.2500  19.2500  33.5000 Du        
  14226 ****         7.2500  19.2500  33.7500 Du        
  14227 ****         7.2500  19.2500  34.0000 Du        
  14228 ****         7.2500  19.2500  34.2500 Du        
  14229 ****         7.2500  19.2500  34.7500 Du        
  14230 ****         7.2500  19.2500  35.0000 Du        
  14231 ****         7.2500  19.2500  35.2500 Du        
  14232 ****         7.2500  19.2500  35.7500 Du        
  14233 ****         7.2500  19.2500  40.2500 Du        
  14234 ****         7.2500  19.2500  41.0000 Du        
  14235 ****         7.2500  19.2500  41.5000 Du        
  14236 ****         7.2500  19.2500  41.7500 Du        
  14237 ****         7.2500  19.5000  31.5000 Du        
  14238 ****         7.2500  19.5000  31.7500 Du        
  14239 ****         7.2500  19.5000  32.0000 Du        
  14240 ****         7.2500  19.5000  32.2500 Du        
  14241 ****         7.2500  19.5000  32.5000 Du        
  14242 ****         7.2500  19.5000  32.7500 Du        
  14243 ****         7.2500  19.5000  33.0000 Du        
  14244 ****         7.2500  19.5000  33.2500 Du        
  14245 ****         7.2500  19.5000  33.5000 Du        
  14246 ****         7.2500  19.5000  33.7500 Du        
  14247 ****         7.2500  19.5000  34.0000 Du        
  14248 ****         7.2500  19.5000  34.2500 Du        
  14249 ****         7.2500  19.5000  34.5000 Du        
  14250 ****         7.2500  19.5000  34.7500 Du        
  14251 ****         7.2500  19.5000  35.0000 Du        
  14252 ****         7.2500  19.7500  31.7500 Du        
  14253 ****         7.2500  19.7500  32.0000 Du        
  14254 ****         7.2500  19.7500  32.2500 Du        
  14255 ****         7.2500  19.7500  32.5000 Du        
  14256 ****         7.2500  19.7500  32.7500 Du        
  14257 ****         7.2500  19.7500  33.0000 Du        
  14258 ****         7.2500  19.7500  33.2500 Du        
  14259 ****         7.2500  19.7500  33.5000 Du        
  14260 ****         7.2500  19.7500  33.7500 Du        
  14261 ****         7.2500  19.7500  34.0000 Du        
  14262 ****         7.2500  19.7500  34.2500 Du        
  14263 ****         7.2500  19.7500  34.5000 Du        
  14264 ****         7.2500  19.7500  34.7500 Du        
  14265 ****         7.2500  19.7500  35.0000 Du        
  14266 ****         7.2500  19.7500  35.2500 Du        
  14267 ****         7.2500  20.0000  31.7500 Du        
  14268 ****         7.2500  20.0000  32.0000 Du        
  14269 ****         7.2500  20.0000  32.2500 Du        
  14270 ****         7.2500  20.0000  32.5000 Du        
  14271 ****         7.2500  20.0000  32.7500 Du        
  14272 ****         7.2500  20.0000  33.0000 Du        
  14273 ****         7.2500  20.0000  33.2500 Du        
  14274 ****         7.2500  20.0000  33.5000 Du        
  14275 ****         7.2500  20.0000  33.7500 Du        
  14276 ****         7.2500  20.0000  34.0000 Du        
  14277 ****         7.2500  20.0000  34.2500 Du        
  14278 ****         7.2500  20.0000  34.5000 Du        
  14279 ****         7.2500  20.0000  34.7500 Du        
  14280 ****         7.2500  20.0000  35.0000 Du        
  14281 ****         7.2500  20.2500  32.0000 Du        
  14282 ****         7.2500  20.2500  32.2500 Du        
  14283 ****         7.2500  20.2500  32.5000 Du        
  14284 ****         7.2500  20.2500  32.7500 Du        
  14285 ****         7.2500  20.2500  33.0000 Du        
  14286 ****         7.2500  20.2500  33.2500 Du        
  14287 ****         7.2500  20.2500  33.5000 Du        
  14288 ****         7.2500  20.2500  33.7500 Du        
  14289 ****         7.2500  20.2500  34.0000 Du        
  14290 ****         7.2500  20.2500  34.2500 Du        
  14291 ****         7.2500  20.2500  34.5000 Du        
  14292 ****         7.2500  20.2500  34.7500 Du        
  14293 ****         7.2500  20.2500  35.0000 Du        
  14294 ****         7.2500  20.5000  32.0000 Du        
  14295 ****         7.2500  20.5000  32.2500 Du        
  14296 ****         7.2500  20.5000  32.5000 Du        
  14297 ****         7.2500  20.5000  32.7500 Du        
  14298 ****         7.2500  20.5000  33.0000 Du        
  14299 ****         7.2500  20.5000  33.2500 Du        
  14300 ****         7.2500  20.5000  33.5000 Du        
  14301 ****         7.2500  20.5000  33.7500 Du        
  14302 ****         7.2500  20.5000  34.0000 Du        
  14303 ****         7.2500  20.5000  34.2500 Du        
  14304 ****         7.2500  20.5000  34.5000 Du        
  14305 ****         7.2500  20.5000  34.7500 Du        
  14306 ****         7.2500  20.7500  32.2500 Du        
  14307 ****         7.2500  20.7500  32.5000 Du        
  14308 ****         7.2500  20.7500  32.7500 Du        
  14309 ****         7.2500  20.7500  33.0000 Du        
  14310 ****         7.2500  20.7500  33.2500 Du        
  14311 ****         7.2500  21.0000  32.5000 Du        
  14312 ****         7.2500  21.0000  32.7500 Du        
  14313 ****         7.5000   9.7500  31.5000 Du        
  14314 ****         7.5000   9.7500  31.7500 Du        
  14315 ****         7.5000   9.7500  32.0000 Du        
  14316 ****         7.5000  10.0000  31.5000 Du        
  14317 ****         7.5000  10.0000  31.7500 Du        
  14318 ****         7.5000  10.0000  32.0000 Du        
  14319 ****         7.5000  10.0000  32.2500 Du        
  14320 ****         7.5000  10.0000  32.5000 Du        
  14321 ****         7.5000  10.2500  31.2500 Du        
  14322 ****         7.5000  10.2500  31.5000 Du        
  14323 ****         7.5000  10.2500  31.7500 Du        
  14324 ****         7.5000  10.2500  32.0000 Du        
  14325 ****         7.5000  10.2500  32.2500 Du        
  14326 ****         7.5000  10.2500  32.5000 Du        
  14327 ****         7.5000  10.2500  32.7500 Du        
  14328 ****         7.5000  10.5000  31.2500 Du        
  14329 ****         7.5000  10.5000  31.5000 Du        
  14330 ****         7.5000  10.5000  31.7500 Du        
  14331 ****         7.5000  10.5000  32.0000 Du        
  14332 ****         7.5000  10.5000  32.2500 Du        
  14333 ****         7.5000  10.5000  32.5000 Du        
  14334 ****         7.5000  10.5000  32.7500 Du        
  14335 ****         7.5000  10.5000  33.0000 Du        
  14336 ****         7.5000  10.7500  31.5000 Du        
  14337 ****         7.5000  10.7500  31.7500 Du        
  14338 ****         7.5000  10.7500  32.0000 Du        
  14339 ****         7.5000  10.7500  32.2500 Du        
  14340 ****         7.5000  10.7500  32.5000 Du        
  14341 ****         7.5000  10.7500  32.7500 Du        
  14342 ****         7.5000  10.7500  33.0000 Du        
  14343 ****         7.5000  10.7500  33.2500 Du        
  14344 ****         7.5000  11.0000  31.5000 Du        
  14345 ****         7.5000  11.0000  31.7500 Du        
  14346 ****         7.5000  11.0000  32.0000 Du        
  14347 ****         7.5000  11.0000  32.2500 Du        
  14348 ****         7.5000  11.0000  32.5000 Du        
  14349 ****         7.5000  11.0000  32.7500 Du        
  14350 ****         7.5000  11.0000  33.0000 Du        
  14351 ****         7.5000  11.0000  33.2500 Du        
  14352 ****         7.5000  11.2500  31.7500 Du        
  14353 ****         7.5000  11.2500  32.0000 Du        
  14354 ****         7.5000  11.2500  32.2500 Du        
  14355 ****         7.5000  11.2500  32.5000 Du        
  14356 ****         7.5000  11.2500  32.7500 Du        
  14357 ****         7.5000  11.2500  33.0000 Du        
  14358 ****         7.5000  11.2500  33.2500 Du        
  14359 ****         7.5000  11.2500  33.5000 Du        
  14360 ****         7.5000  11.5000  32.0000 Du        
  14361 ****         7.5000  11.5000  32.2500 Du        
  14362 ****         7.5000  11.5000  32.5000 Du        
  14363 ****         7.5000  11.5000  32.7500 Du        
  14364 ****         7.5000  11.5000  33.0000 Du        
  14365 ****         7.5000  11.5000  33.2500 Du        
  14366 ****         7.5000  11.5000  33.5000 Du        
  14367 ****         7.5000  11.7500  32.5000 Du        
  14368 ****         7.5000  11.7500  32.7500 Du        
  14369 ****         7.5000  11.7500  33.0000 Du        
  14370 ****         7.5000  11.7500  33.2500 Du        
  14371 ****         7.5000  11.7500  33.5000 Du        
  14372 ****         7.5000  11.7500  33.7500 Du        
  14373 ****         7.5000  12.0000  33.0000 Du        
  14374 ****         7.5000  12.0000  33.2500 Du        
  14375 ****         7.5000  12.0000  33.5000 Du        
  14376 ****         7.5000  12.0000  33.7500 Du        
  14377 ****         7.5000  12.2500  33.2500 Du        
  14378 ****         7.5000  12.2500  33.5000 Du        
  14379 ****         7.5000  12.2500  33.7500 Du        
  14380 ****         7.5000  12.2500  34.0000 Du        
  14381 ****         7.5000  12.5000  33.5000 Du        
  14382 ****         7.5000  12.5000  33.7500 Du        
  14383 ****         7.5000  12.5000  34.0000 Du        
  14384 ****         7.5000  13.2500  40.7500 Du        
  14385 ****         7.5000  13.2500  41.0000 Du        
  14386 ****         7.5000  13.5000  40.2500 Du        
  14387 ****         7.5000  13.5000  40.5000 Du        
  14388 ****         7.5000  13.5000  40.7500 Du        
  14389 ****         7.5000  13.5000  41.0000 Du        
  14390 ****         7.5000  13.5000  41.2500 Du        
  14391 ****         7.5000  13.7500  39.7500 Du        
  14392 ****         7.5000  13.7500  40.0000 Du        
  14393 ****         7.5000  13.7500  40.2500 Du        
  14394 ****         7.5000  13.7500  40.5000 Du        
  14395 ****         7.5000  13.7500  40.7500 Du        
  14396 ****         7.5000  13.7500  41.0000 Du        
  14397 ****         7.5000  13.7500  41.2500 Du        
  14398 ****         7.5000  14.0000  39.5000 Du        
  14399 ****         7.5000  14.0000  39.7500 Du        
  14400 ****         7.5000  14.0000  40.0000 Du        
  14401 ****         7.5000  14.0000  40.2500 Du        
  14402 ****         7.5000  14.0000  40.5000 Du        
  14403 ****         7.5000  14.0000  40.7500 Du        
  14404 ****         7.5000  14.0000  41.0000 Du        
  14405 ****         7.5000  14.0000  41.2500 Du        
  14406 ****         7.5000  14.0000  41.5000 Du        
  14407 ****         7.5000  14.2500  39.2500 Du        
  14408 ****         7.5000  14.2500  39.5000 Du        
  14409 ****         7.5000  14.2500  39.7500 Du        
  14410 ****         7.5000  14.2500  40.0000 Du        
  14411 ****         7.5000  14.2500  40.2500 Du        
  14412 ****         7.5000  14.2500  40.5000 Du        
  14413 ****         7.5000  14.2500  40.7500 Du        
  14414 ****         7.5000  14.2500  41.0000 Du        
  14415 ****         7.5000  14.2500  41.2500 Du        
  14416 ****         7.5000  14.2500  41.5000 Du        
  14417 ****         7.5000  14.5000  39.0000 Du        
  14418 ****         7.5000  14.5000  39.2500 Du        
  14419 ****         7.5000  14.5000  39.5000 Du        
  14420 ****         7.5000  14.5000  39.7500 Du        
  14421 ****         7.5000  14.5000  40.0000 Du        
  14422 ****         7.5000  14.5000  40.2500 Du        
  14423 ****         7.5000  14.5000  40.5000 Du        
  14424 ****         7.5000  14.5000  40.7500 Du        
  14425 ****         7.5000  14.5000  41.0000 Du        
  14426 ****         7.5000  14.5000  41.2500 Du        
  14427 ****         7.5000  14.5000  41.5000 Du        
  14428 ****         7.5000  14.5000  41.7500 Du        
  14429 ****         7.5000  14.7500  38.7500 Du        
  14430 ****         7.5000  14.7500  39.0000 Du        
  14431 ****         7.5000  14.7500  39.2500 Du        
  14432 ****         7.5000  14.7500  39.5000 Du        
  14433 ****         7.5000  14.7500  39.7500 Du        
  14434 ****         7.5000  14.7500  40.0000 Du        
  14435 ****         7.5000  14.7500  40.2500 Du        
  14436 ****         7.5000  14.7500  40.5000 Du        
  14437 ****         7.5000  14.7500  40.7500 Du        
  14438 ****         7.5000  14.7500  41.0000 Du        
  14439 ****         7.5000  14.7500  41.2500 Du        
  14440 ****         7.5000  14.7500  41.5000 Du        
  14441 ****         7.5000  14.7500  41.7500 Du        
  14442 ****         7.5000  14.7500  42.0000 Du        
  14443 ****         7.5000  14.7500  42.2500 Du        
  14444 ****         7.5000  15.0000  38.2500 Du        
  14445 ****         7.5000  15.0000  38.5000 Du        
  14446 ****         7.5000  15.0000  38.7500 Du        
  14447 ****         7.5000  15.0000  39.0000 Du        
  14448 ****         7.5000  15.0000  39.2500 Du        
  14449 ****         7.5000  15.0000  39.5000 Du        
  14450 ****         7.5000  15.0000  39.7500 Du        
  14451 ****         7.5000  15.0000  40.0000 Du        
  14452 ****         7.5000  15.0000  40.2500 Du        
  14453 ****         7.5000  15.0000  40.5000 Du        
  14454 ****         7.5000  15.0000  40.7500 Du        
  14455 ****         7.5000  15.0000  41.0000 Du        
  14456 ****         7.5000  15.0000  41.2500 Du        
  14457 ****         7.5000  15.0000  41.5000 Du        
  14458 ****         7.5000  15.0000  41.7500 Du        
  14459 ****         7.5000  15.0000  42.0000 Du        
  14460 ****         7.5000  15.0000  42.2500 Du        
  14461 ****         7.5000  15.0000  42.5000 Du        
  14462 ****         7.5000  15.0000  42.7500 Du        
  14463 ****         7.5000  15.0000  43.0000 Du        
  14464 ****         7.5000  15.2500  38.0000 Du        
  14465 ****         7.5000  15.2500  38.2500 Du        
  14466 ****         7.5000  15.2500  38.5000 Du        
  14467 ****         7.5000  15.2500  38.7500 Du        
  14468 ****         7.5000  15.2500  39.0000 Du        
  14469 ****         7.5000  15.2500  39.2500 Du        
  14470 ****         7.5000  15.2500  39.5000 Du        
  14471 ****         7.5000  15.2500  39.7500 Du        
  14472 ****         7.5000  15.2500  40.0000 Du        
  14473 ****         7.5000  15.2500  40.2500 Du        
  14474 ****         7.5000  15.2500  40.5000 Du        
  14475 ****         7.5000  15.2500  40.7500 Du        
  14476 ****         7.5000  15.2500  41.0000 Du        
  14477 ****         7.5000  15.2500  41.2500 Du        
  14478 ****         7.5000  15.2500  41.5000 Du        
  14479 ****         7.5000  15.2500  41.7500 Du        
  14480 ****         7.5000  15.2500  42.0000 Du        
  14481 ****         7.5000  15.2500  42.2500 Du        
  14482 ****         7.5000  15.2500  42.5000 Du        
  14483 ****         7.5000  15.2500  42.7500 Du        
  14484 ****         7.5000  15.2500  43.0000 Du        
  14485 ****         7.5000  15.2500  43.2500 Du        
  14486 ****         7.5000  15.5000  37.0000 Du        
  14487 ****         7.5000  15.5000  37.2500 Du        
  14488 ****         7.5000  15.5000  37.5000 Du        
  14489 ****         7.5000  15.5000  37.7500 Du        
  14490 ****         7.5000  15.5000  38.0000 Du        
  14491 ****         7.5000  15.5000  38.2500 Du        
  14492 ****         7.5000  15.5000  38.5000 Du        
  14493 ****         7.5000  15.5000  38.7500 Du        
  14494 ****         7.5000  15.5000  39.0000 Du        
  14495 ****         7.5000  15.5000  39.2500 Du        
  14496 ****         7.5000  15.5000  39.5000 Du        
  14497 ****         7.5000  15.5000  39.7500 Du        
  14498 ****         7.5000  15.5000  40.0000 Du        
  14499 ****         7.5000  15.5000  40.2500 Du        
  14500 ****         7.5000  15.5000  40.5000 Du        
  14501 ****         7.5000  15.5000  40.7500 Du        
  14502 ****         7.5000  15.5000  41.0000 Du        
  14503 ****         7.5000  15.5000  41.2500 Du        
  14504 ****         7.5000  15.5000  41.5000 Du        
  14505 ****         7.5000  15.5000  41.7500 Du        
  14506 ****         7.5000  15.5000  42.0000 Du        
  14507 ****         7.5000  15.5000  42.2500 Du        
  14508 ****         7.5000  15.5000  42.5000 Du        
  14509 ****         7.5000  15.5000  42.7500 Du        
  14510 ****         7.5000  15.5000  43.0000 Du        
  14511 ****         7.5000  15.5000  43.2500 Du        
  14512 ****         7.5000  15.7500  36.7500 Du        
  14513 ****         7.5000  15.7500  37.0000 Du        
  14514 ****         7.5000  15.7500  37.2500 Du        
  14515 ****         7.5000  15.7500  37.5000 Du        
  14516 ****         7.5000  15.7500  37.7500 Du        
  14517 ****         7.5000  15.7500  38.0000 Du        
  14518 ****         7.5000  15.7500  38.2500 Du        
  14519 ****         7.5000  15.7500  38.5000 Du        
  14520 ****         7.5000  15.7500  38.7500 Du        
  14521 ****         7.5000  15.7500  39.0000 Du        
  14522 ****         7.5000  15.7500  39.2500 Du        
  14523 ****         7.5000  15.7500  39.5000 Du        
  14524 ****         7.5000  15.7500  39.7500 Du        
  14525 ****         7.5000  15.7500  40.0000 Du        
  14526 ****         7.5000  15.7500  40.2500 Du        
  14527 ****         7.5000  15.7500  40.5000 Du        
  14528 ****         7.5000  15.7500  40.7500 Du        
  14529 ****         7.5000  15.7500  41.0000 Du        
  14530 ****         7.5000  15.7500  41.2500 Du        
  14531 ****         7.5000  15.7500  41.5000 Du        
  14532 ****         7.5000  15.7500  41.7500 Du        
  14533 ****         7.5000  15.7500  42.0000 Du        
  14534 ****         7.5000  15.7500  42.2500 Du        
  14535 ****         7.5000  15.7500  42.5000 Du        
  14536 ****         7.5000  15.7500  42.7500 Du        
  14537 ****         7.5000  15.7500  43.0000 Du        
  14538 ****         7.5000  16.0000  36.7500 Du        
  14539 ****         7.5000  16.0000  37.0000 Du        
  14540 ****         7.5000  16.0000  37.2500 Du        
  14541 ****         7.5000  16.0000  37.5000 Du        
  14542 ****         7.5000  16.0000  37.7500 Du        
  14543 ****         7.5000  16.0000  38.0000 Du        
  14544 ****         7.5000  16.0000  38.2500 Du        
  14545 ****         7.5000  16.0000  38.5000 Du        
  14546 ****         7.5000  16.0000  38.7500 Du        
  14547 ****         7.5000  16.0000  39.0000 Du        
  14548 ****         7.5000  16.0000  39.2500 Du        
  14549 ****         7.5000  16.0000  39.5000 Du        
  14550 ****         7.5000  16.0000  39.7500 Du        
  14551 ****         7.5000  16.0000  40.7500 Du        
  14552 ****         7.5000  16.0000  41.0000 Du        
  14553 ****         7.5000  16.0000  41.2500 Du        
  14554 ****         7.5000  16.0000  41.5000 Du        
  14555 ****         7.5000  16.0000  41.7500 Du        
  14556 ****         7.5000  16.0000  42.0000 Du        
  14557 ****         7.5000  16.0000  42.2500 Du        
  14558 ****         7.5000  16.0000  42.5000 Du        
  14559 ****         7.5000  16.0000  42.7500 Du        
  14560 ****         7.5000  16.0000  43.0000 Du        
  14561 ****         7.5000  16.2500  37.0000 Du        
  14562 ****         7.5000  16.2500  37.2500 Du        
  14563 ****         7.5000  16.2500  37.5000 Du        
  14564 ****         7.5000  16.2500  37.7500 Du        
  14565 ****         7.5000  16.2500  38.0000 Du        
  14566 ****         7.5000  16.2500  38.2500 Du        
  14567 ****         7.5000  16.2500  38.5000 Du        
  14568 ****         7.5000  16.2500  38.7500 Du        
  14569 ****         7.5000  16.2500  39.0000 Du        
  14570 ****         7.5000  16.2500  41.2500 Du        
  14571 ****         7.5000  16.2500  41.5000 Du        
  14572 ****         7.5000  16.2500  41.7500 Du        
  14573 ****         7.5000  16.2500  42.0000 Du        
  14574 ****         7.5000  16.2500  42.2500 Du        
  14575 ****         7.5000  16.2500  42.5000 Du        
  14576 ****         7.5000  16.2500  42.7500 Du        
  14577 ****         7.5000  16.5000  37.0000 Du        
  14578 ****         7.5000  16.5000  37.2500 Du        
  14579 ****         7.5000  16.5000  37.5000 Du        
  14580 ****         7.5000  16.5000  37.7500 Du        
  14581 ****         7.5000  16.5000  38.0000 Du        
  14582 ****         7.5000  16.5000  38.2500 Du        
  14583 ****         7.5000  16.5000  41.5000 Du        
  14584 ****         7.5000  16.5000  41.7500 Du        
  14585 ****         7.5000  16.5000  42.0000 Du        
  14586 ****         7.5000  16.5000  42.2500 Du        
  14587 ****         7.5000  16.5000  42.5000 Du        
  14588 ****         7.5000  16.5000  42.7500 Du        
  14589 ****         7.5000  16.7500  37.0000 Du        
  14590 ****         7.5000  16.7500  37.2500 Du        
  14591 ****         7.5000  16.7500  37.5000 Du        
  14592 ****         7.5000  16.7500  37.7500 Du        
  14593 ****         7.5000  16.7500  38.0000 Du        
  14594 ****         7.5000  16.7500  38.2500 Du        
  14595 ****         7.5000  16.7500  41.7500 Du        
  14596 ****         7.5000  16.7500  42.0000 Du        
  14597 ****         7.5000  16.7500  42.2500 Du        
  14598 ****         7.5000  16.7500  42.5000 Du        
  14599 ****         7.5000  16.7500  42.7500 Du        
  14600 ****         7.5000  17.0000  37.0000 Du        
  14601 ****         7.5000  17.0000  37.2500 Du        
  14602 ****         7.5000  17.0000  37.5000 Du        
  14603 ****         7.5000  17.0000  37.7500 Du        
  14604 ****         7.5000  17.0000  38.0000 Du        
  14605 ****         7.5000  17.0000  41.7500 Du        
  14606 ****         7.5000  17.0000  42.0000 Du        
  14607 ****         7.5000  17.0000  42.2500 Du        
  14608 ****         7.5000  17.0000  42.5000 Du        
  14609 ****         7.5000  17.2500  37.0000 Du        
  14610 ****         7.5000  17.2500  37.2500 Du        
  14611 ****         7.5000  17.2500  37.5000 Du        
  14612 ****         7.5000  17.2500  37.7500 Du        
  14613 ****         7.5000  17.2500  38.0000 Du        
  14614 ****         7.5000  17.2500  42.0000 Du        
  14615 ****         7.5000  17.2500  42.2500 Du        
  14616 ****         7.5000  17.2500  42.5000 Du        
  14617 ****         7.5000  17.5000  37.0000 Du        
  14618 ****         7.5000  17.5000  37.2500 Du        
  14619 ****         7.5000  17.5000  42.2500 Du        
  14620 ****         7.5000  17.5000  42.5000 Du        
  14621 ****         7.5000  17.7500  36.7500 Du        
  14622 ****         7.5000  17.7500  37.0000 Du        
  14623 ****         7.5000  17.7500  37.2500 Du        
  14624 ****         7.5000  17.7500  37.5000 Du        
  14625 ****         7.5000  18.0000  36.7500 Du        
  14626 ****         7.5000  18.0000  37.0000 Du        
  14627 ****         7.5000  18.0000  37.2500 Du        
  14628 ****         7.5000  18.2500  36.7500 Du        
  14629 ****         7.5000  18.2500  37.0000 Du        
  14630 ****         7.5000  18.2500  37.2500 Du        
  14631 ****         7.5000  18.7500  36.2500 Du        
  14632 ****         7.5000  19.5000  31.7500 Du        
  14633 ****         7.5000  19.5000  32.0000 Du        
  14634 ****         7.5000  19.5000  32.2500 Du        
  14635 ****         7.5000  19.5000  32.5000 Du        
  14636 ****         7.5000  19.5000  32.7500 Du        
  14637 ****         7.5000  19.5000  33.0000 Du        
  14638 ****         7.5000  19.5000  33.2500 Du        
  14639 ****         7.5000  19.5000  34.0000 Du        
  14640 ****         7.5000  19.5000  34.2500 Du        
  14641 ****         7.5000  19.7500  31.7500 Du        
  14642 ****         7.5000  19.7500  32.0000 Du        
  14643 ****         7.5000  19.7500  32.2500 Du        
  14644 ****         7.5000  19.7500  32.5000 Du        
  14645 ****         7.5000  19.7500  32.7500 Du        
  14646 ****         7.5000  19.7500  33.0000 Du        
  14647 ****         7.5000  19.7500  33.2500 Du        
  14648 ****         7.5000  19.7500  33.5000 Du        
  14649 ****         7.5000  19.7500  33.7500 Du        
  14650 ****         7.5000  19.7500  34.0000 Du        
  14651 ****         7.5000  19.7500  34.2500 Du        
  14652 ****         7.5000  19.7500  34.5000 Du        
  14653 ****         7.5000  19.7500  34.7500 Du        
  14654 ****         7.5000  19.7500  35.0000 Du        
  14655 ****         7.5000  20.0000  31.7500 Du        
  14656 ****         7.5000  20.0000  32.0000 Du        
  14657 ****         7.5000  20.0000  32.2500 Du        
  14658 ****         7.5000  20.0000  32.5000 Du        
  14659 ****         7.5000  20.0000  32.7500 Du        
  14660 ****         7.5000  20.0000  33.0000 Du        
  14661 ****         7.5000  20.0000  33.2500 Du        
  14662 ****         7.5000  20.0000  33.5000 Du        
  14663 ****         7.5000  20.0000  33.7500 Du        
  14664 ****         7.5000  20.0000  34.0000 Du        
  14665 ****         7.5000  20.0000  34.2500 Du        
  14666 ****         7.5000  20.0000  34.5000 Du        
  14667 ****         7.5000  20.0000  34.7500 Du        
  14668 ****         7.5000  20.0000  35.0000 Du        
  14669 ****         7.5000  20.0000  35.2500 Du        
  14670 ****         7.5000  20.2500  31.7500 Du        
  14671 ****         7.5000  20.2500  32.0000 Du        
  14672 ****         7.5000  20.2500  32.2500 Du        
  14673 ****         7.5000  20.2500  32.5000 Du        
  14674 ****         7.5000  20.2500  32.7500 Du        
  14675 ****         7.5000  20.2500  33.0000 Du        
  14676 ****         7.5000  20.2500  33.2500 Du        
  14677 ****         7.5000  20.2500  33.5000 Du        
  14678 ****         7.5000  20.2500  33.7500 Du        
  14679 ****         7.5000  20.2500  34.0000 Du        
  14680 ****         7.5000  20.2500  34.2500 Du        
  14681 ****         7.5000  20.2500  34.7500 Du        
  14682 ****         7.5000  20.5000  32.0000 Du        
  14683 ****         7.5000  20.5000  32.2500 Du        
  14684 ****         7.5000  20.5000  32.5000 Du        
  14685 ****         7.5000  20.5000  32.7500 Du        
  14686 ****         7.5000  20.5000  33.0000 Du        
  14687 ****         7.5000  20.5000  33.2500 Du        
  14688 ****         7.5000  20.5000  33.5000 Du        
  14689 ****         7.5000  20.5000  33.7500 Du        
  14690 ****         7.5000  20.5000  34.0000 Du        
  14691 ****         7.5000  20.5000  34.2500 Du        
  14692 ****         7.5000  20.7500  32.0000 Du        
  14693 ****         7.5000  20.7500  32.2500 Du        
  14694 ****         7.5000  20.7500  32.5000 Du        
  14695 ****         7.5000  20.7500  32.7500 Du        
  14696 ****         7.5000  20.7500  33.0000 Du        
  14697 ****         7.5000  20.7500  33.2500 Du        
  14698 ****         7.7500   9.7500  31.7500 Du        
  14699 ****         7.7500   9.7500  32.0000 Du        
  14700 ****         7.7500   9.7500  32.2500 Du        
  14701 ****         7.7500  10.0000  31.7500 Du        
  14702 ****         7.7500  10.0000  32.0000 Du        
  14703 ****         7.7500  10.0000  32.2500 Du        
  14704 ****         7.7500  10.0000  32.5000 Du        
  14705 ****         7.7500  10.0000  32.7500 Du        
  14706 ****         7.7500  10.2500  31.5000 Du        
  14707 ****         7.7500  10.2500  31.7500 Du        
  14708 ****         7.7500  10.2500  32.0000 Du        
  14709 ****         7.7500  10.2500  32.2500 Du        
  14710 ****         7.7500  10.2500  32.5000 Du        
  14711 ****         7.7500  10.2500  32.7500 Du        
  14712 ****         7.7500  10.2500  33.0000 Du        
  14713 ****         7.7500  10.5000  31.5000 Du        
  14714 ****         7.7500  10.5000  31.7500 Du        
  14715 ****         7.7500  10.5000  32.0000 Du        
  14716 ****         7.7500  10.5000  32.2500 Du        
  14717 ****         7.7500  10.5000  32.5000 Du        
  14718 ****         7.7500  10.5000  32.7500 Du        
  14719 ****         7.7500  10.5000  33.0000 Du        
  14720 ****         7.7500  10.7500  31.7500 Du        
  14721 ****         7.7500  10.7500  32.0000 Du        
  14722 ****         7.7500  10.7500  32.2500 Du        
  14723 ****         7.7500  10.7500  32.5000 Du        
  14724 ****         7.7500  10.7500  32.7500 Du        
  14725 ****         7.7500  10.7500  33.0000 Du        
  14726 ****         7.7500  10.7500  33.2500 Du        
  14727 ****         7.7500  11.0000  31.7500 Du        
  14728 ****         7.7500  11.0000  32.0000 Du        
  14729 ****         7.7500  11.0000  32.2500 Du        
  14730 ****         7.7500  11.0000  32.5000 Du        
  14731 ****         7.7500  11.0000  32.7500 Du        
  14732 ****         7.7500  11.0000  33.0000 Du        
  14733 ****         7.7500  11.0000  33.2500 Du        
  14734 ****         7.7500  11.2500  32.0000 Du        
  14735 ****         7.7500  11.2500  32.2500 Du        
  14736 ****         7.7500  11.2500  32.5000 Du        
  14737 ****         7.7500  11.2500  32.7500 Du        
  14738 ****         7.7500  11.2500  33.0000 Du        
  14739 ****         7.7500  11.2500  33.2500 Du        
  14740 ****         7.7500  11.2500  33.5000 Du        
  14741 ****         7.7500  11.5000  32.2500 Du        
  14742 ****         7.7500  11.5000  32.5000 Du        
  14743 ****         7.7500  11.5000  32.7500 Du        
  14744 ****         7.7500  11.5000  33.0000 Du        
  14745 ****         7.7500  11.5000  33.2500 Du        
  14746 ****         7.7500  11.5000  33.5000 Du        
  14747 ****         7.7500  11.5000  33.7500 Du        
  14748 ****         7.7500  11.7500  32.5000 Du        
  14749 ****         7.7500  11.7500  32.7500 Du        
  14750 ****         7.7500  11.7500  33.0000 Du        
  14751 ****         7.7500  11.7500  33.2500 Du        
  14752 ****         7.7500  11.7500  33.5000 Du        
  14753 ****         7.7500  11.7500  33.7500 Du        
  14754 ****         7.7500  12.0000  32.7500 Du        
  14755 ****         7.7500  12.0000  33.0000 Du        
  14756 ****         7.7500  12.0000  33.2500 Du        
  14757 ****         7.7500  12.0000  33.5000 Du        
  14758 ****         7.7500  12.0000  33.7500 Du        
  14759 ****         7.7500  12.2500  33.2500 Du        
  14760 ****         7.7500  12.2500  33.5000 Du        
  14761 ****         7.7500  13.2500  40.7500 Du        
  14762 ****         7.7500  13.5000  40.0000 Du        
  14763 ****         7.7500  13.5000  40.2500 Du        
  14764 ****         7.7500  13.5000  40.5000 Du        
  14765 ****         7.7500  13.5000  40.7500 Du        
  14766 ****         7.7500  13.5000  41.0000 Du        
  14767 ****         7.7500  13.7500  39.7500 Du        
  14768 ****         7.7500  13.7500  40.0000 Du        
  14769 ****         7.7500  13.7500  40.2500 Du        
  14770 ****         7.7500  13.7500  40.5000 Du        
  14771 ****         7.7500  13.7500  40.7500 Du        
  14772 ****         7.7500  13.7500  41.0000 Du        
  14773 ****         7.7500  14.0000  39.5000 Du        
  14774 ****         7.7500  14.0000  39.7500 Du        
  14775 ****         7.7500  14.0000  40.0000 Du        
  14776 ****         7.7500  14.0000  40.2500 Du        
  14777 ****         7.7500  14.0000  40.5000 Du        
  14778 ****         7.7500  14.0000  40.7500 Du        
  14779 ****         7.7500  14.0000  41.0000 Du        
  14780 ****         7.7500  14.0000  41.2500 Du        
  14781 ****         7.7500  14.2500  39.5000 Du        
  14782 ****         7.7500  14.2500  39.7500 Du        
  14783 ****         7.7500  14.2500  40.0000 Du        
  14784 ****         7.7500  14.2500  40.2500 Du        
  14785 ****         7.7500  14.2500  40.5000 Du        
  14786 ****         7.7500  14.2500  40.7500 Du        
  14787 ****         7.7500  14.2500  41.0000 Du        
  14788 ****         7.7500  14.2500  41.2500 Du        
  14789 ****         7.7500  14.5000  39.2500 Du        
  14790 ****         7.7500  14.5000  39.5000 Du        
  14791 ****         7.7500  14.5000  39.7500 Du        
  14792 ****         7.7500  14.5000  40.0000 Du        
  14793 ****         7.7500  14.5000  40.2500 Du        
  14794 ****         7.7500  14.5000  40.5000 Du        
  14795 ****         7.7500  14.5000  40.7500 Du        
  14796 ****         7.7500  14.5000  41.0000 Du        
  14797 ****         7.7500  14.5000  41.2500 Du        
  14798 ****         7.7500  14.5000  41.5000 Du        
  14799 ****         7.7500  14.7500  39.0000 Du        
  14800 ****         7.7500  14.7500  39.2500 Du        
  14801 ****         7.7500  14.7500  39.5000 Du        
  14802 ****         7.7500  14.7500  39.7500 Du        
  14803 ****         7.7500  14.7500  40.0000 Du        
  14804 ****         7.7500  14.7500  40.2500 Du        
  14805 ****         7.7500  14.7500  40.5000 Du        
  14806 ****         7.7500  14.7500  40.7500 Du        
  14807 ****         7.7500  14.7500  41.0000 Du        
  14808 ****         7.7500  14.7500  41.2500 Du        
  14809 ****         7.7500  14.7500  41.5000 Du        
  14810 ****         7.7500  14.7500  41.7500 Du        
  14811 ****         7.7500  15.0000  38.7500 Du        
  14812 ****         7.7500  15.0000  39.0000 Du        
  14813 ****         7.7500  15.0000  39.2500 Du        
  14814 ****         7.7500  15.0000  39.5000 Du        
  14815 ****         7.7500  15.0000  39.7500 Du        
  14816 ****         7.7500  15.0000  40.0000 Du        
  14817 ****         7.7500  15.0000  40.2500 Du        
  14818 ****         7.7500  15.0000  40.5000 Du        
  14819 ****         7.7500  15.0000  40.7500 Du        
  14820 ****         7.7500  15.0000  41.0000 Du        
  14821 ****         7.7500  15.0000  41.2500 Du        
  14822 ****         7.7500  15.0000  41.5000 Du        
  14823 ****         7.7500  15.0000  41.7500 Du        
  14824 ****         7.7500  15.0000  42.0000 Du        
  14825 ****         7.7500  15.2500  38.2500 Du        
  14826 ****         7.7500  15.2500  38.5000 Du        
  14827 ****         7.7500  15.2500  38.7500 Du        
  14828 ****         7.7500  15.2500  39.0000 Du        
  14829 ****         7.7500  15.2500  39.2500 Du        
  14830 ****         7.7500  15.2500  39.5000 Du        
  14831 ****         7.7500  15.2500  39.7500 Du        
  14832 ****         7.7500  15.2500  40.0000 Du        
  14833 ****         7.7500  15.2500  40.2500 Du        
  14834 ****         7.7500  15.2500  40.5000 Du        
  14835 ****         7.7500  15.2500  40.7500 Du        
  14836 ****         7.7500  15.2500  41.0000 Du        
  14837 ****         7.7500  15.2500  41.2500 Du        
  14838 ****         7.7500  15.2500  41.5000 Du        
  14839 ****         7.7500  15.2500  41.7500 Du        
  14840 ****         7.7500  15.2500  42.0000 Du        
  14841 ****         7.7500  15.2500  42.2500 Du        
  14842 ****         7.7500  15.2500  42.5000 Du        
  14843 ****         7.7500  15.2500  42.7500 Du        
  14844 ****         7.7500  15.5000  38.0000 Du        
  14845 ****         7.7500  15.5000  38.2500 Du        
  14846 ****         7.7500  15.5000  38.5000 Du        
  14847 ****         7.7500  15.5000  38.7500 Du        
  14848 ****         7.7500  15.5000  39.0000 Du        
  14849 ****         7.7500  15.5000  39.2500 Du        
  14850 ****         7.7500  15.5000  39.5000 Du        
  14851 ****         7.7500  15.5000  39.7500 Du        
  14852 ****         7.7500  15.5000  40.0000 Du        
  14853 ****         7.7500  15.5000  40.2500 Du        
  14854 ****         7.7500  15.5000  40.5000 Du        
  14855 ****         7.7500  15.5000  40.7500 Du        
  14856 ****         7.7500  15.5000  41.0000 Du        
  14857 ****         7.7500  15.5000  41.2500 Du        
  14858 ****         7.7500  15.5000  41.5000 Du        
  14859 ****         7.7500  15.5000  41.7500 Du        
  14860 ****         7.7500  15.5000  42.0000 Du        
  14861 ****         7.7500  15.5000  42.2500 Du        
  14862 ****         7.7500  15.5000  42.5000 Du        
  14863 ****         7.7500  15.5000  42.7500 Du        
  14864 ****         7.7500  15.7500  37.2500 Du        
  14865 ****         7.7500  15.7500  37.5000 Du        
  14866 ****         7.7500  15.7500  37.7500 Du        
  14867 ****         7.7500  15.7500  38.0000 Du        
  14868 ****         7.7500  15.7500  38.2500 Du        
  14869 ****         7.7500  15.7500  38.5000 Du        
  14870 ****         7.7500  15.7500  38.7500 Du        
  14871 ****         7.7500  15.7500  39.0000 Du        
  14872 ****         7.7500  15.7500  39.2500 Du        
  14873 ****         7.7500  15.7500  39.5000 Du        
  14874 ****         7.7500  15.7500  39.7500 Du        
  14875 ****         7.7500  15.7500  41.0000 Du        
  14876 ****         7.7500  15.7500  41.2500 Du        
  14877 ****         7.7500  15.7500  41.5000 Du        
  14878 ****         7.7500  15.7500  41.7500 Du        
  14879 ****         7.7500  15.7500  42.0000 Du        
  14880 ****         7.7500  15.7500  42.2500 Du        
  14881 ****         7.7500  15.7500  42.5000 Du        
  14882 ****         7.7500  15.7500  42.7500 Du        
  14883 ****         7.7500  16.0000  37.2500 Du        
  14884 ****         7.7500  16.0000  37.5000 Du        
  14885 ****         7.7500  16.0000  37.7500 Du        
  14886 ****         7.7500  16.0000  38.0000 Du        
  14887 ****         7.7500  16.0000  38.2500 Du        
  14888 ****         7.7500  16.0000  38.5000 Du        
  14889 ****         7.7500  16.0000  38.7500 Du        
  14890 ****         7.7500  16.0000  39.0000 Du        
  14891 ****         7.7500  16.0000  41.5000 Du        
  14892 ****         7.7500  16.0000  41.7500 Du        
  14893 ****         7.7500  16.0000  42.0000 Du        
  14894 ****         7.7500  16.0000  42.2500 Du        
  14895 ****         7.7500  16.0000  42.5000 Du        
  14896 ****         7.7500  16.0000  42.7500 Du        
  14897 ****         7.7500  16.2500  37.2500 Du        
  14898 ****         7.7500  16.2500  37.5000 Du        
  14899 ****         7.7500  16.2500  37.7500 Du        
  14900 ****         7.7500  16.2500  38.0000 Du        
  14901 ****         7.7500  16.2500  38.2500 Du        
  14902 ****         7.7500  16.2500  38.5000 Du        
  14903 ****         7.7500  16.2500  41.7500 Du        
  14904 ****         7.7500  16.2500  42.0000 Du        
  14905 ****         7.7500  16.2500  42.2500 Du        
  14906 ****         7.7500  16.2500  42.5000 Du        
  14907 ****         7.7500  16.5000  37.5000 Du        
  14908 ****         7.7500  16.5000  37.7500 Du        
  14909 ****         7.7500  16.5000  38.0000 Du        
  14910 ****         7.7500  16.5000  38.2500 Du        
  14911 ****         7.7500  16.5000  42.0000 Du        
  14912 ****         7.7500  16.5000  42.2500 Du        
  14913 ****         7.7500  16.5000  42.5000 Du        
  14914 ****         7.7500  16.7500  37.5000 Du        
  14915 ****         7.7500  16.7500  37.7500 Du        
  14916 ****         7.7500  16.7500  38.0000 Du        
  14917 ****         7.7500  16.7500  42.2500 Du        
  14918 ****         7.7500  17.0000  37.5000 Du        
  14919 ****         7.7500  17.0000  37.7500 Du        
  14920 ****         7.7500  17.0000  38.0000 Du        
  14921 ****         7.7500  17.2500  37.2500 Du        
  14922 ****         7.7500  17.2500  37.5000 Du        
  14923 ****         7.7500  17.2500  37.7500 Du        
  14924 ****         7.7500  17.5000  37.2500 Du        
  14925 ****         7.7500  17.7500  37.2500 Du        
  14926 ****         7.7500  18.0000  37.0000 Du        
  14927 ****         7.7500  18.0000  37.2500 Du        
  14928 ****         7.7500  18.2500  36.7500 Du        
  14929 ****         7.7500  18.2500  37.0000 Du        
  14930 ****         7.7500  18.2500  37.2500 Du        
  14931 ****         7.7500  18.2500  37.5000 Du        
  14932 ****         7.7500  18.2500  37.7500 Du        
  14933 ****         7.7500  18.5000  37.0000 Du        
  14934 ****         7.7500  18.5000  37.2500 Du        
  14935 ****         7.7500  18.7500  36.5000 Du        
  14936 ****         7.7500  18.7500  36.7500 Du        
  14937 ****         7.7500  18.7500  37.0000 Du        
  14938 ****         7.7500  18.7500  37.2500 Du        
  14939 ****         7.7500  19.0000  36.2500 Du        
  14940 ****         7.7500  19.0000  36.5000 Du        
  14941 ****         7.7500  19.0000  36.7500 Du        
  14942 ****         7.7500  19.0000  37.0000 Du        
  14943 ****         7.7500  19.0000  37.2500 Du        
  14944 ****         7.7500  19.2500  36.0000 Du        
  14945 ****         7.7500  19.2500  36.2500 Du        
  14946 ****         7.7500  19.2500  36.5000 Du        
  14947 ****         7.7500  19.2500  36.7500 Du        
  14948 ****         7.7500  19.2500  37.0000 Du        
  14949 ****         7.7500  19.5000  31.5000 Du        
  14950 ****         7.7500  19.5000  31.7500 Du        
  14951 ****         7.7500  19.5000  32.0000 Du        
  14952 ****         7.7500  19.5000  32.2500 Du        
  14953 ****         7.7500  19.7500  31.5000 Du        
  14954 ****         7.7500  19.7500  31.7500 Du        
  14955 ****         7.7500  19.7500  32.0000 Du        
  14956 ****         7.7500  19.7500  32.2500 Du        
  14957 ****         7.7500  19.7500  32.5000 Du        
  14958 ****         7.7500  19.7500  32.7500 Du        
  14959 ****         7.7500  19.7500  33.0000 Du        
  14960 ****         7.7500  19.7500  33.2500 Du        
  14961 ****         7.7500  19.7500  33.5000 Du        
  14962 ****         7.7500  19.7500  33.7500 Du        
  14963 ****         7.7500  19.7500  34.0000 Du        
  14964 ****         7.7500  19.7500  34.2500 Du        
  14965 ****         7.7500  19.7500  34.5000 Du        
  14966 ****         7.7500  19.7500  34.7500 Du        
  14967 ****         7.7500  19.7500  35.0000 Du        
  14968 ****         7.7500  19.7500  35.2500 Du        
  14969 ****         7.7500  20.0000  31.7500 Du        
  14970 ****         7.7500  20.0000  32.0000 Du        
  14971 ****         7.7500  20.0000  32.2500 Du        
  14972 ****         7.7500  20.0000  32.5000 Du        
  14973 ****         7.7500  20.0000  32.7500 Du        
  14974 ****         7.7500  20.0000  33.0000 Du        
  14975 ****         7.7500  20.0000  33.2500 Du        
  14976 ****         7.7500  20.0000  33.5000 Du        
  14977 ****         7.7500  20.0000  33.7500 Du        
  14978 ****         7.7500  20.0000  34.0000 Du        
  14979 ****         7.7500  20.0000  34.2500 Du        
  14980 ****         7.7500  20.0000  34.5000 Du        
  14981 ****         7.7500  20.0000  34.7500 Du        
  14982 ****         7.7500  20.0000  35.0000 Du        
  14983 ****         7.7500  20.0000  35.2500 Du        
  14984 ****         7.7500  20.0000  35.5000 Du        
  14985 ****         7.7500  20.0000  35.7500 Du        
  14986 ****         7.7500  20.0000  36.0000 Du        
  14987 ****         7.7500  20.2500  31.7500 Du        
  14988 ****         7.7500  20.2500  32.0000 Du        
  14989 ****         7.7500  20.2500  32.2500 Du        
  14990 ****         7.7500  20.2500  32.5000 Du        
  14991 ****         7.7500  20.2500  32.7500 Du        
  14992 ****         7.7500  20.2500  33.0000 Du        
  14993 ****         7.7500  20.2500  33.2500 Du        
  14994 ****         7.7500  20.2500  33.5000 Du        
  14995 ****         7.7500  20.2500  33.7500 Du        
  14996 ****         7.7500  20.2500  34.0000 Du        
  14997 ****         7.7500  20.2500  34.2500 Du        
  14998 ****         7.7500  20.2500  34.5000 Du        
  14999 ****         7.7500  20.2500  34.7500 Du        
  15000 ****         7.7500  20.2500  35.0000 Du        
  15001 ****         7.7500  20.2500  35.2500 Du        
  15002 ****         7.7500  20.2500  36.0000 Du        
  15003 ****         7.7500  20.5000  31.7500 Du        
  15004 ****         7.7500  20.5000  32.0000 Du        
  15005 ****         7.7500  20.5000  32.2500 Du        
  15006 ****         7.7500  20.5000  32.5000 Du        
  15007 ****         7.7500  20.5000  32.7500 Du        
  15008 ****         7.7500  20.5000  33.0000 Du        
  15009 ****         7.7500  20.5000  33.2500 Du        
  15010 ****         7.7500  20.5000  33.5000 Du        
  15011 ****         7.7500  20.5000  33.7500 Du        
  15012 ****         7.7500  20.5000  34.0000 Du        
  15013 ****         7.7500  20.5000  34.2500 Du        
  15014 ****         7.7500  20.7500  32.0000 Du        
  15015 ****         7.7500  20.7500  32.2500 Du        
  15016 ****         7.7500  20.7500  32.5000 Du        
  15017 ****         7.7500  20.7500  32.7500 Du        
  15018 ****         7.7500  20.7500  33.0000 Du        
  15019 ****         7.7500  20.7500  35.7500 Du        
  15020 ****         7.7500  20.7500  36.0000 Du        
  15021 ****         7.7500  21.0000  32.0000 Du        
  15022 ****         7.7500  21.0000  32.2500 Du        
  15023 ****         7.7500  21.0000  36.0000 Du        
  15024 ****         8.0000   9.7500  32.0000 Du        
  15025 ****         8.0000   9.7500  32.2500 Du        
  15026 ****         8.0000   9.7500  32.5000 Du        
  15027 ****         8.0000  10.0000  31.7500 Du        
  15028 ****         8.0000  10.0000  32.0000 Du        
  15029 ****         8.0000  10.0000  32.2500 Du        
  15030 ****         8.0000  10.0000  32.5000 Du        
  15031 ****         8.0000  10.0000  32.7500 Du        
  15032 ****         8.0000  10.0000  33.0000 Du        
  15033 ****         8.0000  10.2500  31.7500 Du        
  15034 ****         8.0000  10.2500  32.0000 Du        
  15035 ****         8.0000  10.2500  32.2500 Du        
  15036 ****         8.0000  10.2500  32.5000 Du        
  15037 ****         8.0000  10.2500  32.7500 Du        
  15038 ****         8.0000  10.2500  33.0000 Du        
  15039 ****         8.0000  10.2500  33.2500 Du        
  15040 ****         8.0000  10.5000  31.7500 Du        
  15041 ****         8.0000  10.5000  32.0000 Du        
  15042 ****         8.0000  10.5000  32.2500 Du        
  15043 ****         8.0000  10.5000  32.5000 Du        
  15044 ****         8.0000  10.5000  32.7500 Du        
  15045 ****         8.0000  10.5000  33.0000 Du        
  15046 ****         8.0000  10.5000  33.2500 Du        
  15047 ****         8.0000  10.7500  32.0000 Du        
  15048 ****         8.0000  10.7500  32.2500 Du        
  15049 ****         8.0000  10.7500  32.5000 Du        
  15050 ****         8.0000  10.7500  32.7500 Du        
  15051 ****         8.0000  10.7500  33.0000 Du        
  15052 ****         8.0000  10.7500  33.2500 Du        
  15053 ****         8.0000  10.7500  33.5000 Du        
  15054 ****         8.0000  11.0000  32.0000 Du        
  15055 ****         8.0000  11.0000  32.2500 Du        
  15056 ****         8.0000  11.0000  32.5000 Du        
  15057 ****         8.0000  11.0000  32.7500 Du        
  15058 ****         8.0000  11.0000  33.0000 Du        
  15059 ****         8.0000  11.0000  33.2500 Du        
  15060 ****         8.0000  11.0000  33.5000 Du        
  15061 ****         8.0000  11.2500  32.2500 Du        
  15062 ****         8.0000  11.2500  32.5000 Du        
  15063 ****         8.0000  11.2500  32.7500 Du        
  15064 ****         8.0000  11.2500  33.0000 Du        
  15065 ****         8.0000  11.2500  33.2500 Du        
  15066 ****         8.0000  11.2500  33.5000 Du        
  15067 ****         8.0000  11.2500  33.7500 Du        
  15068 ****         8.0000  11.5000  32.2500 Du        
  15069 ****         8.0000  11.5000  32.5000 Du        
  15070 ****         8.0000  11.5000  32.7500 Du        
  15071 ****         8.0000  11.5000  33.0000 Du        
  15072 ****         8.0000  11.5000  33.2500 Du        
  15073 ****         8.0000  11.5000  33.5000 Du        
  15074 ****         8.0000  11.5000  33.7500 Du        
  15075 ****         8.0000  11.7500  32.5000 Du        
  15076 ****         8.0000  11.7500  32.7500 Du        
  15077 ****         8.0000  11.7500  33.0000 Du        
  15078 ****         8.0000  11.7500  33.2500 Du        
  15079 ****         8.0000  11.7500  33.5000 Du        
  15080 ****         8.0000  11.7500  33.7500 Du        
  15081 ****         8.0000  12.0000  32.7500 Du        
  15082 ****         8.0000  12.0000  33.0000 Du        
  15083 ****         8.0000  12.0000  33.2500 Du        
  15084 ****         8.0000  12.0000  33.5000 Du        
  15085 ****         8.0000  13.2500  40.5000 Du        
  15086 ****         8.0000  13.5000  40.2500 Du        
  15087 ****         8.0000  13.5000  40.5000 Du        
  15088 ****         8.0000  13.5000  40.7500 Du        
  15089 ****         8.0000  13.7500  40.0000 Du        
  15090 ****         8.0000  13.7500  40.2500 Du        
  15091 ****         8.0000  13.7500  40.5000 Du        
  15092 ****         8.0000  13.7500  40.7500 Du        
  15093 ****         8.0000  14.0000  39.7500 Du        
  15094 ****         8.0000  14.0000  40.0000 Du        
  15095 ****         8.0000  14.0000  40.2500 Du        
  15096 ****         8.0000  14.0000  40.5000 Du        
  15097 ****         8.0000  14.0000  40.7500 Du        
  15098 ****         8.0000  14.0000  41.0000 Du        
  15099 ****         8.0000  14.2500  39.5000 Du        
  15100 ****         8.0000  14.2500  39.7500 Du        
  15101 ****         8.0000  14.2500  40.0000 Du        
  15102 ****         8.0000  14.2500  40.2500 Du        
  15103 ****         8.0000  14.2500  40.5000 Du        
  15104 ****         8.0000  14.2500  40.7500 Du        
  15105 ****         8.0000  14.2500  41.0000 Du        
  15106 ****         8.0000  14.5000  39.5000 Du        
  15107 ****         8.0000  14.5000  39.7500 Du        
  15108 ****         8.0000  14.5000  40.0000 Du        
  15109 ****         8.0000  14.5000  40.2500 Du        
  15110 ****         8.0000  14.5000  40.5000 Du        
  15111 ****         8.0000  14.5000  40.7500 Du        
  15112 ****         8.0000  14.5000  41.0000 Du        
  15113 ****         8.0000  14.5000  41.2500 Du        
  15114 ****         8.0000  14.7500  39.2500 Du        
  15115 ****         8.0000  14.7500  39.5000 Du        
  15116 ****         8.0000  14.7500  39.7500 Du        
  15117 ****         8.0000  14.7500  40.0000 Du        
  15118 ****         8.0000  14.7500  40.2500 Du        
  15119 ****         8.0000  14.7500  40.5000 Du        
  15120 ****         8.0000  14.7500  40.7500 Du        
  15121 ****         8.0000  14.7500  41.0000 Du        
  15122 ****         8.0000  14.7500  41.2500 Du        
  15123 ****         8.0000  15.0000  39.0000 Du        
  15124 ****         8.0000  15.0000  39.2500 Du        
  15125 ****         8.0000  15.0000  39.5000 Du        
  15126 ****         8.0000  15.0000  39.7500 Du        
  15127 ****         8.0000  15.0000  40.0000 Du        
  15128 ****         8.0000  15.0000  40.2500 Du        
  15129 ****         8.0000  15.0000  40.5000 Du        
  15130 ****         8.0000  15.0000  40.7500 Du        
  15131 ****         8.0000  15.0000  41.0000 Du        
  15132 ****         8.0000  15.0000  41.2500 Du        
  15133 ****         8.0000  15.0000  41.5000 Du        
  15134 ****         8.0000  15.2500  38.7500 Du        
  15135 ****         8.0000  15.2500  39.0000 Du        
  15136 ****         8.0000  15.2500  39.2500 Du        
  15137 ****         8.0000  15.2500  39.5000 Du        
  15138 ****         8.0000  15.2500  39.7500 Du        
  15139 ****         8.0000  15.2500  40.0000 Du        
  15140 ****         8.0000  15.2500  40.2500 Du        
  15141 ****         8.0000  15.2500  40.5000 Du        
  15142 ****         8.0000  15.2500  40.7500 Du        
  15143 ****         8.0000  15.2500  41.0000 Du        
  15144 ****         8.0000  15.2500  41.2500 Du        
  15145 ****         8.0000  15.2500  41.5000 Du        
  15146 ****         8.0000  15.2500  41.7500 Du        
  15147 ****         8.0000  15.5000  38.5000 Du        
  15148 ****         8.0000  15.5000  38.7500 Du        
  15149 ****         8.0000  15.5000  39.0000 Du        
  15150 ****         8.0000  15.5000  39.2500 Du        
  15151 ****         8.0000  15.5000  41.5000 Du        
  15152 ****         8.0000  15.5000  41.7500 Du        
  15153 ****         8.0000  15.5000  42.0000 Du        
  15154 ****         8.0000  15.5000  42.2500 Du        
  15155 ****         8.0000  15.7500  38.0000 Du        
  15156 ****         8.0000  15.7500  38.2500 Du        
  15157 ****         8.0000  15.7500  38.5000 Du        
  15158 ****         8.0000  15.7500  38.7500 Du        
  15159 ****         8.0000  15.7500  39.0000 Du        
  15160 ****         8.0000  15.7500  42.0000 Du        
  15161 ****         8.0000  15.7500  42.2500 Du        
  15162 ****         8.0000  16.0000  37.7500 Du        
  15163 ****         8.0000  16.0000  38.0000 Du        
  15164 ****         8.0000  16.0000  38.2500 Du        
  15165 ****         8.0000  16.0000  38.5000 Du        
  15166 ****         8.0000  16.2500  37.7500 Du        
  15167 ****         8.0000  16.2500  38.0000 Du        
  15168 ****         8.0000  16.2500  38.2500 Du        
  15169 ****         8.0000  18.0000  37.2500 Du        
  15170 ****         8.0000  18.2500  37.0000 Du        
  15171 ****         8.0000  18.2500  37.2500 Du        
  15172 ****         8.0000  18.2500  37.5000 Du        
  15173 ****         8.0000  18.5000  36.7500 Du        
  15174 ****         8.0000  18.5000  37.0000 Du        
  15175 ****         8.0000  18.5000  37.2500 Du        
  15176 ****         8.0000  18.7500  36.5000 Du        
  15177 ****         8.0000  18.7500  36.7500 Du        
  15178 ****         8.0000  18.7500  37.0000 Du        
  15179 ****         8.0000  18.7500  37.2500 Du        
  15180 ****         8.0000  18.7500  37.5000 Du        
  15181 ****         8.0000  19.0000  36.2500 Du        
  15182 ****         8.0000  19.0000  36.5000 Du        
  15183 ****         8.0000  19.0000  36.7500 Du        
  15184 ****         8.0000  19.0000  37.0000 Du        
  15185 ****         8.0000  19.0000  37.2500 Du        
  15186 ****         8.0000  19.0000  37.5000 Du        
  15187 ****         8.0000  19.0000  37.7500 Du        
  15188 ****         8.0000  19.2500  36.0000 Du        
  15189 ****         8.0000  19.2500  36.2500 Du        
  15190 ****         8.0000  19.2500  36.5000 Du        
  15191 ****         8.0000  19.2500  36.7500 Du        
  15192 ****         8.0000  19.2500  37.0000 Du        
  15193 ****         8.0000  19.2500  37.2500 Du        
  15194 ****         8.0000  19.5000  31.2500 Du        
  15195 ****         8.0000  19.5000  31.5000 Du        
  15196 ****         8.0000  19.5000  31.7500 Du        
  15197 ****         8.0000  19.5000  36.0000 Du        
  15198 ****         8.0000  19.5000  36.2500 Du        
  15199 ****         8.0000  19.5000  36.7500 Du        
  15200 ****         8.0000  19.5000  37.0000 Du        
  15201 ****         8.0000  19.5000  37.2500 Du        
  15202 ****         8.0000  19.5000  37.5000 Du        
  15203 ****         8.0000  19.5000  37.7500 Du        
  15204 ****         8.0000  19.7500  31.2500 Du        
  15205 ****         8.0000  19.7500  31.5000 Du        
  15206 ****         8.0000  19.7500  31.7500 Du        
  15207 ****         8.0000  19.7500  32.0000 Du        
  15208 ****         8.0000  19.7500  32.2500 Du        
  15209 ****         8.0000  19.7500  32.5000 Du        
  15210 ****         8.0000  19.7500  32.7500 Du        
  15211 ****         8.0000  19.7500  33.0000 Du        
  15212 ****         8.0000  19.7500  34.2500 Du        
  15213 ****         8.0000  19.7500  34.7500 Du        
  15214 ****         8.0000  19.7500  35.0000 Du        
  15215 ****         8.0000  19.7500  35.2500 Du        
  15216 ****         8.0000  19.7500  35.5000 Du        
  15217 ****         8.0000  19.7500  35.7500 Du        
  15218 ****         8.0000  19.7500  36.0000 Du        
  15219 ****         8.0000  19.7500  36.2500 Du        
  15220 ****         8.0000  19.7500  36.7500 Du        
  15221 ****         8.0000  19.7500  37.0000 Du        
  15222 ****         8.0000  19.7500  37.2500 Du        
  15223 ****         8.0000  19.7500  37.5000 Du        
  15224 ****         8.0000  19.7500  37.7500 Du        
  15225 ****         8.0000  19.7500  38.0000 Du        
  15226 ****         8.0000  20.0000  31.5000 Du        
  15227 ****         8.0000  20.0000  31.7500 Du        
  15228 ****         8.0000  20.0000  32.0000 Du        
  15229 ****         8.0000  20.0000  32.2500 Du        
  15230 ****         8.0000  20.0000  32.5000 Du        
  15231 ****         8.0000  20.0000  32.7500 Du        
  15232 ****         8.0000  20.0000  33.0000 Du        
  15233 ****         8.0000  20.0000  33.2500 Du        
  15234 ****         8.0000  20.0000  33.5000 Du        
  15235 ****         8.0000  20.0000  33.7500 Du        
  15236 ****         8.0000  20.0000  34.0000 Du        
  15237 ****         8.0000  20.0000  34.2500 Du        
  15238 ****         8.0000  20.0000  34.5000 Du        
  15239 ****         8.0000  20.0000  34.7500 Du        
  15240 ****         8.0000  20.0000  35.0000 Du        
  15241 ****         8.0000  20.0000  35.2500 Du        
  15242 ****         8.0000  20.0000  35.5000 Du        
  15243 ****         8.0000  20.0000  35.7500 Du        
  15244 ****         8.0000  20.0000  36.0000 Du        
  15245 ****         8.0000  20.0000  36.2500 Du        
  15246 ****         8.0000  20.0000  36.7500 Du        
  15247 ****         8.0000  20.0000  37.0000 Du        
  15248 ****         8.0000  20.0000  37.2500 Du        
  15249 ****         8.0000  20.0000  37.5000 Du        
  15250 ****         8.0000  20.0000  37.7500 Du        
  15251 ****         8.0000  20.2500  31.5000 Du        
  15252 ****         8.0000  20.2500  31.7500 Du        
  15253 ****         8.0000  20.2500  32.0000 Du        
  15254 ****         8.0000  20.2500  32.2500 Du        
  15255 ****         8.0000  20.2500  32.5000 Du        
  15256 ****         8.0000  20.2500  32.7500 Du        
  15257 ****         8.0000  20.2500  33.0000 Du        
  15258 ****         8.0000  20.2500  33.2500 Du        
  15259 ****         8.0000  20.2500  33.5000 Du        
  15260 ****         8.0000  20.2500  33.7500 Du        
  15261 ****         8.0000  20.2500  34.0000 Du        
  15262 ****         8.0000  20.2500  34.2500 Du        
  15263 ****         8.0000  20.2500  34.7500 Du        
  15264 ****         8.0000  20.2500  35.0000 Du        
  15265 ****         8.0000  20.2500  35.2500 Du        
  15266 ****         8.0000  20.2500  35.5000 Du        
  15267 ****         8.0000  20.2500  35.7500 Du        
  15268 ****         8.0000  20.2500  36.0000 Du        
  15269 ****         8.0000  20.2500  36.2500 Du        
  15270 ****         8.0000  20.2500  36.5000 Du        
  15271 ****         8.0000  20.2500  36.7500 Du        
  15272 ****         8.0000  20.2500  37.5000 Du        
  15273 ****         8.0000  20.5000  31.7500 Du        
  15274 ****         8.0000  20.5000  32.0000 Du        
  15275 ****         8.0000  20.5000  32.2500 Du        
  15276 ****         8.0000  20.5000  32.5000 Du        
  15277 ****         8.0000  20.5000  32.7500 Du        
  15278 ****         8.0000  20.5000  33.0000 Du        
  15279 ****         8.0000  20.5000  33.2500 Du        
  15280 ****         8.0000  20.5000  35.0000 Du        
  15281 ****         8.0000  20.5000  35.5000 Du        
  15282 ****         8.0000  20.5000  35.7500 Du        
  15283 ****         8.0000  20.5000  36.0000 Du        
  15284 ****         8.0000  20.5000  36.2500 Du        
  15285 ****         8.0000  20.5000  36.5000 Du        
  15286 ****         8.0000  20.7500  31.7500 Du        
  15287 ****         8.0000  20.7500  32.0000 Du        
  15288 ****         8.0000  20.7500  32.2500 Du        
  15289 ****         8.0000  20.7500  32.5000 Du        
  15290 ****         8.0000  20.7500  32.7500 Du        
  15291 ****         8.0000  20.7500  35.5000 Du        
  15292 ****         8.0000  20.7500  35.7500 Du        
  15293 ****         8.0000  20.7500  36.0000 Du        
  15294 ****         8.0000  20.7500  36.2500 Du        
  15295 ****         8.0000  20.7500  36.5000 Du        
  15296 ****         8.0000  20.7500  36.7500 Du        
  15297 ****         8.0000  20.7500  37.2500 Du        
  15298 ****         8.0000  21.0000  32.0000 Du        
  15299 ****         8.0000  21.0000  35.7500 Du        
  15300 ****         8.0000  21.0000  36.0000 Du        
  15301 ****         8.0000  21.0000  36.2500 Du        
  15302 ****         8.0000  21.0000  36.5000 Du        
  15303 ****         8.0000  21.0000  36.7500 Du        
  15304 ****         8.0000  21.0000  37.0000 Du        
  15305 ****         8.0000  21.2500  36.0000 Du        
  15306 ****         8.0000  21.2500  36.2500 Du        
  15307 ****         8.0000  21.2500  36.5000 Du        
  15308 ****         8.0000  21.2500  36.7500 Du        
  15309 ****         8.0000  21.2500  37.0000 Du        
  15310 ****         8.0000  21.2500  37.2500 Du        
  15311 ****         8.2500   9.7500  32.2500 Du        
  15312 ****         8.2500   9.7500  32.5000 Du        
  15313 ****         8.2500  10.0000  32.0000 Du        
  15314 ****         8.2500  10.0000  32.2500 Du        
  15315 ****         8.2500  10.0000  32.5000 Du        
  15316 ****         8.2500  10.0000  32.7500 Du        
  15317 ****         8.2500  10.0000  33.0000 Du        
  15318 ****         8.2500  10.2500  32.0000 Du        
  15319 ****         8.2500  10.2500  32.2500 Du        
  15320 ****         8.2500  10.2500  32.5000 Du        
  15321 ****         8.2500  10.2500  32.7500 Du        
  15322 ****         8.2500  10.2500  33.0000 Du        
  15323 ****         8.2500  10.2500  33.2500 Du        
  15324 ****         8.2500  10.5000  32.2500 Du        
  15325 ****         8.2500  10.5000  32.5000 Du        
  15326 ****         8.2500  10.5000  32.7500 Du        
  15327 ****         8.2500  10.5000  33.0000 Du        
  15328 ****         8.2500  10.5000  33.2500 Du        
  15329 ****         8.2500  10.5000  33.5000 Du        
  15330 ****         8.2500  10.7500  32.2500 Du        
  15331 ****         8.2500  10.7500  32.5000 Du        
  15332 ****         8.2500  10.7500  32.7500 Du        
  15333 ****         8.2500  10.7500  33.0000 Du        
  15334 ****         8.2500  10.7500  33.2500 Du        
  15335 ****         8.2500  10.7500  33.5000 Du        
  15336 ****         8.2500  11.0000  32.5000 Du        
  15337 ****         8.2500  11.0000  32.7500 Du        
  15338 ****         8.2500  11.0000  33.0000 Du        
  15339 ****         8.2500  11.0000  33.2500 Du        
  15340 ****         8.2500  11.0000  33.5000 Du        
  15341 ****         8.2500  11.0000  33.7500 Du        
  15342 ****         8.2500  11.2500  32.5000 Du        
  15343 ****         8.2500  11.2500  32.7500 Du        
  15344 ****         8.2500  11.2500  33.0000 Du        
  15345 ****         8.2500  11.2500  33.2500 Du        
  15346 ****         8.2500  11.2500  33.5000 Du        
  15347 ****         8.2500  11.2500  33.7500 Du        
  15348 ****         8.2500  11.5000  32.7500 Du        
  15349 ****         8.2500  11.5000  33.0000 Du        
  15350 ****         8.2500  11.5000  33.2500 Du        
  15351 ****         8.2500  11.5000  33.5000 Du        
  15352 ****         8.2500  11.7500  32.7500 Du        
  15353 ****         8.2500  11.7500  33.0000 Du        
  15354 ****         8.2500  11.7500  33.2500 Du        
  15355 ****         8.2500  12.0000  33.0000 Du        
  15356 ****         8.2500  13.5000  40.2500 Du        
  15357 ****         8.2500  13.5000  40.5000 Du        
  15358 ****         8.2500  13.7500  40.0000 Du        
  15359 ****         8.2500  13.7500  40.2500 Du        
  15360 ****         8.2500  13.7500  40.5000 Du        
  15361 ****         8.2500  13.7500  40.7500 Du        
  15362 ****         8.2500  14.0000  40.0000 Du        
  15363 ****         8.2500  14.0000  40.2500 Du        
  15364 ****         8.2500  14.0000  40.5000 Du        
  15365 ****         8.2500  14.0000  40.7500 Du        
  15366 ****         8.2500  14.2500  39.7500 Du        
  15367 ****         8.2500  14.2500  40.0000 Du        
  15368 ****         8.2500  14.2500  40.2500 Du        
  15369 ****         8.2500  14.2500  40.5000 Du        
  15370 ****         8.2500  14.2500  40.7500 Du        
  15371 ****         8.2500  14.5000  39.7500 Du        
  15372 ****         8.2500  14.5000  40.0000 Du        
  15373 ****         8.2500  14.5000  40.2500 Du        
  15374 ****         8.2500  14.5000  40.5000 Du        
  15375 ****         8.2500  14.5000  40.7500 Du        
  15376 ****         8.2500  14.5000  41.0000 Du        
  15377 ****         8.2500  14.7500  39.5000 Du        
  15378 ****         8.2500  14.7500  39.7500 Du        
  15379 ****         8.2500  14.7500  40.0000 Du        
  15380 ****         8.2500  14.7500  40.2500 Du        
  15381 ****         8.2500  14.7500  40.5000 Du        
  15382 ****         8.2500  14.7500  40.7500 Du        
  15383 ****         8.2500  14.7500  41.0000 Du        
  15384 ****         8.2500  15.0000  39.5000 Du        
  15385 ****         8.2500  15.0000  39.7500 Du        
  15386 ****         8.2500  15.0000  40.0000 Du        
  15387 ****         8.2500  15.0000  40.2500 Du        
  15388 ****         8.2500  15.0000  40.5000 Du        
  15389 ****         8.2500  18.7500  36.7500 Du        
  15390 ****         8.2500  18.7500  37.0000 Du        
  15391 ****         8.2500  18.7500  37.2500 Du        
  15392 ****         8.2500  18.7500  37.5000 Du        
  15393 ****         8.2500  19.0000  36.5000 Du        
  15394 ****         8.2500  19.0000  36.7500 Du        
  15395 ****         8.2500  19.0000  37.0000 Du        
  15396 ****         8.2500  19.0000  37.2500 Du        
  15397 ****         8.2500  19.0000  37.5000 Du        
  15398 ****         8.2500  19.2500  36.5000 Du        
  15399 ****         8.2500  19.2500  36.7500 Du        
  15400 ****         8.2500  19.2500  37.0000 Du        
  15401 ****         8.2500  19.2500  37.2500 Du        
  15402 ****         8.2500  19.2500  37.5000 Du        
  15403 ****         8.2500  19.5000  31.2500 Du        
  15404 ****         8.2500  19.5000  36.0000 Du        
  15405 ****         8.2500  19.5000  36.2500 Du        
  15406 ****         8.2500  19.5000  36.5000 Du        
  15407 ****         8.2500  19.5000  36.7500 Du        
  15408 ****         8.2500  19.5000  37.0000 Du        
  15409 ****         8.2500  19.5000  37.2500 Du        
  15410 ****         8.2500  19.5000  37.5000 Du        
  15411 ****         8.2500  19.5000  37.7500 Du        
  15412 ****         8.2500  19.5000  38.0000 Du        
  15413 ****         8.2500  19.7500  31.2500 Du        
  15414 ****         8.2500  19.7500  31.5000 Du        
  15415 ****         8.2500  19.7500  31.7500 Du        
  15416 ****         8.2500  19.7500  32.0000 Du        
  15417 ****         8.2500  19.7500  32.2500 Du        
  15418 ****         8.2500  19.7500  35.5000 Du        
  15419 ****         8.2500  19.7500  35.7500 Du        
  15420 ****         8.2500  19.7500  36.0000 Du        
  15421 ****         8.2500  19.7500  36.2500 Du        
  15422 ****         8.2500  19.7500  36.5000 Du        
  15423 ****         8.2500  19.7500  36.7500 Du        
  15424 ****         8.2500  19.7500  37.0000 Du        
  15425 ****         8.2500  19.7500  37.2500 Du        
  15426 ****         8.2500  19.7500  37.5000 Du        
  15427 ****         8.2500  19.7500  37.7500 Du        
  15428 ****         8.2500  19.7500  38.0000 Du        
  15429 ****         8.2500  20.0000  31.2500 Du        
  15430 ****         8.2500  20.0000  31.5000 Du        
  15431 ****         8.2500  20.0000  31.7500 Du        
  15432 ****         8.2500  20.0000  32.0000 Du        
  15433 ****         8.2500  20.0000  32.2500 Du        
  15434 ****         8.2500  20.0000  32.5000 Du        
  15435 ****         8.2500  20.0000  32.7500 Du        
  15436 ****         8.2500  20.0000  33.0000 Du        
  15437 ****         8.2500  20.0000  33.2500 Du        
  15438 ****         8.2500  20.0000  34.0000 Du        
  15439 ****         8.2500  20.0000  34.2500 Du        
  15440 ****         8.2500  20.0000  35.0000 Du        
  15441 ****         8.2500  20.0000  35.2500 Du        
  15442 ****         8.2500  20.0000  35.5000 Du        
  15443 ****         8.2500  20.0000  35.7500 Du        
  15444 ****         8.2500  20.0000  36.0000 Du        
  15445 ****         8.2500  20.0000  36.2500 Du        
  15446 ****         8.2500  20.0000  36.5000 Du        
  15447 ****         8.2500  20.0000  36.7500 Du        
  15448 ****         8.2500  20.0000  37.0000 Du        
  15449 ****         8.2500  20.0000  37.2500 Du        
  15450 ****         8.2500  20.0000  37.5000 Du        
  15451 ****         8.2500  20.0000  37.7500 Du        
  15452 ****         8.2500  20.0000  38.0000 Du        
  15453 ****         8.2500  20.0000  38.2500 Du        
  15454 ****         8.2500  20.2500  31.5000 Du        
  15455 ****         8.2500  20.2500  31.7500 Du        
  15456 ****         8.2500  20.2500  32.0000 Du        
  15457 ****         8.2500  20.2500  32.2500 Du        
  15458 ****         8.2500  20.2500  32.5000 Du        
  15459 ****         8.2500  20.2500  32.7500 Du        
  15460 ****         8.2500  20.2500  33.0000 Du        
  15461 ****         8.2500  20.2500  33.2500 Du        
  15462 ****         8.2500  20.2500  33.5000 Du        
  15463 ****         8.2500  20.2500  33.7500 Du        
  15464 ****         8.2500  20.2500  34.0000 Du        
  15465 ****         8.2500  20.2500  34.2500 Du        
  15466 ****         8.2500  20.2500  35.0000 Du        
  15467 ****         8.2500  20.2500  35.2500 Du        
  15468 ****         8.2500  20.2500  35.5000 Du        
  15469 ****         8.2500  20.2500  35.7500 Du        
  15470 ****         8.2500  20.2500  36.0000 Du        
  15471 ****         8.2500  20.2500  36.2500 Du        
  15472 ****         8.2500  20.2500  36.5000 Du        
  15473 ****         8.2500  20.2500  36.7500 Du        
  15474 ****         8.2500  20.2500  37.0000 Du        
  15475 ****         8.2500  20.2500  37.2500 Du        
  15476 ****         8.2500  20.2500  37.5000 Du        
  15477 ****         8.2500  20.2500  37.7500 Du        
  15478 ****         8.2500  20.2500  38.0000 Du        
  15479 ****         8.2500  20.2500  38.2500 Du        
  15480 ****         8.2500  20.5000  31.5000 Du        
  15481 ****         8.2500  20.5000  31.7500 Du        
  15482 ****         8.2500  20.5000  32.0000 Du        
  15483 ****         8.2500  20.5000  32.2500 Du        
  15484 ****         8.2500  20.5000  32.5000 Du        
  15485 ****         8.2500  20.5000  32.7500 Du        
  15486 ****         8.2500  20.5000  33.0000 Du        
  15487 ****         8.2500  20.5000  35.0000 Du        
  15488 ****         8.2500  20.5000  35.5000 Du        
  15489 ****         8.2500  20.5000  35.7500 Du        
  15490 ****         8.2500  20.5000  36.0000 Du        
  15491 ****         8.2500  20.5000  36.2500 Du        
  15492 ****         8.2500  20.5000  36.5000 Du        
  15493 ****         8.2500  20.5000  36.7500 Du        
  15494 ****         8.2500  20.5000  37.0000 Du        
  15495 ****         8.2500  20.5000  37.2500 Du        
  15496 ****         8.2500  20.5000  37.5000 Du        
  15497 ****         8.2500  20.5000  37.7500 Du        
  15498 ****         8.2500  20.5000  38.0000 Du        
  15499 ****         8.2500  20.5000  38.2500 Du        
  15500 ****         8.2500  20.7500  31.5000 Du        
  15501 ****         8.2500  20.7500  31.7500 Du        
  15502 ****         8.2500  20.7500  32.0000 Du        
  15503 ****         8.2500  20.7500  32.2500 Du        
  15504 ****         8.2500  20.7500  35.5000 Du        
  15505 ****         8.2500  20.7500  35.7500 Du        
  15506 ****         8.2500  20.7500  36.0000 Du        
  15507 ****         8.2500  20.7500  36.2500 Du        
  15508 ****         8.2500  20.7500  36.5000 Du        
  15509 ****         8.2500  20.7500  36.7500 Du        
  15510 ****         8.2500  20.7500  37.0000 Du        
  15511 ****         8.2500  20.7500  37.2500 Du        
  15512 ****         8.2500  20.7500  37.7500 Du        
  15513 ****         8.2500  20.7500  38.0000 Du        
  15514 ****         8.2500  20.7500  38.2500 Du        
  15515 ****         8.2500  21.0000  31.7500 Du        
  15516 ****         8.2500  21.0000  36.0000 Du        
  15517 ****         8.2500  21.0000  36.2500 Du        
  15518 ****         8.2500  21.0000  36.5000 Du        
  15519 ****         8.2500  21.0000  36.7500 Du        
  15520 ****         8.2500  21.0000  37.0000 Du        
  15521 ****         8.2500  21.0000  37.2500 Du        
  15522 ****         8.2500  21.0000  38.0000 Du        
  15523 ****         8.2500  21.2500  36.5000 Du        
  15524 ****         8.2500  21.2500  36.7500 Du        
  15525 ****         8.2500  21.2500  37.0000 Du        
  15526 ****         8.2500  21.2500  37.2500 Du        
  15527 ****         8.2500  21.5000  36.5000 Du        
  15528 ****         8.2500  21.5000  36.7500 Du        
  15529 ****         8.2500  21.5000  37.0000 Du        
  15530 ****         8.2500  21.5000  37.2500 Du        
  15531 ****         8.2500  21.7500  36.7500 Du        
  15532 ****         8.2500  21.7500  37.0000 Du        
  15533 ****         8.2500  21.7500  37.2500 Du        
  15534 ****         8.2500  22.0000  37.0000 Du        
  15535 ****         8.2500  22.0000  37.2500 Du        
  15536 ****         8.5000   9.7500  32.5000 Du        
  15537 ****         8.5000   9.7500  32.7500 Du        
  15538 ****         8.5000   9.7500  33.0000 Du        
  15539 ****         8.5000  10.0000  32.2500 Du        
  15540 ****         8.5000  10.0000  32.5000 Du        
  15541 ****         8.5000  10.0000  32.7500 Du        
  15542 ****         8.5000  10.0000  33.0000 Du        
  15543 ****         8.5000  10.0000  33.2500 Du        
  15544 ****         8.5000  10.2500  32.5000 Du        
  15545 ****         8.5000  10.2500  32.7500 Du        
  15546 ****         8.5000  10.2500  33.0000 Du        
  15547 ****         8.5000  10.2500  33.2500 Du        
  15548 ****         8.5000  10.2500  33.5000 Du        
  15549 ****         8.5000  10.5000  32.5000 Du        
  15550 ****         8.5000  10.5000  32.7500 Du        
  15551 ****         8.5000  10.5000  33.0000 Du        
  15552 ****         8.5000  10.5000  33.2500 Du        
  15553 ****         8.5000  10.5000  33.5000 Du        
  15554 ****         8.5000  10.5000  33.7500 Du        
  15555 ****         8.5000  10.7500  32.7500 Du        
  15556 ****         8.5000  10.7500  33.0000 Du        
  15557 ****         8.5000  10.7500  33.2500 Du        
  15558 ****         8.5000  10.7500  33.5000 Du        
  15559 ****         8.5000  10.7500  33.7500 Du        
  15560 ****         8.5000  11.0000  32.7500 Du        
  15561 ****         8.5000  11.0000  33.0000 Du        
  15562 ****         8.5000  11.0000  33.2500 Du        
  15563 ****         8.5000  11.0000  33.5000 Du        
  15564 ****         8.5000  11.0000  33.7500 Du        
  15565 ****         8.5000  11.2500  32.7500 Du        
  15566 ****         8.5000  11.2500  33.0000 Du        
  15567 ****         8.5000  11.2500  33.2500 Du        
  15568 ****         8.5000  11.2500  33.5000 Du        
  15569 ****         8.5000  11.5000  33.0000 Du        
  15570 ****         8.5000  11.5000  33.2500 Du        
  15571 ****         8.5000  14.0000  40.2500 Du        
  15572 ****         8.5000  14.0000  40.5000 Du        
  15573 ****         8.5000  14.2500  40.0000 Du        
  15574 ****         8.5000  14.2500  40.2500 Du        
  15575 ****         8.5000  14.2500  40.5000 Du        
  15576 ****         8.5000  14.5000  40.0000 Du        
  15577 ****         8.5000  14.5000  40.2500 Du        
  15578 ****         8.5000  14.5000  40.5000 Du        
  15579 ****         8.5000  14.7500  40.0000 Du        
  15580 ****         8.5000  14.7500  40.2500 Du        
  15581 ****         8.5000  18.7500  37.0000 Du        
  15582 ****         8.5000  18.7500  37.2500 Du        
  15583 ****         8.5000  18.7500  37.5000 Du        
  15584 ****         8.5000  19.0000  36.7500 Du        
  15585 ****         8.5000  19.0000  37.0000 Du        
  15586 ****         8.5000  19.0000  37.2500 Du        
  15587 ****         8.5000  19.0000  37.5000 Du        
  15588 ****         8.5000  19.0000  37.7500 Du        
  15589 ****         8.5000  19.2500  36.5000 Du        
  15590 ****         8.5000  19.2500  36.7500 Du        
  15591 ****         8.5000  19.2500  37.0000 Du        
  15592 ****         8.5000  19.2500  37.2500 Du        
  15593 ****         8.5000  19.2500  37.5000 Du        
  15594 ****         8.5000  19.2500  37.7500 Du        
  15595 ****         8.5000  19.5000  36.5000 Du        
  15596 ****         8.5000  19.5000  36.7500 Du        
  15597 ****         8.5000  19.5000  37.0000 Du        
  15598 ****         8.5000  19.5000  37.2500 Du        
  15599 ****         8.5000  19.5000  37.5000 Du        
  15600 ****         8.5000  19.5000  37.7500 Du        
  15601 ****         8.5000  19.5000  38.0000 Du        
  15602 ****         8.5000  19.7500  31.2500 Du        
  15603 ****         8.5000  19.7500  31.5000 Du        
  15604 ****         8.5000  19.7500  31.7500 Du        
  15605 ****         8.5000  19.7500  36.0000 Du        
  15606 ****         8.5000  19.7500  36.2500 Du        
  15607 ****         8.5000  19.7500  36.5000 Du        
  15608 ****         8.5000  19.7500  36.7500 Du        
  15609 ****         8.5000  19.7500  37.0000 Du        
  15610 ****         8.5000  19.7500  37.2500 Du        
  15611 ****         8.5000  19.7500  37.5000 Du        
  15612 ****         8.5000  19.7500  37.7500 Du        
  15613 ****         8.5000  19.7500  38.0000 Du        
  15614 ****         8.5000  19.7500  38.2500 Du        
  15615 ****         8.5000  20.0000  31.2500 Du        
  15616 ****         8.5000  20.0000  31.5000 Du        
  15617 ****         8.5000  20.0000  31.7500 Du        
  15618 ****         8.5000  20.0000  32.0000 Du        
  15619 ****         8.5000  20.0000  32.2500 Du        
  15620 ****         8.5000  20.0000  35.2500 Du        
  15621 ****         8.5000  20.0000  35.5000 Du        
  15622 ****         8.5000  20.0000  35.7500 Du        
  15623 ****         8.5000  20.0000  36.0000 Du        
  15624 ****         8.5000  20.0000  36.2500 Du        
  15625 ****         8.5000  20.0000  36.5000 Du        
  15626 ****         8.5000  20.0000  36.7500 Du        
  15627 ****         8.5000  20.0000  37.0000 Du        
  15628 ****         8.5000  20.0000  37.2500 Du        
  15629 ****         8.5000  20.0000  37.5000 Du        
  15630 ****         8.5000  20.0000  37.7500 Du        
  15631 ****         8.5000  20.0000  38.0000 Du        
  15632 ****         8.5000  20.0000  38.2500 Du        
  15633 ****         8.5000  20.2500  31.2500 Du        
  15634 ****         8.5000  20.2500  31.5000 Du        
  15635 ****         8.5000  20.2500  31.7500 Du        
  15636 ****         8.5000  20.2500  32.0000 Du        
  15637 ****         8.5000  20.2500  32.2500 Du        
  15638 ****         8.5000  20.2500  32.5000 Du        
  15639 ****         8.5000  20.2500  32.7500 Du        
  15640 ****         8.5000  20.2500  33.0000 Du        
  15641 ****         8.5000  20.2500  33.2500 Du        
  15642 ****         8.5000  20.2500  35.2500 Du        
  15643 ****         8.5000  20.2500  35.5000 Du        
  15644 ****         8.5000  20.2500  35.7500 Du        
  15645 ****         8.5000  20.2500  36.0000 Du        
  15646 ****         8.5000  20.2500  36.2500 Du        
  15647 ****         8.5000  20.2500  36.5000 Du        
  15648 ****         8.5000  20.2500  36.7500 Du        
  15649 ****         8.5000  20.2500  37.0000 Du        
  15650 ****         8.5000  20.2500  37.2500 Du        
  15651 ****         8.5000  20.2500  37.5000 Du        
  15652 ****         8.5000  20.2500  37.7500 Du        
  15653 ****         8.5000  20.2500  38.0000 Du        
  15654 ****         8.5000  20.2500  38.2500 Du        
  15655 ****         8.5000  20.2500  38.5000 Du        
  15656 ****         8.5000  20.5000  31.2500 Du        
  15657 ****         8.5000  20.5000  31.5000 Du        
  15658 ****         8.5000  20.5000  31.7500 Du        
  15659 ****         8.5000  20.5000  32.0000 Du        
  15660 ****         8.5000  20.5000  32.2500 Du        
  15661 ****         8.5000  20.5000  32.5000 Du        
  15662 ****         8.5000  20.5000  35.5000 Du        
  15663 ****         8.5000  20.5000  35.7500 Du        
  15664 ****         8.5000  20.5000  36.0000 Du        
  15665 ****         8.5000  20.5000  36.2500 Du        
  15666 ****         8.5000  20.5000  36.5000 Du        
  15667 ****         8.5000  20.5000  36.7500 Du        
  15668 ****         8.5000  20.5000  37.0000 Du        
  15669 ****         8.5000  20.5000  37.2500 Du        
  15670 ****         8.5000  20.5000  37.5000 Du        
  15671 ****         8.5000  20.5000  37.7500 Du        
  15672 ****         8.5000  20.5000  38.0000 Du        
  15673 ****         8.5000  20.5000  38.2500 Du        
  15674 ****         8.5000  20.5000  38.5000 Du        
  15675 ****         8.5000  20.5000  38.7500 Du        
  15676 ****         8.5000  20.7500  31.5000 Du        
  15677 ****         8.5000  20.7500  31.7500 Du        
  15678 ****         8.5000  20.7500  32.0000 Du        
  15679 ****         8.5000  20.7500  35.7500 Du        
  15680 ****         8.5000  20.7500  36.0000 Du        
  15681 ****         8.5000  20.7500  36.2500 Du        
  15682 ****         8.5000  20.7500  36.5000 Du        
  15683 ****         8.5000  20.7500  36.7500 Du        
  15684 ****         8.5000  20.7500  37.0000 Du        
  15685 ****         8.5000  20.7500  37.2500 Du        
  15686 ****         8.5000  20.7500  37.5000 Du        
  15687 ****         8.5000  20.7500  37.7500 Du        
  15688 ****         8.5000  20.7500  38.0000 Du        
  15689 ****         8.5000  20.7500  38.2500 Du        
  15690 ****         8.5000  20.7500  38.5000 Du        
  15691 ****         8.5000  20.7500  38.7500 Du        
  15692 ****         8.5000  20.7500  39.0000 Du        
  15693 ****         8.5000  21.0000  36.0000 Du        
  15694 ****         8.5000  21.0000  36.2500 Du        
  15695 ****         8.5000  21.0000  36.5000 Du        
  15696 ****         8.5000  21.0000  36.7500 Du        
  15697 ****         8.5000  21.0000  37.0000 Du        
  15698 ****         8.5000  21.0000  37.2500 Du        
  15699 ****         8.5000  21.0000  37.5000 Du        
  15700 ****         8.5000  21.0000  37.7500 Du        
  15701 ****         8.5000  21.0000  38.0000 Du        
  15702 ****         8.5000  21.0000  38.2500 Du        
  15703 ****         8.5000  21.0000  38.5000 Du        
  15704 ****         8.5000  21.0000  38.7500 Du        
  15705 ****         8.5000  21.0000  39.0000 Du        
  15706 ****         8.5000  21.2500  36.2500 Du        
  15707 ****         8.5000  21.2500  36.5000 Du        
  15708 ****         8.5000  21.2500  36.7500 Du        
  15709 ****         8.5000  21.2500  37.0000 Du        
  15710 ****         8.5000  21.2500  37.2500 Du        
  15711 ****         8.5000  21.2500  37.5000 Du        
  15712 ****         8.5000  21.2500  37.7500 Du        
  15713 ****         8.5000  21.2500  38.0000 Du        
  15714 ****         8.5000  21.2500  38.5000 Du        
  15715 ****         8.5000  21.5000  36.5000 Du        
  15716 ****         8.5000  21.5000  36.7500 Du        
  15717 ****         8.5000  21.5000  37.0000 Du        
  15718 ****         8.5000  21.5000  37.2500 Du        
  15719 ****         8.5000  21.5000  37.5000 Du        
  15720 ****         8.5000  21.5000  37.7500 Du        
  15721 ****         8.5000  21.7500  36.7500 Du        
  15722 ****         8.5000  21.7500  37.0000 Du        
  15723 ****         8.5000  21.7500  37.2500 Du        
  15724 ****         8.5000  21.7500  37.5000 Du        
  15725 ****         8.5000  21.7500  37.7500 Du        
  15726 ****         8.5000  22.0000  37.0000 Du        
  15727 ****         8.5000  22.0000  37.2500 Du        
  15728 ****         8.7500   1.7500  40.0000 Du        
  15729 ****         8.7500   1.7500  43.0000 Du        
  15730 ****         8.7500   1.7500  43.2500 Du        
  15731 ****         8.7500   2.0000  39.7500 Du        
  15732 ****         8.7500   2.0000  40.0000 Du        
  15733 ****         8.7500   9.7500  32.7500 Du        
  15734 ****         8.7500   9.7500  33.0000 Du        
  15735 ****         8.7500  10.0000  32.7500 Du        
  15736 ****         8.7500  10.0000  33.0000 Du        
  15737 ****         8.7500  10.0000  33.2500 Du        
  15738 ****         8.7500  10.0000  33.5000 Du        
  15739 ****         8.7500  10.2500  32.7500 Du        
  15740 ****         8.7500  10.2500  33.0000 Du        
  15741 ****         8.7500  10.2500  33.2500 Du        
  15742 ****         8.7500  10.2500  33.5000 Du        
  15743 ****         8.7500  10.2500  33.7500 Du        
  15744 ****         8.7500  10.5000  33.0000 Du        
  15745 ****         8.7500  10.5000  33.2500 Du        
  15746 ****         8.7500  10.5000  33.5000 Du        
  15747 ****         8.7500  10.5000  33.7500 Du        
  15748 ****         8.7500  10.7500  33.0000 Du        
  15749 ****         8.7500  10.7500  33.2500 Du        
  15750 ****         8.7500  10.7500  33.5000 Du        
  15751 ****         8.7500  10.7500  33.7500 Du        
  15752 ****         8.7500  11.0000  33.0000 Du        
  15753 ****         8.7500  11.0000  33.2500 Du        
  15754 ****         8.7500  11.0000  33.5000 Du        
  15755 ****         8.7500  11.0000  33.7500 Du        
  15756 ****         8.7500  19.0000  37.0000 Du        
  15757 ****         8.7500  19.0000  37.2500 Du        
  15758 ****         8.7500  19.0000  37.5000 Du        
  15759 ****         8.7500  19.0000  37.7500 Du        
  15760 ****         8.7500  19.2500  36.7500 Du        
  15761 ****         8.7500  19.2500  37.0000 Du        
  15762 ****         8.7500  19.2500  37.2500 Du        
  15763 ****         8.7500  19.2500  37.5000 Du        
  15764 ****         8.7500  19.2500  37.7500 Du        
  15765 ****         8.7500  19.5000  36.5000 Du        
  15766 ****         8.7500  19.5000  36.7500 Du        
  15767 ****         8.7500  19.5000  37.0000 Du        
  15768 ****         8.7500  19.5000  37.2500 Du        
  15769 ****         8.7500  19.5000  37.5000 Du        
  15770 ****         8.7500  19.5000  37.7500 Du        
  15771 ****         8.7500  19.5000  38.0000 Du        
  15772 ****         8.7500  19.7500  31.2500 Du        
  15773 ****         8.7500  19.7500  31.5000 Du        
  15774 ****         8.7500  19.7500  36.2500 Du        
  15775 ****         8.7500  19.7500  36.5000 Du        
  15776 ****         8.7500  19.7500  36.7500 Du        
  15777 ****         8.7500  19.7500  37.0000 Du        
  15778 ****         8.7500  19.7500  37.2500 Du        
  15779 ****         8.7500  19.7500  37.5000 Du        
  15780 ****         8.7500  19.7500  37.7500 Du        
  15781 ****         8.7500  19.7500  38.0000 Du        
  15782 ****         8.7500  19.7500  38.2500 Du        
  15783 ****         8.7500  20.0000  31.0000 Du        
  15784 ****         8.7500  20.0000  31.2500 Du        
  15785 ****         8.7500  20.0000  31.5000 Du        
  15786 ****         8.7500  20.0000  31.7500 Du        
  15787 ****         8.7500  20.0000  32.0000 Du        
  15788 ****         8.7500  20.0000  32.2500 Du        
  15789 ****         8.7500  20.0000  36.0000 Du        
  15790 ****         8.7500  20.0000  36.2500 Du        
  15791 ****         8.7500  20.0000  36.5000 Du        
  15792 ****         8.7500  20.0000  36.7500 Du        
  15793 ****         8.7500  20.0000  37.0000 Du        
  15794 ****         8.7500  20.0000  37.2500 Du        
  15795 ****         8.7500  20.0000  37.5000 Du        
  15796 ****         8.7500  20.0000  37.7500 Du        
  15797 ****         8.7500  20.0000  38.0000 Du        
  15798 ****         8.7500  20.0000  38.2500 Du        
  15799 ****         8.7500  20.0000  38.5000 Du        
  15800 ****         8.7500  20.2500  31.0000 Du        
  15801 ****         8.7500  20.2500  31.2500 Du        
  15802 ****         8.7500  20.2500  31.5000 Du        
  15803 ****         8.7500  20.2500  31.7500 Du        
  15804 ****         8.7500  20.2500  32.0000 Du        
  15805 ****         8.7500  20.2500  32.2500 Du        
  15806 ****         8.7500  20.2500  32.5000 Du        
  15807 ****         8.7500  20.2500  35.7500 Du        
  15808 ****         8.7500  20.2500  36.0000 Du        
  15809 ****         8.7500  20.2500  36.2500 Du        
  15810 ****         8.7500  20.2500  36.5000 Du        
  15811 ****         8.7500  20.2500  36.7500 Du        
  15812 ****         8.7500  20.2500  37.0000 Du        
  15813 ****         8.7500  20.2500  37.2500 Du        
  15814 ****         8.7500  20.2500  37.5000 Du        
  15815 ****         8.7500  20.2500  37.7500 Du        
  15816 ****         8.7500  20.2500  38.0000 Du        
  15817 ****         8.7500  20.2500  38.2500 Du        
  15818 ****         8.7500  20.2500  38.5000 Du        
  15819 ****         8.7500  20.2500  38.7500 Du        
  15820 ****         8.7500  20.5000  31.0000 Du        
  15821 ****         8.7500  20.5000  31.2500 Du        
  15822 ****         8.7500  20.5000  31.5000 Du        
  15823 ****         8.7500  20.5000  31.7500 Du        
  15824 ****         8.7500  20.5000  32.0000 Du        
  15825 ****         8.7500  20.5000  32.2500 Du        
  15826 ****         8.7500  20.5000  35.7500 Du        
  15827 ****         8.7500  20.5000  36.0000 Du        
  15828 ****         8.7500  20.5000  36.2500 Du        
  15829 ****         8.7500  20.5000  36.5000 Du        
  15830 ****         8.7500  20.5000  36.7500 Du        
  15831 ****         8.7500  20.5000  37.0000 Du        
  15832 ****         8.7500  20.5000  37.2500 Du        
  15833 ****         8.7500  20.5000  37.5000 Du        
  15834 ****         8.7500  20.5000  37.7500 Du        
  15835 ****         8.7500  20.5000  38.0000 Du        
  15836 ****         8.7500  20.5000  38.2500 Du        
  15837 ****         8.7500  20.5000  38.5000 Du        
  15838 ****         8.7500  20.5000  38.7500 Du        
  15839 ****         8.7500  20.7500  31.0000 Du        
  15840 ****         8.7500  20.7500  31.2500 Du        
  15841 ****         8.7500  20.7500  31.5000 Du        
  15842 ****         8.7500  20.7500  31.7500 Du        
  15843 ****         8.7500  20.7500  35.7500 Du        
  15844 ****         8.7500  20.7500  36.0000 Du        
  15845 ****         8.7500  20.7500  36.2500 Du        
  15846 ****         8.7500  20.7500  36.5000 Du        
  15847 ****         8.7500  20.7500  36.7500 Du        
  15848 ****         8.7500  20.7500  37.0000 Du        
  15849 ****         8.7500  20.7500  37.2500 Du        
  15850 ****         8.7500  20.7500  37.5000 Du        
  15851 ****         8.7500  20.7500  37.7500 Du        
  15852 ****         8.7500  20.7500  38.0000 Du        
  15853 ****         8.7500  20.7500  38.2500 Du        
  15854 ****         8.7500  20.7500  38.5000 Du        
  15855 ****         8.7500  20.7500  38.7500 Du        
  15856 ****         8.7500  20.7500  39.0000 Du        
  15857 ****         8.7500  21.0000  31.2500 Du        
  15858 ****         8.7500  21.0000  36.0000 Du        
  15859 ****         8.7500  21.0000  36.2500 Du        
  15860 ****         8.7500  21.0000  36.5000 Du        
  15861 ****         8.7500  21.0000  36.7500 Du        
  15862 ****         8.7500  21.0000  37.0000 Du        
  15863 ****         8.7500  21.0000  37.2500 Du        
  15864 ****         8.7500  21.0000  37.5000 Du        
  15865 ****         8.7500  21.0000  37.7500 Du        
  15866 ****         8.7500  21.0000  38.0000 Du        
  15867 ****         8.7500  21.0000  38.2500 Du        
  15868 ****         8.7500  21.0000  38.5000 Du        
  15869 ****         8.7500  21.0000  38.7500 Du        
  15870 ****         8.7500  21.2500  36.2500 Du        
  15871 ****         8.7500  21.2500  36.5000 Du        
  15872 ****         8.7500  21.2500  36.7500 Du        
  15873 ****         8.7500  21.2500  37.0000 Du        
  15874 ****         8.7500  21.2500  37.2500 Du        
  15875 ****         8.7500  21.2500  37.5000 Du        
  15876 ****         8.7500  21.2500  37.7500 Du        
  15877 ****         8.7500  21.2500  38.0000 Du        
  15878 ****         8.7500  21.5000  36.5000 Du        
  15879 ****         8.7500  21.5000  36.7500 Du        
  15880 ****         8.7500  21.5000  37.0000 Du        
  15881 ****         8.7500  21.5000  37.2500 Du        
  15882 ****         8.7500  21.5000  37.5000 Du        
  15883 ****         8.7500  21.7500  36.7500 Du        
  15884 ****         8.7500  21.7500  37.0000 Du        
  15885 ****         8.7500  21.7500  37.2500 Du        
  15886 ****         8.7500  22.0000  37.0000 Du        
  15887 ****         9.0000   1.5000  43.2500 Du        
  15888 ****         9.0000   1.5000  43.5000 Du        
  15889 ****         9.0000   1.5000  43.7500 Du        
  15890 ****         9.0000   1.7500  39.7500 Du        
  15891 ****         9.0000   1.7500  40.0000 Du        
  15892 ****         9.0000   1.7500  40.2500 Du        
  15893 ****         9.0000   1.7500  43.0000 Du        
  15894 ****         9.0000   1.7500  43.2500 Du        
  15895 ****         9.0000   1.7500  43.5000 Du        
  15896 ****         9.0000   1.7500  43.7500 Du        
  15897 ****         9.0000   2.0000  39.7500 Du        
  15898 ****         9.0000   2.0000  40.0000 Du        
  15899 ****         9.0000   2.0000  40.2500 Du        
  15900 ****         9.0000   2.0000  41.7500 Du        
  15901 ****         9.0000   2.0000  42.7500 Du        
  15902 ****         9.0000   2.0000  43.0000 Du        
  15903 ****         9.0000   2.0000  43.2500 Du        
  15904 ****         9.0000   2.0000  43.5000 Du        
  15905 ****         9.0000   2.2500  40.0000 Du        
  15906 ****         9.0000   2.2500  40.2500 Du        
  15907 ****         9.0000   2.2500  40.7500 Du        
  15908 ****         9.0000   2.2500  41.7500 Du        
  15909 ****         9.0000   2.2500  42.2500 Du        
  15910 ****         9.0000   2.2500  42.7500 Du        
  15911 ****         9.0000   2.2500  43.0000 Du        
  15912 ****         9.0000   2.2500  43.2500 Du        
  15913 ****         9.0000   2.5000  40.7500 Du        
  15914 ****         9.0000   2.5000  41.0000 Du        
  15915 ****         9.0000   2.5000  41.2500 Du        
  15916 ****         9.0000   2.5000  41.7500 Du        
  15917 ****         9.0000   2.5000  42.0000 Du        
  15918 ****         9.0000   2.5000  42.2500 Du        
  15919 ****         9.0000   2.5000  42.5000 Du        
  15920 ****         9.0000   2.5000  42.7500 Du        
  15921 ****         9.0000   2.5000  43.0000 Du        
  15922 ****         9.0000   2.5000  43.2500 Du        
  15923 ****         9.0000   2.7500  41.0000 Du        
  15924 ****         9.0000   2.7500  41.2500 Du        
  15925 ****         9.0000   2.7500  41.7500 Du        
  15926 ****         9.0000   2.7500  42.0000 Du        
  15927 ****         9.0000   2.7500  42.2500 Du        
  15928 ****         9.0000   2.7500  42.5000 Du        
  15929 ****         9.0000   2.7500  42.7500 Du        
  15930 ****         9.0000   2.7500  43.0000 Du        
  15931 ****         9.0000   2.7500  43.2500 Du        
  15932 ****         9.0000   3.0000  41.7500 Du        
  15933 ****         9.0000   3.0000  42.0000 Du        
  15934 ****         9.0000   3.0000  42.2500 Du        
  15935 ****         9.0000   3.0000  42.5000 Du        
  15936 ****         9.0000   3.0000  42.7500 Du        
  15937 ****         9.0000   3.0000  43.0000 Du        
  15938 ****         9.0000   3.2500  41.7500 Du        
  15939 ****         9.0000   3.2500  42.0000 Du        
  15940 ****         9.0000   3.2500  42.2500 Du        
  15941 ****         9.0000   3.2500  42.5000 Du        
  15942 ****         9.0000   3.5000  41.5000 Du        
  15943 ****         9.0000   3.5000  41.7500 Du        
  15944 ****         9.0000   3.5000  42.0000 Du        
  15945 ****         9.0000   3.5000  42.2500 Du        
  15946 ****         9.0000   3.5000  42.5000 Du        
  15947 ****         9.0000   3.7500  41.7500 Du        
  15948 ****         9.0000   3.7500  42.0000 Du        
  15949 ****         9.0000   3.7500  42.2500 Du        
  15950 ****         9.0000   4.0000  41.7500 Du        
  15951 ****         9.0000   4.0000  42.0000 Du        
  15952 ****         9.0000   4.2500  41.7500 Du        
  15953 ****         9.0000   4.2500  42.0000 Du        
  15954 ****         9.0000  10.0000  33.0000 Du        
  15955 ****         9.0000  10.0000  33.2500 Du        
  15956 ****         9.0000  10.0000  33.5000 Du        
  15957 ****         9.0000  10.0000  33.7500 Du        
  15958 ****         9.0000  10.2500  33.2500 Du        
  15959 ****         9.0000  10.2500  33.5000 Du        
  15960 ****         9.0000  10.2500  33.7500 Du        
  15961 ****         9.0000  10.2500  34.0000 Du        
  15962 ****         9.0000  10.5000  33.2500 Du        
  15963 ****         9.0000  10.5000  33.5000 Du        
  15964 ****         9.0000  10.5000  33.7500 Du        
  15965 ****         9.0000  10.5000  34.0000 Du        
  15966 ****         9.0000  10.7500  33.5000 Du        
  15967 ****         9.0000  10.7500  33.7500 Du        
  15968 ****         9.0000  19.0000  37.2500 Du        
  15969 ****         9.0000  19.0000  37.5000 Du        
  15970 ****         9.0000  19.2500  37.0000 Du        
  15971 ****         9.0000  19.2500  37.2500 Du        
  15972 ****         9.0000  19.2500  37.5000 Du        
  15973 ****         9.0000  19.2500  37.7500 Du        
  15974 ****         9.0000  19.5000  36.7500 Du        
  15975 ****         9.0000  19.5000  37.0000 Du        
  15976 ****         9.0000  19.5000  37.2500 Du        
  15977 ****         9.0000  19.5000  37.5000 Du        
  15978 ****         9.0000  19.5000  37.7500 Du        
  15979 ****         9.0000  19.5000  38.0000 Du        
  15980 ****         9.0000  19.7500  31.2500 Du        
  15981 ****         9.0000  19.7500  36.5000 Du        
  15982 ****         9.0000  19.7500  36.7500 Du        
  15983 ****         9.0000  19.7500  37.0000 Du        
  15984 ****         9.0000  19.7500  37.2500 Du        
  15985 ****         9.0000  19.7500  37.5000 Du        
  15986 ****         9.0000  19.7500  37.7500 Du        
  15987 ****         9.0000  19.7500  38.0000 Du        
  15988 ****         9.0000  19.7500  38.2500 Du        
  15989 ****         9.0000  20.0000  31.0000 Du        
  15990 ****         9.0000  20.0000  31.2500 Du        
  15991 ****         9.0000  20.0000  31.5000 Du        
  15992 ****         9.0000  20.0000  31.7500 Du        
  15993 ****         9.0000  20.0000  32.0000 Du        
  15994 ****         9.0000  20.0000  36.2500 Du        
  15995 ****         9.0000  20.0000  36.5000 Du        
  15996 ****         9.0000  20.0000  36.7500 Du        
  15997 ****         9.0000  20.0000  37.0000 Du        
  15998 ****         9.0000  20.0000  37.2500 Du        
  15999 ****         9.0000  20.0000  37.5000 Du        
  16000 ****         9.0000  20.0000  37.7500 Du        
  16001 ****         9.0000  20.0000  38.0000 Du        
  16002 ****         9.0000  20.0000  38.2500 Du        
  16003 ****         9.0000  20.2500  30.7500 Du        
  16004 ****         9.0000  20.2500  31.0000 Du        
  16005 ****         9.0000  20.2500  31.2500 Du        
  16006 ****         9.0000  20.2500  31.5000 Du        
  16007 ****         9.0000  20.2500  31.7500 Du        
  16008 ****         9.0000  20.2500  32.0000 Du        
  16009 ****         9.0000  20.2500  32.2500 Du        
  16010 ****         9.0000  20.2500  36.0000 Du        
  16011 ****         9.0000  20.2500  36.2500 Du        
  16012 ****         9.0000  20.2500  36.5000 Du        
  16013 ****         9.0000  20.2500  36.7500 Du        
  16014 ****         9.0000  20.2500  37.0000 Du        
  16015 ****         9.0000  20.2500  37.2500 Du        
  16016 ****         9.0000  20.2500  37.5000 Du        
  16017 ****         9.0000  20.2500  37.7500 Du        
  16018 ****         9.0000  20.2500  38.0000 Du        
  16019 ****         9.0000  20.2500  38.2500 Du        
  16020 ****         9.0000  20.2500  38.5000 Du        
  16021 ****         9.0000  20.5000  30.7500 Du        
  16022 ****         9.0000  20.5000  31.0000 Du        
  16023 ****         9.0000  20.5000  31.2500 Du        
  16024 ****         9.0000  20.5000  31.5000 Du        
  16025 ****         9.0000  20.5000  31.7500 Du        
  16026 ****         9.0000  20.5000  32.0000 Du        
  16027 ****         9.0000  20.5000  35.7500 Du        
  16028 ****         9.0000  20.5000  36.0000 Du        
  16029 ****         9.0000  20.5000  36.2500 Du        
  16030 ****         9.0000  20.5000  36.5000 Du        
  16031 ****         9.0000  20.5000  36.7500 Du        
  16032 ****         9.0000  20.5000  37.0000 Du        
  16033 ****         9.0000  20.5000  37.2500 Du        
  16034 ****         9.0000  20.5000  37.5000 Du        
  16035 ****         9.0000  20.5000  37.7500 Du        
  16036 ****         9.0000  20.5000  38.0000 Du        
  16037 ****         9.0000  20.5000  38.2500 Du        
  16038 ****         9.0000  20.5000  38.5000 Du        
  16039 ****         9.0000  20.5000  38.7500 Du        
  16040 ****         9.0000  20.7500  30.7500 Du        
  16041 ****         9.0000  20.7500  31.0000 Du        
  16042 ****         9.0000  20.7500  31.2500 Du        
  16043 ****         9.0000  20.7500  31.5000 Du        
  16044 ****         9.0000  20.7500  36.0000 Du        
  16045 ****         9.0000  20.7500  36.2500 Du        
  16046 ****         9.0000  20.7500  36.5000 Du        
  16047 ****         9.0000  20.7500  36.7500 Du        
  16048 ****         9.0000  20.7500  37.0000 Du        
  16049 ****         9.0000  20.7500  37.2500 Du        
  16050 ****         9.0000  20.7500  37.5000 Du        
  16051 ****         9.0000  20.7500  37.7500 Du        
  16052 ****         9.0000  20.7500  38.0000 Du        
  16053 ****         9.0000  20.7500  38.2500 Du        
  16054 ****         9.0000  20.7500  38.5000 Du        
  16055 ****         9.0000  20.7500  38.7500 Du        
  16056 ****         9.0000  21.0000  30.7500 Du        
  16057 ****         9.0000  21.0000  31.0000 Du        
  16058 ****         9.0000  21.0000  36.0000 Du        
  16059 ****         9.0000  21.0000  36.2500 Du        
  16060 ****         9.0000  21.0000  36.5000 Du        
  16061 ****         9.0000  21.0000  36.7500 Du        
  16062 ****         9.0000  21.0000  37.0000 Du        
  16063 ****         9.0000  21.0000  37.2500 Du        
  16064 ****         9.0000  21.0000  37.5000 Du        
  16065 ****         9.0000  21.0000  37.7500 Du        
  16066 ****         9.0000  21.0000  38.0000 Du        
  16067 ****         9.0000  21.2500  36.2500 Du        
  16068 ****         9.0000  21.2500  36.5000 Du        
  16069 ****         9.0000  21.2500  36.7500 Du        
  16070 ****         9.0000  21.2500  37.0000 Du        
  16071 ****         9.0000  21.2500  37.2500 Du        
  16072 ****         9.0000  21.2500  37.5000 Du        
  16073 ****         9.0000  21.2500  37.7500 Du        
  16074 ****         9.0000  21.5000  36.5000 Du        
  16075 ****         9.0000  21.5000  36.7500 Du        
  16076 ****         9.0000  21.5000  37.0000 Du        
  16077 ****         9.0000  21.5000  37.2500 Du        
  16078 ****         9.0000  21.7500  36.7500 Du        
  16079 ****         9.0000  21.7500  37.0000 Du        
  16080 ****         9.0000  24.7500  40.2500 Du        
  16081 ****         9.0000  24.7500  40.5000 Du        
  16082 ****         9.2500   1.5000  43.5000 Du        
  16083 ****         9.2500   1.5000  43.7500 Du        
  16084 ****         9.2500   1.5000  44.0000 Du        
  16085 ****         9.2500   1.7500  39.7500 Du        
  16086 ****         9.2500   1.7500  40.0000 Du        
  16087 ****         9.2500   1.7500  40.2500 Du        
  16088 ****         9.2500   1.7500  43.0000 Du        
  16089 ****         9.2500   1.7500  43.2500 Du        
  16090 ****         9.2500   1.7500  43.5000 Du        
  16091 ****         9.2500   1.7500  43.7500 Du        
  16092 ****         9.2500   1.7500  44.0000 Du        
  16093 ****         9.2500   1.7500  44.2500 Du        
  16094 ****         9.2500   2.0000  39.2500 Du        
  16095 ****         9.2500   2.0000  39.7500 Du        
  16096 ****         9.2500   2.0000  40.0000 Du        
  16097 ****         9.2500   2.0000  40.2500 Du        
  16098 ****         9.2500   2.0000  41.7500 Du        
  16099 ****         9.2500   2.0000  42.0000 Du        
  16100 ****         9.2500   2.0000  42.7500 Du        
  16101 ****         9.2500   2.0000  43.0000 Du        
  16102 ****         9.2500   2.0000  43.2500 Du        
  16103 ****         9.2500   2.0000  43.5000 Du        
  16104 ****         9.2500   2.0000  43.7500 Du        
  16105 ****         9.2500   2.0000  44.0000 Du        
  16106 ****         9.2500   2.2500  40.0000 Du        
  16107 ****         9.2500   2.2500  40.7500 Du        
  16108 ****         9.2500   2.2500  41.5000 Du        
  16109 ****         9.2500   2.2500  41.7500 Du        
  16110 ****         9.2500   2.2500  42.0000 Du        
  16111 ****         9.2500   2.2500  42.2500 Du        
  16112 ****         9.2500   2.2500  42.5000 Du        
  16113 ****         9.2500   2.2500  42.7500 Du        
  16114 ****         9.2500   2.2500  43.0000 Du        
  16115 ****         9.2500   2.2500  43.2500 Du        
  16116 ****         9.2500   2.2500  43.5000 Du        
  16117 ****         9.2500   2.2500  43.7500 Du        
  16118 ****         9.2500   2.5000  40.7500 Du        
  16119 ****         9.2500   2.5000  41.0000 Du        
  16120 ****         9.2500   2.5000  41.2500 Du        
  16121 ****         9.2500   2.5000  41.5000 Du        
  16122 ****         9.2500   2.5000  41.7500 Du        
  16123 ****         9.2500   2.5000  42.0000 Du        
  16124 ****         9.2500   2.5000  42.2500 Du        
  16125 ****         9.2500   2.5000  42.5000 Du        
  16126 ****         9.2500   2.5000  42.7500 Du        
  16127 ****         9.2500   2.5000  43.0000 Du        
  16128 ****         9.2500   2.5000  43.2500 Du        
  16129 ****         9.2500   2.5000  43.5000 Du        
  16130 ****         9.2500   2.7500  40.7500 Du        
  16131 ****         9.2500   2.7500  41.0000 Du        
  16132 ****         9.2500   2.7500  41.2500 Du        
  16133 ****         9.2500   2.7500  41.5000 Du        
  16134 ****         9.2500   2.7500  41.7500 Du        
  16135 ****         9.2500   2.7500  42.0000 Du        
  16136 ****         9.2500   2.7500  42.2500 Du        
  16137 ****         9.2500   2.7500  42.5000 Du        
  16138 ****         9.2500   2.7500  42.7500 Du        
  16139 ****         9.2500   2.7500  43.0000 Du        
  16140 ****         9.2500   2.7500  43.2500 Du        
  16141 ****         9.2500   3.0000  41.0000 Du        
  16142 ****         9.2500   3.0000  41.2500 Du        
  16143 ****         9.2500   3.0000  41.5000 Du        
  16144 ****         9.2500   3.0000  41.7500 Du        
  16145 ****         9.2500   3.0000  42.0000 Du        
  16146 ****         9.2500   3.0000  42.2500 Du        
  16147 ****         9.2500   3.0000  42.5000 Du        
  16148 ****         9.2500   3.0000  42.7500 Du        
  16149 ****         9.2500   3.0000  43.0000 Du        
  16150 ****         9.2500   3.2500  41.2500 Du        
  16151 ****         9.2500   3.2500  41.5000 Du        
  16152 ****         9.2500   3.2500  41.7500 Du        
  16153 ****         9.2500   3.2500  42.0000 Du        
  16154 ****         9.2500   3.2500  42.2500 Du        
  16155 ****         9.2500   3.2500  42.5000 Du        
  16156 ****         9.2500   3.2500  42.7500 Du        
  16157 ****         9.2500   3.5000  41.5000 Du        
  16158 ****         9.2500   3.5000  41.7500 Du        
  16159 ****         9.2500   3.5000  42.0000 Du        
  16160 ****         9.2500   3.5000  42.2500 Du        
  16161 ****         9.2500   3.5000  42.5000 Du        
  16162 ****         9.2500   3.7500  41.5000 Du        
  16163 ****         9.2500   3.7500  41.7500 Du        
  16164 ****         9.2500   3.7500  42.0000 Du        
  16165 ****         9.2500   3.7500  42.2500 Du        
  16166 ****         9.2500   4.0000  41.7500 Du        
  16167 ****         9.2500   4.0000  42.0000 Du        
  16168 ****         9.2500   4.0000  42.2500 Du        
  16169 ****         9.2500   4.2500  41.7500 Du        
  16170 ****         9.2500   4.2500  42.0000 Du        
  16171 ****         9.2500  10.2500  33.7500 Du        
  16172 ****         9.2500  19.2500  37.2500 Du        
  16173 ****         9.2500  19.2500  37.5000 Du        
  16174 ****         9.2500  19.5000  37.0000 Du        
  16175 ****         9.2500  19.5000  37.2500 Du        
  16176 ****         9.2500  19.5000  37.5000 Du        
  16177 ****         9.2500  19.5000  37.7500 Du        
  16178 ****         9.2500  19.7500  36.7500 Du        
  16179 ****         9.2500  19.7500  37.0000 Du        
  16180 ****         9.2500  19.7500  37.2500 Du        
  16181 ****         9.2500  19.7500  37.5000 Du        
  16182 ****         9.2500  19.7500  37.7500 Du        
  16183 ****         9.2500  19.7500  38.0000 Du        
  16184 ****         9.2500  20.0000  31.0000 Du        
  16185 ****         9.2500  20.0000  31.2500 Du        
  16186 ****         9.2500  20.0000  31.5000 Du        
  16187 ****         9.2500  20.0000  31.7500 Du        
  16188 ****         9.2500  20.0000  36.5000 Du        
  16189 ****         9.2500  20.0000  36.7500 Du        
  16190 ****         9.2500  20.0000  37.0000 Du        
  16191 ****         9.2500  20.0000  37.2500 Du        
  16192 ****         9.2500  20.0000  37.5000 Du        
  16193 ****         9.2500  20.0000  37.7500 Du        
  16194 ****         9.2500  20.0000  38.0000 Du        
  16195 ****         9.2500  20.0000  38.2500 Du        
  16196 ****         9.2500  20.2500  30.7500 Du        
  16197 ****         9.2500  20.2500  31.0000 Du        
  16198 ****         9.2500  20.2500  31.2500 Du        
  16199 ****         9.2500  20.2500  31.5000 Du        
  16200 ****         9.2500  20.2500  31.7500 Du        
  16201 ****         9.2500  20.2500  32.0000 Du        
  16202 ****         9.2500  20.2500  36.2500 Du        
  16203 ****         9.2500  20.2500  36.5000 Du        
  16204 ****         9.2500  20.2500  36.7500 Du        
  16205 ****         9.2500  20.2500  37.0000 Du        
  16206 ****         9.2500  20.2500  37.2500 Du        
  16207 ****         9.2500  20.2500  37.5000 Du        
  16208 ****         9.2500  20.2500  37.7500 Du        
  16209 ****         9.2500  20.2500  38.0000 Du        
  16210 ****         9.2500  20.2500  38.2500 Du        
  16211 ****         9.2500  20.5000  30.5000 Du        
  16212 ****         9.2500  20.5000  30.7500 Du        
  16213 ****         9.2500  20.5000  31.0000 Du        
  16214 ****         9.2500  20.5000  31.2500 Du        
  16215 ****         9.2500  20.5000  31.5000 Du        
  16216 ****         9.2500  20.5000  36.0000 Du        
  16217 ****         9.2500  20.5000  36.2500 Du        
  16218 ****         9.2500  20.5000  36.5000 Du        
  16219 ****         9.2500  20.5000  36.7500 Du        
  16220 ****         9.2500  20.5000  37.0000 Du        
  16221 ****         9.2500  20.5000  37.2500 Du        
  16222 ****         9.2500  20.5000  37.5000 Du        
  16223 ****         9.2500  20.5000  37.7500 Du        
  16224 ****         9.2500  20.5000  38.0000 Du        
  16225 ****         9.2500  20.5000  38.2500 Du        
  16226 ****         9.2500  20.7500  30.2500 Du        
  16227 ****         9.2500  20.7500  30.5000 Du        
  16228 ****         9.2500  20.7500  30.7500 Du        
  16229 ****         9.2500  20.7500  31.0000 Du        
  16230 ****         9.2500  20.7500  31.2500 Du        
  16231 ****         9.2500  20.7500  36.0000 Du        
  16232 ****         9.2500  20.7500  36.2500 Du        
  16233 ****         9.2500  20.7500  36.5000 Du        
  16234 ****         9.2500  20.7500  36.7500 Du        
  16235 ****         9.2500  20.7500  37.0000 Du        
  16236 ****         9.2500  20.7500  37.2500 Du        
  16237 ****         9.2500  20.7500  37.5000 Du        
  16238 ****         9.2500  20.7500  37.7500 Du        
  16239 ****         9.2500  20.7500  38.0000 Du        
  16240 ****         9.2500  21.0000  30.2500 Du        
  16241 ****         9.2500  21.0000  30.5000 Du        
  16242 ****         9.2500  21.0000  30.7500 Du        
  16243 ****         9.2500  21.0000  31.0000 Du        
  16244 ****         9.2500  21.0000  36.2500 Du        
  16245 ****         9.2500  21.0000  36.5000 Du        
  16246 ****         9.2500  21.0000  36.7500 Du        
  16247 ****         9.2500  21.0000  37.0000 Du        
  16248 ****         9.2500  21.0000  37.2500 Du        
  16249 ****         9.2500  21.0000  37.5000 Du        
  16250 ****         9.2500  21.2500  30.0000 Du        
  16251 ****         9.2500  21.2500  30.2500 Du        
  16252 ****         9.2500  21.2500  30.5000 Du        
  16253 ****         9.2500  21.2500  30.7500 Du        
  16254 ****         9.2500  21.2500  36.5000 Du        
  16255 ****         9.2500  21.2500  36.7500 Du        
  16256 ****         9.2500  21.2500  37.0000 Du        
  16257 ****         9.2500  21.2500  37.2500 Du        
  16258 ****         9.2500  21.5000  30.0000 Du        
  16259 ****         9.2500  21.5000  30.2500 Du        
  16260 ****         9.2500  21.5000  30.5000 Du        
  16261 ****         9.2500  21.5000  36.7500 Du        
  16262 ****         9.2500  21.7500  30.0000 Du        
  16263 ****         9.2500  21.7500  30.2500 Du        
  16264 ****         9.2500  22.0000  30.0000 Du        
  16265 ****         9.2500  24.7500  40.5000 Du        
  16266 ****         9.2500  24.7500  40.7500 Du        
  16267 ****         9.5000   1.2500  39.2500 Du        
  16268 ****         9.5000   1.5000  39.0000 Du        
  16269 ****         9.5000   1.5000  39.2500 Du        
  16270 ****         9.5000   1.5000  39.5000 Du        
  16271 ****         9.5000   1.7500  39.0000 Du        
  16272 ****         9.5000   1.7500  39.2500 Du        
  16273 ****         9.5000   1.7500  39.5000 Du        
  16274 ****         9.5000   1.7500  39.7500 Du        
  16275 ****         9.5000   1.7500  43.2500 Du        
  16276 ****         9.5000   1.7500  43.5000 Du        
  16277 ****         9.5000   1.7500  43.7500 Du        
  16278 ****         9.5000   1.7500  44.0000 Du        
  16279 ****         9.5000   2.0000  39.0000 Du        
  16280 ****         9.5000   2.0000  39.2500 Du        
  16281 ****         9.5000   2.0000  39.5000 Du        
  16282 ****         9.5000   2.0000  39.7500 Du        
  16283 ****         9.5000   2.0000  42.7500 Du        
  16284 ****         9.5000   2.0000  43.0000 Du        
  16285 ****         9.5000   2.0000  43.2500 Du        
  16286 ****         9.5000   2.0000  43.5000 Du        
  16287 ****         9.5000   2.0000  43.7500 Du        
  16288 ****         9.5000   2.0000  44.0000 Du        
  16289 ****         9.5000   2.2500  39.0000 Du        
  16290 ****         9.5000   2.2500  39.2500 Du        
  16291 ****         9.5000   2.2500  40.7500 Du        
  16292 ****         9.5000   2.2500  41.0000 Du        
  16293 ****         9.5000   2.2500  41.2500 Du        
  16294 ****         9.5000   2.2500  41.7500 Du        
  16295 ****         9.5000   2.2500  42.0000 Du        
  16296 ****         9.5000   2.2500  42.2500 Du        
  16297 ****         9.5000   2.2500  42.5000 Du        
  16298 ****         9.5000   2.2500  42.7500 Du        
  16299 ****         9.5000   2.2500  43.0000 Du        
  16300 ****         9.5000   2.2500  43.2500 Du        
  16301 ****         9.5000   2.2500  43.5000 Du        
  16302 ****         9.5000   2.2500  43.7500 Du        
  16303 ****         9.5000   2.5000  40.7500 Du        
  16304 ****         9.5000   2.5000  41.0000 Du        
  16305 ****         9.5000   2.5000  41.2500 Du        
  16306 ****         9.5000   2.5000  41.5000 Du        
  16307 ****         9.5000   2.5000  41.7500 Du        
  16308 ****         9.5000   2.5000  42.0000 Du        
  16309 ****         9.5000   2.5000  42.2500 Du        
  16310 ****         9.5000   2.5000  42.5000 Du        
  16311 ****         9.5000   2.5000  42.7500 Du        
  16312 ****         9.5000   2.5000  43.0000 Du        
  16313 ****         9.5000   2.5000  43.2500 Du        
  16314 ****         9.5000   2.5000  43.5000 Du        
  16315 ****         9.5000   2.5000  43.7500 Du        
  16316 ****         9.5000   2.7500  40.7500 Du        
  16317 ****         9.5000   2.7500  41.0000 Du        
  16318 ****         9.5000   2.7500  41.2500 Du        
  16319 ****         9.5000   2.7500  41.5000 Du        
  16320 ****         9.5000   2.7500  41.7500 Du        
  16321 ****         9.5000   2.7500  42.0000 Du        
  16322 ****         9.5000   2.7500  42.2500 Du        
  16323 ****         9.5000   2.7500  42.5000 Du        
  16324 ****         9.5000   2.7500  42.7500 Du        
  16325 ****         9.5000   2.7500  43.0000 Du        
  16326 ****         9.5000   2.7500  43.2500 Du        
  16327 ****         9.5000   3.0000  41.0000 Du        
  16328 ****         9.5000   3.0000  41.2500 Du        
  16329 ****         9.5000   3.0000  41.5000 Du        
  16330 ****         9.5000   3.0000  41.7500 Du        
  16331 ****         9.5000   3.0000  42.0000 Du        
  16332 ****         9.5000   3.0000  42.2500 Du        
  16333 ****         9.5000   3.0000  42.5000 Du        
  16334 ****         9.5000   3.0000  42.7500 Du        
  16335 ****         9.5000   3.0000  43.0000 Du        
  16336 ****         9.5000   3.2500  41.2500 Du        
  16337 ****         9.5000   3.2500  41.5000 Du        
  16338 ****         9.5000   3.2500  41.7500 Du        
  16339 ****         9.5000   3.2500  42.0000 Du        
  16340 ****         9.5000   3.2500  42.2500 Du        
  16341 ****         9.5000   3.2500  42.5000 Du        
  16342 ****         9.5000   3.2500  42.7500 Du        
  16343 ****         9.5000   3.5000  41.5000 Du        
  16344 ****         9.5000   3.5000  41.7500 Du        
  16345 ****         9.5000   3.5000  42.0000 Du        
  16346 ****         9.5000   3.5000  42.2500 Du        
  16347 ****         9.5000   3.5000  42.5000 Du        
  16348 ****         9.5000   3.7500  41.5000 Du        
  16349 ****         9.5000   3.7500  41.7500 Du        
  16350 ****         9.5000   3.7500  42.0000 Du        
  16351 ****         9.5000   3.7500  42.2500 Du        
  16352 ****         9.5000   4.0000  41.7500 Du        
  16353 ****         9.5000   4.0000  42.0000 Du        
  16354 ****         9.5000  19.5000  37.2500 Du        
  16355 ****         9.5000  19.5000  37.5000 Du        
  16356 ****         9.5000  19.5000  37.7500 Du        
  16357 ****         9.5000  19.7500  37.0000 Du        
  16358 ****         9.5000  19.7500  37.2500 Du        
  16359 ****         9.5000  19.7500  37.5000 Du        
  16360 ****         9.5000  19.7500  37.7500 Du        
  16361 ****         9.5000  19.7500  38.0000 Du        
  16362 ****         9.5000  20.0000  31.0000 Du        
  16363 ****         9.5000  20.0000  31.2500 Du        
  16364 ****         9.5000  20.0000  31.5000 Du        
  16365 ****         9.5000  20.0000  31.7500 Du        
  16366 ****         9.5000  20.0000  36.7500 Du        
  16367 ****         9.5000  20.0000  37.0000 Du        
  16368 ****         9.5000  20.0000  37.2500 Du        
  16369 ****         9.5000  20.0000  37.5000 Du        
  16370 ****         9.5000  20.0000  37.7500 Du        
  16371 ****         9.5000  20.0000  38.0000 Du        
  16372 ****         9.5000  20.2500  30.7500 Du        
  16373 ****         9.5000  20.2500  31.0000 Du        
  16374 ****         9.5000  20.2500  31.2500 Du        
  16375 ****         9.5000  20.2500  31.5000 Du        
  16376 ****         9.5000  20.2500  31.7500 Du        
  16377 ****         9.5000  20.2500  36.5000 Du        
  16378 ****         9.5000  20.2500  36.7500 Du        
  16379 ****         9.5000  20.2500  37.0000 Du        
  16380 ****         9.5000  20.2500  37.2500 Du        
  16381 ****         9.5000  20.2500  37.5000 Du        
  16382 ****         9.5000  20.2500  37.7500 Du        
  16383 ****         9.5000  20.2500  38.0000 Du        
  16384 ****         9.5000  20.5000  30.5000 Du        
  16385 ****         9.5000  20.5000  30.7500 Du        
  16386 ****         9.5000  20.5000  31.0000 Du        
  16387 ****         9.5000  20.5000  31.2500 Du        
  16388 ****         9.5000  20.5000  31.5000 Du        
  16389 ****         9.5000  20.5000  36.2500 Du        
  16390 ****         9.5000  20.5000  36.5000 Du        
  16391 ****         9.5000  20.5000  36.7500 Du        
  16392 ****         9.5000  20.5000  37.0000 Du        
  16393 ****         9.5000  20.5000  37.2500 Du        
  16394 ****         9.5000  20.5000  37.5000 Du        
  16395 ****         9.5000  20.5000  37.7500 Du        
  16396 ****         9.5000  20.5000  38.0000 Du        
  16397 ****         9.5000  20.7500  30.0000 Du        
  16398 ****         9.5000  20.7500  30.2500 Du        
  16399 ****         9.5000  20.7500  30.5000 Du        
  16400 ****         9.5000  20.7500  30.7500 Du        
  16401 ****         9.5000  20.7500  31.0000 Du        
  16402 ****         9.5000  20.7500  31.2500 Du        
  16403 ****         9.5000  20.7500  36.2500 Du        
  16404 ****         9.5000  20.7500  36.5000 Du        
  16405 ****         9.5000  20.7500  36.7500 Du        
  16406 ****         9.5000  20.7500  37.0000 Du        
  16407 ****         9.5000  20.7500  37.2500 Du        
  16408 ****         9.5000  20.7500  37.5000 Du        
  16409 ****         9.5000  21.0000  28.7500 Du        
  16410 ****         9.5000  21.0000  29.0000 Du        
  16411 ****         9.5000  21.0000  29.2500 Du        
  16412 ****         9.5000  21.0000  29.5000 Du        
  16413 ****         9.5000  21.0000  29.7500 Du        
  16414 ****         9.5000  21.0000  30.0000 Du        
  16415 ****         9.5000  21.0000  30.2500 Du        
  16416 ****         9.5000  21.0000  30.5000 Du        
  16417 ****         9.5000  21.0000  30.7500 Du        
  16418 ****         9.5000  21.0000  36.2500 Du        
  16419 ****         9.5000  21.0000  36.5000 Du        
  16420 ****         9.5000  21.0000  36.7500 Du        
  16421 ****         9.5000  21.0000  37.0000 Du        
  16422 ****         9.5000  21.0000  37.2500 Du        
  16423 ****         9.5000  21.2500  28.5000 Du        
  16424 ****         9.5000  21.2500  28.7500 Du        
  16425 ****         9.5000  21.2500  29.0000 Du        
  16426 ****         9.5000  21.2500  29.2500 Du        
  16427 ****         9.5000  21.2500  29.5000 Du        
  16428 ****         9.5000  21.2500  29.7500 Du        
  16429 ****         9.5000  21.2500  30.0000 Du        
  16430 ****         9.5000  21.2500  30.2500 Du        
  16431 ****         9.5000  21.2500  30.5000 Du        
  16432 ****         9.5000  21.2500  30.7500 Du        
  16433 ****         9.5000  21.2500  36.5000 Du        
  16434 ****         9.5000  21.2500  36.7500 Du        
  16435 ****         9.5000  21.5000  28.0000 Du        
  16436 ****         9.5000  21.5000  28.2500 Du        
  16437 ****         9.5000  21.5000  28.5000 Du        
  16438 ****         9.5000  21.5000  28.7500 Du        
  16439 ****         9.5000  21.5000  29.0000 Du        
  16440 ****         9.5000  21.5000  29.2500 Du        
  16441 ****         9.5000  21.5000  29.5000 Du        
  16442 ****         9.5000  21.5000  29.7500 Du        
  16443 ****         9.5000  21.5000  30.0000 Du        
  16444 ****         9.5000  21.5000  30.2500 Du        
  16445 ****         9.5000  21.5000  30.5000 Du        
  16446 ****         9.5000  21.7500  27.7500 Du        
  16447 ****         9.5000  21.7500  28.0000 Du        
  16448 ****         9.5000  21.7500  28.2500 Du        
  16449 ****         9.5000  21.7500  28.5000 Du        
  16450 ****         9.5000  21.7500  28.7500 Du        
  16451 ****         9.5000  21.7500  29.0000 Du        
  16452 ****         9.5000  21.7500  29.2500 Du        
  16453 ****         9.5000  21.7500  29.5000 Du        
  16454 ****         9.5000  21.7500  29.7500 Du        
  16455 ****         9.5000  21.7500  30.0000 Du        
  16456 ****         9.5000  21.7500  30.2500 Du        
  16457 ****         9.5000  22.0000  27.7500 Du        
  16458 ****         9.5000  22.0000  28.0000 Du        
  16459 ****         9.5000  22.0000  28.2500 Du        
  16460 ****         9.5000  22.0000  28.5000 Du        
  16461 ****         9.5000  22.0000  28.7500 Du        
  16462 ****         9.5000  22.0000  29.0000 Du        
  16463 ****         9.5000  22.0000  29.2500 Du        
  16464 ****         9.5000  22.0000  29.5000 Du        
  16465 ****         9.5000  22.0000  29.7500 Du        
  16466 ****         9.5000  22.0000  30.0000 Du        
  16467 ****         9.5000  22.0000  30.2500 Du        
  16468 ****         9.5000  22.2500  28.2500 Du        
  16469 ****         9.5000  22.2500  28.5000 Du        
  16470 ****         9.5000  22.2500  28.7500 Du        
  16471 ****         9.5000  22.2500  29.0000 Du        
  16472 ****         9.5000  22.2500  29.2500 Du        
  16473 ****         9.5000  22.2500  29.5000 Du        
  16474 ****         9.5000  22.2500  29.7500 Du        
  16475 ****         9.5000  22.2500  30.0000 Du        
  16476 ****         9.5000  22.5000  29.7500 Du        
  16477 ****         9.5000  22.5000  30.0000 Du        
  16478 ****         9.5000  24.7500  40.7500 Du        
  16479 ****         9.5000  24.7500  41.0000 Du        
  16480 ****         9.7500   0.0000  38.7500 Du        
  16481 ****         9.7500   0.0000  39.0000 Du        
  16482 ****         9.7500   0.2500  39.0000 Du        
  16483 ****         9.7500   0.5000  39.0000 Du        
  16484 ****         9.7500   0.5000  39.2500 Du        
  16485 ****         9.7500   0.7500  38.7500 Du        
  16486 ****         9.7500   0.7500  39.0000 Du        
  16487 ****         9.7500   0.7500  39.2500 Du        
  16488 ****         9.7500   1.0000  38.7500 Du        
  16489 ****         9.7500   1.0000  39.0000 Du        
  16490 ****         9.7500   1.0000  39.2500 Du        
  16491 ****         9.7500   1.0000  39.5000 Du        
  16492 ****         9.7500   1.2500  38.7500 Du        
  16493 ****         9.7500   1.2500  39.0000 Du        
  16494 ****         9.7500   1.2500  39.2500 Du        
  16495 ****         9.7500   1.5000  38.7500 Du        
  16496 ****         9.7500   1.5000  39.0000 Du        
  16497 ****         9.7500   1.5000  39.2500 Du        
  16498 ****         9.7500   1.5000  39.5000 Du        
  16499 ****         9.7500   1.5000  39.7500 Du        
  16500 ****         9.7500   1.5000  44.5000 Du        
  16501 ****         9.7500   1.7500  38.7500 Du        
  16502 ****         9.7500   1.7500  39.0000 Du        
  16503 ****         9.7500   1.7500  39.2500 Du        
  16504 ****         9.7500   1.7500  39.5000 Du        
  16505 ****         9.7500   1.7500  39.7500 Du        
  16506 ****         9.7500   1.7500  40.0000 Du        
  16507 ****         9.7500   1.7500  43.2500 Du        
  16508 ****         9.7500   1.7500  43.7500 Du        
  16509 ****         9.7500   1.7500  44.0000 Du        
  16510 ****         9.7500   1.7500  44.2500 Du        
  16511 ****         9.7500   1.7500  44.5000 Du        
  16512 ****         9.7500   1.7500  44.7500 Du        
  16513 ****         9.7500   2.0000  38.5000 Du        
  16514 ****         9.7500   2.0000  38.7500 Du        
  16515 ****         9.7500   2.0000  39.0000 Du        
  16516 ****         9.7500   2.0000  39.2500 Du        
  16517 ****         9.7500   2.0000  39.5000 Du        
  16518 ****         9.7500   2.0000  39.7500 Du        
  16519 ****         9.7500   2.0000  40.0000 Du        
  16520 ****         9.7500   2.0000  41.0000 Du        
  16521 ****         9.7500   2.0000  42.7500 Du        
  16522 ****         9.7500   2.0000  43.0000 Du        
  16523 ****         9.7500   2.0000  43.2500 Du        
  16524 ****         9.7500   2.0000  43.5000 Du        
  16525 ****         9.7500   2.0000  43.7500 Du        
  16526 ****         9.7500   2.0000  44.0000 Du        
  16527 ****         9.7500   2.0000  44.2500 Du        
  16528 ****         9.7500   2.0000  44.5000 Du        
  16529 ****         9.7500   2.2500  38.5000 Du        
  16530 ****         9.7500   2.2500  38.7500 Du        
  16531 ****         9.7500   2.2500  39.0000 Du        
  16532 ****         9.7500   2.2500  39.2500 Du        
  16533 ****         9.7500   2.2500  39.5000 Du        
  16534 ****         9.7500   2.2500  39.7500 Du        
  16535 ****         9.7500   2.2500  40.0000 Du        
  16536 ****         9.7500   2.2500  40.7500 Du        
  16537 ****         9.7500   2.2500  41.0000 Du        
  16538 ****         9.7500   2.2500  41.2500 Du        
  16539 ****         9.7500   2.2500  42.0000 Du        
  16540 ****         9.7500   2.2500  42.2500 Du        
  16541 ****         9.7500   2.2500  42.5000 Du        
  16542 ****         9.7500   2.2500  42.7500 Du        
  16543 ****         9.7500   2.2500  43.0000 Du        
  16544 ****         9.7500   2.2500  43.2500 Du        
  16545 ****         9.7500   2.2500  43.5000 Du        
  16546 ****         9.7500   2.2500  43.7500 Du        
  16547 ****         9.7500   2.2500  44.0000 Du        
  16548 ****         9.7500   2.5000  40.2500 Du        
  16549 ****         9.7500   2.5000  40.5000 Du        
  16550 ****         9.7500   2.5000  40.7500 Du        
  16551 ****         9.7500   2.5000  41.0000 Du        
  16552 ****         9.7500   2.5000  41.2500 Du        
  16553 ****         9.7500   2.5000  41.5000 Du        
  16554 ****         9.7500   2.5000  41.7500 Du        
  16555 ****         9.7500   2.5000  42.0000 Du        
  16556 ****         9.7500   2.5000  42.2500 Du        
  16557 ****         9.7500   2.5000  42.5000 Du        
  16558 ****         9.7500   2.5000  42.7500 Du        
  16559 ****         9.7500   2.5000  43.0000 Du        
  16560 ****         9.7500   2.5000  43.2500 Du        
  16561 ****         9.7500   2.5000  43.5000 Du        
  16562 ****         9.7500   2.5000  43.7500 Du        
  16563 ****         9.7500   2.7500  40.7500 Du        
  16564 ****         9.7500   2.7500  41.0000 Du        
  16565 ****         9.7500   2.7500  41.2500 Du        
  16566 ****         9.7500   2.7500  41.5000 Du        
  16567 ****         9.7500   2.7500  41.7500 Du        
  16568 ****         9.7500   2.7500  42.0000 Du        
  16569 ****         9.7500   2.7500  42.2500 Du        
  16570 ****         9.7500   2.7500  42.5000 Du        
  16571 ****         9.7500   2.7500  42.7500 Du        
  16572 ****         9.7500   2.7500  43.0000 Du        
  16573 ****         9.7500   2.7500  43.2500 Du        
  16574 ****         9.7500   3.0000  41.0000 Du        
  16575 ****         9.7500   3.0000  41.2500 Du        
  16576 ****         9.7500   3.0000  41.5000 Du        
  16577 ****         9.7500   3.0000  41.7500 Du        
  16578 ****         9.7500   3.0000  42.0000 Du        
  16579 ****         9.7500   3.0000  42.2500 Du        
  16580 ****         9.7500   3.0000  42.5000 Du        
  16581 ****         9.7500   3.0000  42.7500 Du        
  16582 ****         9.7500   3.0000  43.0000 Du        
  16583 ****         9.7500   3.2500  41.2500 Du        
  16584 ****         9.7500   3.2500  41.5000 Du        
  16585 ****         9.7500   3.2500  41.7500 Du        
  16586 ****         9.7500   3.2500  42.0000 Du        
  16587 ****         9.7500   3.2500  42.2500 Du        
  16588 ****         9.7500   3.2500  42.5000 Du        
  16589 ****         9.7500   3.2500  42.7500 Du        
  16590 ****         9.7500   3.5000  41.2500 Du        
  16591 ****         9.7500   3.5000  41.5000 Du        
  16592 ****         9.7500   3.5000  41.7500 Du        
  16593 ****         9.7500   3.5000  42.0000 Du        
  16594 ****         9.7500   3.5000  42.2500 Du        
  16595 ****         9.7500   3.5000  42.5000 Du        
  16596 ****         9.7500   3.7500  41.5000 Du        
  16597 ****         9.7500   3.7500  41.7500 Du        
  16598 ****         9.7500   3.7500  42.0000 Du        
  16599 ****         9.7500   3.7500  42.2500 Du        
  16600 ****         9.7500   4.0000  41.7500 Du        
  16601 ****         9.7500   4.0000  42.0000 Du        
  16602 ****         9.7500  19.7500  37.2500 Du        
  16603 ****         9.7500  19.7500  37.5000 Du        
  16604 ****         9.7500  19.7500  37.7500 Du        
  16605 ****         9.7500  20.0000  31.0000 Du        
  16606 ****         9.7500  20.0000  31.2500 Du        
  16607 ****         9.7500  20.0000  31.5000 Du        
  16608 ****         9.7500  20.0000  31.7500 Du        
  16609 ****         9.7500  20.0000  36.7500 Du        
  16610 ****         9.7500  20.0000  37.0000 Du        
  16611 ****         9.7500  20.0000  37.2500 Du        
  16612 ****         9.7500  20.0000  37.5000 Du        
  16613 ****         9.7500  20.0000  37.7500 Du        
  16614 ****         9.7500  20.2500  30.7500 Du        
  16615 ****         9.7500  20.2500  31.0000 Du        
  16616 ****         9.7500  20.2500  31.2500 Du        
  16617 ****         9.7500  20.2500  31.5000 Du        
  16618 ****         9.7500  20.2500  31.7500 Du        
  16619 ****         9.7500  20.2500  36.5000 Du        
  16620 ****         9.7500  20.2500  36.7500 Du        
  16621 ****         9.7500  20.2500  37.0000 Du        
  16622 ****         9.7500  20.2500  37.2500 Du        
  16623 ****         9.7500  20.2500  37.5000 Du        
  16624 ****         9.7500  20.2500  37.7500 Du        
  16625 ****         9.7500  20.5000  30.2500 Du        
  16626 ****         9.7500  20.5000  30.5000 Du        
  16627 ****         9.7500  20.5000  30.7500 Du        
  16628 ****         9.7500  20.5000  31.0000 Du        
  16629 ****         9.7500  20.5000  31.2500 Du        
  16630 ****         9.7500  20.5000  36.5000 Du        
  16631 ****         9.7500  20.5000  36.7500 Du        
  16632 ****         9.7500  20.5000  37.0000 Du        
  16633 ****         9.7500  20.5000  37.2500 Du        
  16634 ****         9.7500  20.5000  37.5000 Du        
  16635 ****         9.7500  20.7500  29.0000 Du        
  16636 ****         9.7500  20.7500  29.2500 Du        
  16637 ****         9.7500  20.7500  29.5000 Du        
  16638 ****         9.7500  20.7500  29.7500 Du        
  16639 ****         9.7500  20.7500  30.0000 Du        
  16640 ****         9.7500  20.7500  30.2500 Du        
  16641 ****         9.7500  20.7500  30.5000 Du        
  16642 ****         9.7500  20.7500  30.7500 Du        
  16643 ****         9.7500  20.7500  31.0000 Du        
  16644 ****         9.7500  20.7500  36.2500 Du        
  16645 ****         9.7500  20.7500  36.5000 Du        
  16646 ****         9.7500  20.7500  36.7500 Du        
  16647 ****         9.7500  20.7500  37.0000 Du        
  16648 ****         9.7500  20.7500  37.2500 Du        
  16649 ****         9.7500  21.0000  28.2500 Du        
  16650 ****         9.7500  21.0000  28.5000 Du        
  16651 ****         9.7500  21.0000  28.7500 Du        
  16652 ****         9.7500  21.0000  29.0000 Du        
  16653 ****         9.7500  21.0000  29.2500 Du        
  16654 ****         9.7500  21.0000  29.5000 Du        
  16655 ****         9.7500  21.0000  29.7500 Du        
  16656 ****         9.7500  21.0000  30.0000 Du        
  16657 ****         9.7500  21.0000  30.2500 Du        
  16658 ****         9.7500  21.0000  30.5000 Du        
  16659 ****         9.7500  21.0000  30.7500 Du        
  16660 ****         9.7500  21.0000  36.5000 Du        
  16661 ****         9.7500  21.0000  36.7500 Du        
  16662 ****         9.7500  21.2500  28.0000 Du        
  16663 ****         9.7500  21.2500  28.2500 Du        
  16664 ****         9.7500  21.2500  28.5000 Du        
  16665 ****         9.7500  21.2500  28.7500 Du        
  16666 ****         9.7500  21.2500  29.0000 Du        
  16667 ****         9.7500  21.2500  29.2500 Du        
  16668 ****         9.7500  21.2500  29.5000 Du        
  16669 ****         9.7500  21.2500  29.7500 Du        
  16670 ****         9.7500  21.2500  30.0000 Du        
  16671 ****         9.7500  21.2500  30.2500 Du        
  16672 ****         9.7500  21.2500  30.5000 Du        
  16673 ****         9.7500  21.5000  27.5000 Du        
  16674 ****         9.7500  21.5000  27.7500 Du        
  16675 ****         9.7500  21.5000  28.0000 Du        
  16676 ****         9.7500  21.5000  28.2500 Du        
  16677 ****         9.7500  21.5000  28.5000 Du        
  16678 ****         9.7500  21.5000  28.7500 Du        
  16679 ****         9.7500  21.5000  29.0000 Du        
  16680 ****         9.7500  21.5000  29.2500 Du        
  16681 ****         9.7500  21.5000  29.5000 Du        
  16682 ****         9.7500  21.5000  29.7500 Du        
  16683 ****         9.7500  21.5000  30.0000 Du        
  16684 ****         9.7500  21.5000  30.2500 Du        
  16685 ****         9.7500  21.5000  30.5000 Du        
  16686 ****         9.7500  21.7500  27.5000 Du        
  16687 ****         9.7500  21.7500  27.7500 Du        
  16688 ****         9.7500  21.7500  28.0000 Du        
  16689 ****         9.7500  21.7500  28.2500 Du        
  16690 ****         9.7500  21.7500  28.5000 Du        
  16691 ****         9.7500  21.7500  28.7500 Du        
  16692 ****         9.7500  21.7500  29.0000 Du        
  16693 ****         9.7500  21.7500  29.2500 Du        
  16694 ****         9.7500  21.7500  29.5000 Du        
  16695 ****         9.7500  21.7500  29.7500 Du        
  16696 ****         9.7500  21.7500  30.0000 Du        
  16697 ****         9.7500  21.7500  30.2500 Du        
  16698 ****         9.7500  22.0000  27.5000 Du        
  16699 ****         9.7500  22.0000  27.7500 Du        
  16700 ****         9.7500  22.0000  28.0000 Du        
  16701 ****         9.7500  22.0000  28.2500 Du        
  16702 ****         9.7500  22.0000  28.5000 Du        
  16703 ****         9.7500  22.0000  28.7500 Du        
  16704 ****         9.7500  22.0000  29.0000 Du        
  16705 ****         9.7500  22.0000  29.2500 Du        
  16706 ****         9.7500  22.0000  29.5000 Du        
  16707 ****         9.7500  22.0000  29.7500 Du        
  16708 ****         9.7500  22.0000  30.0000 Du        
  16709 ****         9.7500  22.0000  30.2500 Du        
  16710 ****         9.7500  22.2500  27.5000 Du        
  16711 ****         9.7500  22.2500  27.7500 Du        
  16712 ****         9.7500  22.2500  28.0000 Du        
  16713 ****         9.7500  22.2500  28.2500 Du        
  16714 ****         9.7500  22.2500  28.5000 Du        
  16715 ****         9.7500  22.2500  28.7500 Du        
  16716 ****         9.7500  22.2500  29.0000 Du        
  16717 ****         9.7500  22.2500  29.2500 Du        
  16718 ****         9.7500  22.2500  29.5000 Du        
  16719 ****         9.7500  22.2500  29.7500 Du        
  16720 ****         9.7500  22.2500  30.0000 Du        
  16721 ****         9.7500  22.2500  30.2500 Du        
  16722 ****         9.7500  22.5000  27.5000 Du        
  16723 ****         9.7500  22.5000  27.7500 Du        
  16724 ****         9.7500  22.5000  28.0000 Du        
  16725 ****         9.7500  22.5000  28.2500 Du        
  16726 ****         9.7500  22.5000  28.5000 Du        
  16727 ****         9.7500  22.5000  28.7500 Du        
  16728 ****         9.7500  22.5000  29.0000 Du        
  16729 ****         9.7500  22.5000  29.2500 Du        
  16730 ****         9.7500  22.5000  29.5000 Du        
  16731 ****         9.7500  22.5000  29.7500 Du        
  16732 ****         9.7500  22.5000  30.0000 Du        
  16733 ****         9.7500  22.7500  28.7500 Du        
  16734 ****         9.7500  22.7500  29.0000 Du        
  16735 ****         9.7500  22.7500  29.2500 Du        
  16736 ****         9.7500  22.7500  29.5000 Du        
  16737 ****         9.7500  22.7500  29.7500 Du        
  16738 ****         9.7500  22.7500  30.0000 Du        
  16739 ****         9.7500  23.0000  29.2500 Du        
  16740 ****         9.7500  23.0000  29.5000 Du        
  16741 ****         9.7500  23.0000  29.7500 Du        
  16742 ****         9.7500  24.7500  41.0000 Du        
  16743 ****        10.0000   0.0000  38.2500 Du        
  16744 ****        10.0000   0.0000  38.5000 Du        
  16745 ****        10.0000   0.0000  38.7500 Du        
  16746 ****        10.0000   0.0000  39.0000 Du        
  16747 ****        10.0000   0.0000  39.2500 Du        
  16748 ****        10.0000   0.2500  38.7500 Du        
  16749 ****        10.0000   0.2500  39.0000 Du        
  16750 ****        10.0000   0.2500  39.2500 Du        
  16751 ****        10.0000   0.5000  38.7500 Du        
  16752 ****        10.0000   0.5000  39.0000 Du        
  16753 ****        10.0000   0.5000  39.2500 Du        
  16754 ****        10.0000   0.7500  38.7500 Du        
  16755 ****        10.0000   0.7500  39.0000 Du        
  16756 ****        10.0000   0.7500  39.2500 Du        
  16757 ****        10.0000   1.0000  38.7500 Du        
  16758 ****        10.0000   1.0000  39.0000 Du        
  16759 ****        10.0000   1.0000  39.2500 Du        
  16760 ****        10.0000   1.0000  39.5000 Du        
  16761 ****        10.0000   1.2500  38.7500 Du        
  16762 ****        10.0000   1.2500  39.0000 Du        
  16763 ****        10.0000   1.2500  39.2500 Du        
  16764 ****        10.0000   1.5000  38.7500 Du        
  16765 ****        10.0000   1.5000  39.0000 Du        
  16766 ****        10.0000   1.5000  39.2500 Du        
  16767 ****        10.0000   1.5000  39.5000 Du        
  16768 ****        10.0000   1.5000  39.7500 Du        
  16769 ****        10.0000   1.5000  44.5000 Du        
  16770 ****        10.0000   1.5000  44.7500 Du        
  16771 ****        10.0000   1.5000  45.0000 Du        
  16772 ****        10.0000   1.7500  38.5000 Du        
  16773 ****        10.0000   1.7500  38.7500 Du        
  16774 ****        10.0000   1.7500  39.0000 Du        
  16775 ****        10.0000   1.7500  39.2500 Du        
  16776 ****        10.0000   1.7500  39.5000 Du        
  16777 ****        10.0000   1.7500  39.7500 Du        
  16778 ****        10.0000   1.7500  40.0000 Du        
  16779 ****        10.0000   1.7500  43.7500 Du        
  16780 ****        10.0000   1.7500  44.0000 Du        
  16781 ****        10.0000   1.7500  44.2500 Du        
  16782 ****        10.0000   1.7500  44.5000 Du        
  16783 ****        10.0000   1.7500  44.7500 Du        
  16784 ****        10.0000   1.7500  45.0000 Du        
  16785 ****        10.0000   2.0000  38.5000 Du        
  16786 ****        10.0000   2.0000  38.7500 Du        
  16787 ****        10.0000   2.0000  39.0000 Du        
  16788 ****        10.0000   2.0000  39.2500 Du        
  16789 ****        10.0000   2.0000  39.5000 Du        
  16790 ****        10.0000   2.0000  39.7500 Du        
  16791 ****        10.0000   2.0000  40.0000 Du        
  16792 ****        10.0000   2.0000  40.2500 Du        
  16793 ****        10.0000   2.0000  40.7500 Du        
  16794 ****        10.0000   2.0000  42.7500 Du        
  16795 ****        10.0000   2.0000  43.0000 Du        
  16796 ****        10.0000   2.0000  43.2500 Du        
  16797 ****        10.0000   2.0000  43.5000 Du        
  16798 ****        10.0000   2.0000  43.7500 Du        
  16799 ****        10.0000   2.0000  44.0000 Du        
  16800 ****        10.0000   2.0000  44.2500 Du        
  16801 ****        10.0000   2.0000  44.5000 Du        
  16802 ****        10.0000   2.0000  44.7500 Du        
  16803 ****        10.0000   2.2500  38.5000 Du        
  16804 ****        10.0000   2.2500  38.7500 Du        
  16805 ****        10.0000   2.2500  39.0000 Du        
  16806 ****        10.0000   2.2500  39.2500 Du        
  16807 ****        10.0000   2.2500  39.5000 Du        
  16808 ****        10.0000   2.2500  39.7500 Du        
  16809 ****        10.0000   2.2500  40.0000 Du        
  16810 ****        10.0000   2.2500  40.2500 Du        
  16811 ****        10.0000   2.2500  40.5000 Du        
  16812 ****        10.0000   2.2500  40.7500 Du        
  16813 ****        10.0000   2.2500  41.0000 Du        
  16814 ****        10.0000   2.2500  41.2500 Du        
  16815 ****        10.0000   2.2500  42.0000 Du        
  16816 ****        10.0000   2.2500  42.2500 Du        
  16817 ****        10.0000   2.2500  42.5000 Du        
  16818 ****        10.0000   2.2500  42.7500 Du        
  16819 ****        10.0000   2.2500  43.0000 Du        
  16820 ****        10.0000   2.2500  43.2500 Du        
  16821 ****        10.0000   2.2500  43.5000 Du        
  16822 ****        10.0000   2.2500  43.7500 Du        
  16823 ****        10.0000   2.2500  44.0000 Du        
  16824 ****        10.0000   2.5000  38.5000 Du        
  16825 ****        10.0000   2.5000  38.7500 Du        
  16826 ****        10.0000   2.5000  39.0000 Du        
  16827 ****        10.0000   2.5000  39.2500 Du        
  16828 ****        10.0000   2.5000  40.2500 Du        
  16829 ****        10.0000   2.5000  40.5000 Du        
  16830 ****        10.0000   2.5000  40.7500 Du        
  16831 ****        10.0000   2.5000  41.0000 Du        
  16832 ****        10.0000   2.5000  41.2500 Du        
  16833 ****        10.0000   2.5000  41.5000 Du        
  16834 ****        10.0000   2.5000  41.7500 Du        
  16835 ****        10.0000   2.5000  42.0000 Du        
  16836 ****        10.0000   2.5000  42.2500 Du        
  16837 ****        10.0000   2.5000  42.5000 Du        
  16838 ****        10.0000   2.5000  42.7500 Du        
  16839 ****        10.0000   2.5000  43.0000 Du        
  16840 ****        10.0000   2.5000  43.2500 Du        
  16841 ****        10.0000   2.5000  43.5000 Du        
  16842 ****        10.0000   2.5000  43.7500 Du        
  16843 ****        10.0000   2.7500  40.7500 Du        
  16844 ****        10.0000   2.7500  41.0000 Du        
  16845 ****        10.0000   2.7500  41.2500 Du        
  16846 ****        10.0000   2.7500  41.5000 Du        
  16847 ****        10.0000   2.7500  41.7500 Du        
  16848 ****        10.0000   2.7500  42.0000 Du        
  16849 ****        10.0000   2.7500  42.2500 Du        
  16850 ****        10.0000   2.7500  42.5000 Du        
  16851 ****        10.0000   2.7500  42.7500 Du        
  16852 ****        10.0000   2.7500  43.0000 Du        
  16853 ****        10.0000   2.7500  43.2500 Du        
  16854 ****        10.0000   3.0000  41.0000 Du        
  16855 ****        10.0000   3.0000  41.2500 Du        
  16856 ****        10.0000   3.0000  41.5000 Du        
  16857 ****        10.0000   3.0000  41.7500 Du        
  16858 ****        10.0000   3.0000  42.0000 Du        
  16859 ****        10.0000   3.0000  42.2500 Du        
  16860 ****        10.0000   3.0000  42.5000 Du        
  16861 ****        10.0000   3.0000  42.7500 Du        
  16862 ****        10.0000   3.0000  43.0000 Du        
  16863 ****        10.0000   3.2500  41.2500 Du        
  16864 ****        10.0000   3.2500  41.5000 Du        
  16865 ****        10.0000   3.2500  41.7500 Du        
  16866 ****        10.0000   3.2500  42.0000 Du        
  16867 ****        10.0000   3.2500  42.2500 Du        
  16868 ****        10.0000   3.2500  42.5000 Du        
  16869 ****        10.0000   3.2500  42.7500 Du        
  16870 ****        10.0000   3.5000  41.2500 Du        
  16871 ****        10.0000   3.5000  41.5000 Du        
  16872 ****        10.0000   3.5000  41.7500 Du        
  16873 ****        10.0000   3.5000  42.0000 Du        
  16874 ****        10.0000   3.5000  42.2500 Du        
  16875 ****        10.0000   3.5000  42.5000 Du        
  16876 ****        10.0000   3.7500  41.5000 Du        
  16877 ****        10.0000   3.7500  41.7500 Du        
  16878 ****        10.0000   3.7500  42.0000 Du        
  16879 ****        10.0000   4.0000  41.7500 Du        
  16880 ****        10.0000   4.0000  42.0000 Du        
  16881 ****        10.0000  20.0000  31.0000 Du        
  16882 ****        10.0000  20.0000  31.2500 Du        
  16883 ****        10.0000  20.0000  31.5000 Du        
  16884 ****        10.0000  20.0000  31.7500 Du        
  16885 ****        10.0000  20.0000  37.2500 Du        
  16886 ****        10.0000  20.0000  37.5000 Du        
  16887 ****        10.0000  20.2500  30.7500 Du        
  16888 ****        10.0000  20.2500  31.0000 Du        
  16889 ****        10.0000  20.2500  31.2500 Du        
  16890 ****        10.0000  20.2500  31.5000 Du        
  16891 ****        10.0000  20.2500  36.7500 Du        
  16892 ****        10.0000  20.2500  37.0000 Du        
  16893 ****        10.0000  20.2500  37.2500 Du        
  16894 ****        10.0000  20.2500  37.5000 Du        
  16895 ****        10.0000  20.5000  30.2500 Du        
  16896 ****        10.0000  20.5000  30.5000 Du        
  16897 ****        10.0000  20.5000  30.7500 Du        
  16898 ****        10.0000  20.5000  31.0000 Du        
  16899 ****        10.0000  20.5000  31.2500 Du        
  16900 ****        10.0000  20.5000  36.5000 Du        
  16901 ****        10.0000  20.5000  36.7500 Du        
  16902 ****        10.0000  20.5000  37.0000 Du        
  16903 ****        10.0000  20.7500  28.7500 Du        
  16904 ****        10.0000  20.7500  29.0000 Du        
  16905 ****        10.0000  20.7500  29.2500 Du        
  16906 ****        10.0000  20.7500  29.5000 Du        
  16907 ****        10.0000  20.7500  29.7500 Du        
  16908 ****        10.0000  20.7500  30.0000 Du        
  16909 ****        10.0000  20.7500  30.2500 Du        
  16910 ****        10.0000  20.7500  30.5000 Du        
  16911 ****        10.0000  20.7500  30.7500 Du        
  16912 ****        10.0000  20.7500  31.0000 Du        
  16913 ****        10.0000  20.7500  36.5000 Du        
  16914 ****        10.0000  20.7500  36.7500 Du        
  16915 ****        10.0000  21.0000  28.0000 Du        
  16916 ****        10.0000  21.0000  28.2500 Du        
  16917 ****        10.0000  21.0000  28.5000 Du        
  16918 ****        10.0000  21.0000  28.7500 Du        
  16919 ****        10.0000  21.0000  29.0000 Du        
  16920 ****        10.0000  21.0000  29.2500 Du        
  16921 ****        10.0000  21.0000  29.5000 Du        
  16922 ****        10.0000  21.0000  29.7500 Du        
  16923 ****        10.0000  21.0000  30.0000 Du        
  16924 ****        10.0000  21.0000  30.2500 Du        
  16925 ****        10.0000  21.0000  30.5000 Du        
  16926 ****        10.0000  21.0000  30.7500 Du        
  16927 ****        10.0000  21.2500  27.7500 Du        
  16928 ****        10.0000  21.2500  28.0000 Du        
  16929 ****        10.0000  21.2500  28.2500 Du        
  16930 ****        10.0000  21.2500  28.5000 Du        
  16931 ****        10.0000  21.2500  28.7500 Du        
  16932 ****        10.0000  21.2500  29.0000 Du        
  16933 ****        10.0000  21.2500  29.2500 Du        
  16934 ****        10.0000  21.2500  29.5000 Du        
  16935 ****        10.0000  21.2500  29.7500 Du        
  16936 ****        10.0000  21.2500  30.0000 Du        
  16937 ****        10.0000  21.2500  30.2500 Du        
  16938 ****        10.0000  21.2500  30.5000 Du        
  16939 ****        10.0000  21.5000  27.5000 Du        
  16940 ****        10.0000  21.5000  27.7500 Du        
  16941 ****        10.0000  21.5000  28.0000 Du        
  16942 ****        10.0000  21.5000  28.2500 Du        
  16943 ****        10.0000  21.5000  28.5000 Du        
  16944 ****        10.0000  21.5000  28.7500 Du        
  16945 ****        10.0000  21.5000  29.0000 Du        
  16946 ****        10.0000  21.5000  29.2500 Du        
  16947 ****        10.0000  21.5000  29.5000 Du        
  16948 ****        10.0000  21.5000  29.7500 Du        
  16949 ****        10.0000  21.5000  30.0000 Du        
  16950 ****        10.0000  21.5000  30.2500 Du        
  16951 ****        10.0000  21.5000  30.5000 Du        
  16952 ****        10.0000  21.7500  27.5000 Du        
  16953 ****        10.0000  21.7500  27.7500 Du        
  16954 ****        10.0000  21.7500  28.0000 Du        
  16955 ****        10.0000  21.7500  28.2500 Du        
  16956 ****        10.0000  21.7500  28.5000 Du        
  16957 ****        10.0000  21.7500  28.7500 Du        
  16958 ****        10.0000  21.7500  29.0000 Du        
  16959 ****        10.0000  21.7500  29.2500 Du        
  16960 ****        10.0000  21.7500  29.5000 Du        
  16961 ****        10.0000  21.7500  29.7500 Du        
  16962 ****        10.0000  21.7500  30.0000 Du        
  16963 ****        10.0000  21.7500  30.2500 Du        
  16964 ****        10.0000  22.0000  27.5000 Du        
  16965 ****        10.0000  22.0000  27.7500 Du        
  16966 ****        10.0000  22.0000  28.0000 Du        
  16967 ****        10.0000  22.0000  28.2500 Du        
  16968 ****        10.0000  22.0000  28.5000 Du        
  16969 ****        10.0000  22.0000  28.7500 Du        
  16970 ****        10.0000  22.0000  29.0000 Du        
  16971 ****        10.0000  22.0000  29.2500 Du        
  16972 ****        10.0000  22.0000  29.5000 Du        
  16973 ****        10.0000  22.0000  29.7500 Du        
  16974 ****        10.0000  22.0000  30.0000 Du        
  16975 ****        10.0000  22.0000  30.2500 Du        
  16976 ****        10.0000  22.2500  27.5000 Du        
  16977 ****        10.0000  22.2500  27.7500 Du        
  16978 ****        10.0000  22.2500  28.0000 Du        
  16979 ****        10.0000  22.2500  28.2500 Du        
  16980 ****        10.0000  22.2500  28.5000 Du        
  16981 ****        10.0000  22.2500  28.7500 Du        
  16982 ****        10.0000  22.2500  29.0000 Du        
  16983 ****        10.0000  22.2500  29.2500 Du        
  16984 ****        10.0000  22.2500  29.5000 Du        
  16985 ****        10.0000  22.2500  29.7500 Du        
  16986 ****        10.0000  22.2500  30.0000 Du        
  16987 ****        10.0000  22.2500  30.2500 Du        
  16988 ****        10.0000  22.5000  27.5000 Du        
  16989 ****        10.0000  22.5000  27.7500 Du        
  16990 ****        10.0000  22.5000  28.0000 Du        
  16991 ****        10.0000  22.5000  28.2500 Du        
  16992 ****        10.0000  22.5000  28.5000 Du        
  16993 ****        10.0000  22.5000  28.7500 Du        
  16994 ****        10.0000  22.5000  29.0000 Du        
  16995 ****        10.0000  22.5000  29.2500 Du        
  16996 ****        10.0000  22.5000  29.5000 Du        
  16997 ****        10.0000  22.5000  29.7500 Du        
  16998 ****        10.0000  22.5000  30.0000 Du        
  16999 ****        10.0000  22.7500  27.5000 Du        
  17000 ****        10.0000  22.7500  27.7500 Du        
  17001 ****        10.0000  22.7500  28.0000 Du        
  17002 ****        10.0000  22.7500  28.2500 Du        
  17003 ****        10.0000  22.7500  28.5000 Du        
  17004 ****        10.0000  22.7500  28.7500 Du        
  17005 ****        10.0000  22.7500  29.0000 Du        
  17006 ****        10.0000  22.7500  29.2500 Du        
  17007 ****        10.0000  22.7500  29.5000 Du        
  17008 ****        10.0000  22.7500  29.7500 Du        
  17009 ****        10.0000  22.7500  30.0000 Du        
  17010 ****        10.0000  23.0000  28.5000 Du        
  17011 ****        10.0000  23.0000  28.7500 Du        
  17012 ****        10.0000  23.0000  29.0000 Du        
  17013 ****        10.0000  23.0000  29.2500 Du        
  17014 ****        10.0000  23.0000  29.5000 Du        
  17015 ****        10.0000  23.0000  29.7500 Du        
  17016 ****        10.0000  23.0000  30.0000 Du        
  17017 ****        10.0000  23.2500  29.2500 Du        
  17018 ****        10.0000  23.2500  29.5000 Du        
  17019 ****        10.0000  23.2500  29.7500 Du        
  17020 ****        10.0000  23.2500  30.0000 Du        
  17021 ****        10.0000  23.5000  29.7500 Du        
  17022 ****        10.0000  24.7500  41.2500 Du        
  17023 ****        10.2500   0.0000  38.2500 Du        
  17024 ****        10.2500   0.0000  38.5000 Du        
  17025 ****        10.2500   0.0000  38.7500 Du        
  17026 ****        10.2500   0.0000  39.0000 Du        
  17027 ****        10.2500   0.0000  39.2500 Du        
  17028 ****        10.2500   0.2500  38.2500 Du        
  17029 ****        10.2500   0.2500  38.5000 Du        
  17030 ****        10.2500   0.2500  38.7500 Du        
  17031 ****        10.2500   0.2500  39.0000 Du        
  17032 ****        10.2500   0.2500  39.2500 Du        
  17033 ****        10.2500   0.5000  38.5000 Du        
  17034 ****        10.2500   0.5000  38.7500 Du        
  17035 ****        10.2500   0.5000  39.0000 Du        
  17036 ****        10.2500   0.7500  38.7500 Du        
  17037 ****        10.2500   0.7500  39.0000 Du        
  17038 ****        10.2500   0.7500  39.2500 Du        
  17039 ****        10.2500   1.0000  38.7500 Du        
  17040 ****        10.2500   1.0000  39.0000 Du        
  17041 ****        10.2500   1.0000  39.2500 Du        
  17042 ****        10.2500   1.2500  38.7500 Du        
  17043 ****        10.2500   1.2500  39.0000 Du        
  17044 ****        10.2500   1.2500  39.2500 Du        
  17045 ****        10.2500   1.5000  38.7500 Du        
  17046 ****        10.2500   1.5000  39.0000 Du        
  17047 ****        10.2500   1.5000  39.2500 Du        
  17048 ****        10.2500   1.5000  39.5000 Du        
  17049 ****        10.2500   1.5000  39.7500 Du        
  17050 ****        10.2500   1.5000  44.5000 Du        
  17051 ****        10.2500   1.5000  44.7500 Du        
  17052 ****        10.2500   1.5000  45.2500 Du        
  17053 ****        10.2500   1.7500  38.5000 Du        
  17054 ****        10.2500   1.7500  38.7500 Du        
  17055 ****        10.2500   1.7500  39.0000 Du        
  17056 ****        10.2500   1.7500  39.2500 Du        
  17057 ****        10.2500   1.7500  39.5000 Du        
  17058 ****        10.2500   1.7500  39.7500 Du        
  17059 ****        10.2500   1.7500  40.0000 Du        
  17060 ****        10.2500   1.7500  44.0000 Du        
  17061 ****        10.2500   1.7500  44.2500 Du        
  17062 ****        10.2500   1.7500  44.5000 Du        
  17063 ****        10.2500   1.7500  44.7500 Du        
  17064 ****        10.2500   1.7500  45.0000 Du        
  17065 ****        10.2500   1.7500  45.2500 Du        
  17066 ****        10.2500   2.0000  38.5000 Du        
  17067 ****        10.2500   2.0000  38.7500 Du        
  17068 ****        10.2500   2.0000  39.0000 Du        
  17069 ****        10.2500   2.0000  39.2500 Du        
  17070 ****        10.2500   2.0000  39.5000 Du        
  17071 ****        10.2500   2.0000  39.7500 Du        
  17072 ****        10.2500   2.0000  40.0000 Du        
  17073 ****        10.2500   2.0000  40.2500 Du        
  17074 ****        10.2500   2.0000  40.5000 Du        
  17075 ****        10.2500   2.0000  43.0000 Du        
  17076 ****        10.2500   2.0000  43.2500 Du        
  17077 ****        10.2500   2.0000  43.7500 Du        
  17078 ****        10.2500   2.0000  44.0000 Du        
  17079 ****        10.2500   2.0000  44.2500 Du        
  17080 ****        10.2500   2.0000  44.5000 Du        
  17081 ****        10.2500   2.0000  44.7500 Du        
  17082 ****        10.2500   2.0000  45.0000 Du        
  17083 ****        10.2500   2.2500  38.5000 Du        
  17084 ****        10.2500   2.2500  38.7500 Du        
  17085 ****        10.2500   2.2500  39.0000 Du        
  17086 ****        10.2500   2.2500  39.2500 Du        
  17087 ****        10.2500   2.2500  39.5000 Du        
  17088 ****        10.2500   2.2500  39.7500 Du        
  17089 ****        10.2500   2.2500  40.0000 Du        
  17090 ****        10.2500   2.2500  40.2500 Du        
  17091 ****        10.2500   2.2500  40.5000 Du        
  17092 ****        10.2500   2.2500  40.7500 Du        
  17093 ****        10.2500   2.2500  41.0000 Du        
  17094 ****        10.2500   2.2500  41.2500 Du        
  17095 ****        10.2500   2.2500  42.7500 Du        
  17096 ****        10.2500   2.2500  43.0000 Du        
  17097 ****        10.2500   2.2500  43.2500 Du        
  17098 ****        10.2500   2.2500  43.5000 Du        
  17099 ****        10.2500   2.2500  43.7500 Du        
  17100 ****        10.2500   2.2500  44.0000 Du        
  17101 ****        10.2500   2.2500  44.2500 Du        
  17102 ****        10.2500   2.5000  38.5000 Du        
  17103 ****        10.2500   2.5000  38.7500 Du        
  17104 ****        10.2500   2.5000  39.0000 Du        
  17105 ****        10.2500   2.5000  39.2500 Du        
  17106 ****        10.2500   2.5000  39.7500 Du        
  17107 ****        10.2500   2.5000  40.0000 Du        
  17108 ****        10.2500   2.5000  40.2500 Du        
  17109 ****        10.2500   2.5000  40.5000 Du        
  17110 ****        10.2500   2.5000  40.7500 Du        
  17111 ****        10.2500   2.5000  41.0000 Du        
  17112 ****        10.2500   2.5000  41.2500 Du        
  17113 ****        10.2500   2.5000  41.5000 Du        
  17114 ****        10.2500   2.5000  41.7500 Du        
  17115 ****        10.2500   2.5000  42.0000 Du        
  17116 ****        10.2500   2.5000  42.2500 Du        
  17117 ****        10.2500   2.5000  42.5000 Du        
  17118 ****        10.2500   2.5000  42.7500 Du        
  17119 ****        10.2500   2.5000  43.0000 Du        
  17120 ****        10.2500   2.5000  43.2500 Du        
  17121 ****        10.2500   2.5000  43.5000 Du        
  17122 ****        10.2500   2.5000  43.7500 Du        
  17123 ****        10.2500   2.5000  44.0000 Du        
  17124 ****        10.2500   2.7500  40.7500 Du        
  17125 ****        10.2500   2.7500  41.0000 Du        
  17126 ****        10.2500   2.7500  41.2500 Du        
  17127 ****        10.2500   2.7500  41.5000 Du        
  17128 ****        10.2500   2.7500  41.7500 Du        
  17129 ****        10.2500   2.7500  42.0000 Du        
  17130 ****        10.2500   2.7500  42.2500 Du        
  17131 ****        10.2500   2.7500  42.5000 Du        
  17132 ****        10.2500   2.7500  42.7500 Du        
  17133 ****        10.2500   2.7500  43.0000 Du        
  17134 ****        10.2500   2.7500  43.2500 Du        
  17135 ****        10.2500   2.7500  43.5000 Du        
  17136 ****        10.2500   3.0000  40.7500 Du        
  17137 ****        10.2500   3.0000  41.0000 Du        
  17138 ****        10.2500   3.0000  41.2500 Du        
  17139 ****        10.2500   3.0000  41.5000 Du        
  17140 ****        10.2500   3.0000  41.7500 Du        
  17141 ****        10.2500   3.0000  42.0000 Du        
  17142 ****        10.2500   3.0000  42.2500 Du        
  17143 ****        10.2500   3.0000  42.5000 Du        
  17144 ****        10.2500   3.0000  42.7500 Du        
  17145 ****        10.2500   3.0000  43.0000 Du        
  17146 ****        10.2500   3.2500  41.2500 Du        
  17147 ****        10.2500   3.2500  41.5000 Du        
  17148 ****        10.2500   3.2500  41.7500 Du        
  17149 ****        10.2500   3.2500  42.0000 Du        
  17150 ****        10.2500   3.2500  42.2500 Du        
  17151 ****        10.2500   3.2500  42.5000 Du        
  17152 ****        10.2500   3.5000  41.2500 Du        
  17153 ****        10.2500   3.5000  41.5000 Du        
  17154 ****        10.2500   3.5000  41.7500 Du        
  17155 ****        10.2500   3.5000  42.0000 Du        
  17156 ****        10.2500   3.5000  42.2500 Du        
  17157 ****        10.2500   3.7500  41.5000 Du        
  17158 ****        10.2500   3.7500  41.7500 Du        
  17159 ****        10.2500   3.7500  42.0000 Du        
  17160 ****        10.2500   4.0000  41.7500 Du        
  17161 ****        10.2500  20.0000  31.0000 Du        
  17162 ****        10.2500  20.0000  31.2500 Du        
  17163 ****        10.2500  20.0000  31.5000 Du        
  17164 ****        10.2500  20.0000  31.7500 Du        
  17165 ****        10.2500  20.2500  30.7500 Du        
  17166 ****        10.2500  20.2500  31.0000 Du        
  17167 ****        10.2500  20.2500  31.2500 Du        
  17168 ****        10.2500  20.2500  31.5000 Du        
  17169 ****        10.2500  20.5000  30.2500 Du        
  17170 ****        10.2500  20.5000  30.5000 Du        
  17171 ****        10.2500  20.5000  30.7500 Du        
  17172 ****        10.2500  20.5000  31.0000 Du        
  17173 ****        10.2500  20.5000  31.2500 Du        
  17174 ****        10.2500  20.7500  28.7500 Du        
  17175 ****        10.2500  20.7500  29.0000 Du        
  17176 ****        10.2500  20.7500  29.2500 Du        
  17177 ****        10.2500  20.7500  29.5000 Du        
  17178 ****        10.2500  20.7500  29.7500 Du        
  17179 ****        10.2500  20.7500  30.0000 Du        
  17180 ****        10.2500  20.7500  30.2500 Du        
  17181 ****        10.2500  20.7500  30.5000 Du        
  17182 ****        10.2500  20.7500  30.7500 Du        
  17183 ****        10.2500  20.7500  31.0000 Du        
  17184 ****        10.2500  21.0000  28.0000 Du        
  17185 ****        10.2500  21.0000  28.2500 Du        
  17186 ****        10.2500  21.0000  28.5000 Du        
  17187 ****        10.2500  21.0000  28.7500 Du        
  17188 ****        10.2500  21.0000  29.0000 Du        
  17189 ****        10.2500  21.0000  29.2500 Du        
  17190 ****        10.2500  21.0000  29.5000 Du        
  17191 ****        10.2500  21.0000  29.7500 Du        
  17192 ****        10.2500  21.0000  30.0000 Du        
  17193 ****        10.2500  21.0000  30.2500 Du        
  17194 ****        10.2500  21.0000  30.5000 Du        
  17195 ****        10.2500  21.0000  30.7500 Du        
  17196 ****        10.2500  21.2500  27.5000 Du        
  17197 ****        10.2500  21.2500  27.7500 Du        
  17198 ****        10.2500  21.2500  28.0000 Du        
  17199 ****        10.2500  21.2500  28.2500 Du        
  17200 ****        10.2500  21.2500  28.5000 Du        
  17201 ****        10.2500  21.2500  28.7500 Du        
  17202 ****        10.2500  21.2500  29.0000 Du        
  17203 ****        10.2500  21.2500  29.2500 Du        
  17204 ****        10.2500  21.2500  29.5000 Du        
  17205 ****        10.2500  21.2500  29.7500 Du        
  17206 ****        10.2500  21.2500  30.0000 Du        
  17207 ****        10.2500  21.2500  30.2500 Du        
  17208 ****        10.2500  21.2500  30.5000 Du        
  17209 ****        10.2500  21.5000  27.5000 Du        
  17210 ****        10.2500  21.5000  27.7500 Du        
  17211 ****        10.2500  21.5000  28.0000 Du        
  17212 ****        10.2500  21.5000  28.2500 Du        
  17213 ****        10.2500  21.5000  28.5000 Du        
  17214 ****        10.2500  21.5000  28.7500 Du        
  17215 ****        10.2500  21.5000  29.0000 Du        
  17216 ****        10.2500  21.5000  29.2500 Du        
  17217 ****        10.2500  21.5000  29.5000 Du        
  17218 ****        10.2500  21.5000  29.7500 Du        
  17219 ****        10.2500  21.5000  30.0000 Du        
  17220 ****        10.2500  21.5000  30.2500 Du        
  17221 ****        10.2500  21.5000  30.5000 Du        
  17222 ****        10.2500  21.7500  27.5000 Du        
  17223 ****        10.2500  21.7500  27.7500 Du        
  17224 ****        10.2500  21.7500  28.0000 Du        
  17225 ****        10.2500  21.7500  28.2500 Du        
  17226 ****        10.2500  21.7500  28.5000 Du        
  17227 ****        10.2500  21.7500  28.7500 Du        
  17228 ****        10.2500  21.7500  29.0000 Du        
  17229 ****        10.2500  21.7500  29.2500 Du        
  17230 ****        10.2500  21.7500  29.5000 Du        
  17231 ****        10.2500  21.7500  29.7500 Du        
  17232 ****        10.2500  21.7500  30.0000 Du        
  17233 ****        10.2500  21.7500  30.2500 Du        
  17234 ****        10.2500  22.0000  27.5000 Du        
  17235 ****        10.2500  22.0000  27.7500 Du        
  17236 ****        10.2500  22.0000  28.0000 Du        
  17237 ****        10.2500  22.0000  28.2500 Du        
  17238 ****        10.2500  22.0000  28.5000 Du        
  17239 ****        10.2500  22.0000  28.7500 Du        
  17240 ****        10.2500  22.0000  29.0000 Du        
  17241 ****        10.2500  22.0000  29.2500 Du        
  17242 ****        10.2500  22.0000  29.5000 Du        
  17243 ****        10.2500  22.0000  29.7500 Du        
  17244 ****        10.2500  22.0000  30.0000 Du        
  17245 ****        10.2500  22.0000  30.2500 Du        
  17246 ****        10.2500  22.2500  27.5000 Du        
  17247 ****        10.2500  22.2500  27.7500 Du        
  17248 ****        10.2500  22.2500  28.0000 Du        
  17249 ****        10.2500  22.2500  28.2500 Du        
  17250 ****        10.2500  22.2500  28.5000 Du        
  17251 ****        10.2500  22.2500  28.7500 Du        
  17252 ****        10.2500  22.2500  29.0000 Du        
  17253 ****        10.2500  22.2500  29.2500 Du        
  17254 ****        10.2500  22.2500  29.5000 Du        
  17255 ****        10.2500  22.2500  29.7500 Du        
  17256 ****        10.2500  22.2500  30.0000 Du        
  17257 ****        10.2500  22.2500  30.2500 Du        
  17258 ****        10.2500  22.5000  27.5000 Du        
  17259 ****        10.2500  22.5000  27.7500 Du        
  17260 ****        10.2500  22.5000  28.0000 Du        
  17261 ****        10.2500  22.5000  28.2500 Du        
  17262 ****        10.2500  22.5000  28.5000 Du        
  17263 ****        10.2500  22.5000  28.7500 Du        
  17264 ****        10.2500  22.5000  29.0000 Du        
  17265 ****        10.2500  22.5000  29.2500 Du        
  17266 ****        10.2500  22.5000  29.5000 Du        
  17267 ****        10.2500  22.5000  29.7500 Du        
  17268 ****        10.2500  22.5000  30.0000 Du        
  17269 ****        10.2500  22.7500  27.5000 Du        
  17270 ****        10.2500  22.7500  27.7500 Du        
  17271 ****        10.2500  22.7500  28.0000 Du        
  17272 ****        10.2500  22.7500  28.2500 Du        
  17273 ****        10.2500  22.7500  28.5000 Du        
  17274 ****        10.2500  22.7500  28.7500 Du        
  17275 ****        10.2500  22.7500  29.0000 Du        
  17276 ****        10.2500  22.7500  29.2500 Du        
  17277 ****        10.2500  22.7500  29.5000 Du        
  17278 ****        10.2500  22.7500  29.7500 Du        
  17279 ****        10.2500  22.7500  30.0000 Du        
  17280 ****        10.2500  23.0000  28.0000 Du        
  17281 ****        10.2500  23.0000  28.2500 Du        
  17282 ****        10.2500  23.0000  28.5000 Du        
  17283 ****        10.2500  23.0000  28.7500 Du        
  17284 ****        10.2500  23.0000  29.0000 Du        
  17285 ****        10.2500  23.0000  29.2500 Du        
  17286 ****        10.2500  23.0000  29.5000 Du        
  17287 ****        10.2500  23.0000  29.7500 Du        
  17288 ****        10.2500  23.0000  30.0000 Du        
  17289 ****        10.2500  23.2500  29.0000 Du        
  17290 ****        10.2500  23.2500  29.2500 Du        
  17291 ****        10.2500  23.2500  29.5000 Du        
  17292 ****        10.2500  23.2500  29.7500 Du        
  17293 ****        10.2500  23.2500  30.0000 Du        
  17294 ****        10.2500  23.5000  29.2500 Du        
  17295 ****        10.2500  23.5000  29.5000 Du        
  17296 ****        10.2500  23.5000  29.7500 Du        
  17297 ****        10.2500  23.5000  30.0000 Du        
  17298 ****        10.5000   0.0000  38.2500 Du        
  17299 ****        10.5000   0.0000  38.5000 Du        
  17300 ****        10.5000   0.0000  38.7500 Du        
  17301 ****        10.5000   0.0000  39.0000 Du        
  17302 ****        10.5000   0.0000  39.2500 Du        
  17303 ****        10.5000   0.2500  38.2500 Du        
  17304 ****        10.5000   0.2500  38.7500 Du        
  17305 ****        10.5000   0.2500  39.0000 Du        
  17306 ****        10.5000   0.2500  39.2500 Du        
  17307 ****        10.5000   0.5000  38.7500 Du        
  17308 ****        10.5000   0.5000  39.0000 Du        
  17309 ****        10.5000   0.7500  39.0000 Du        
  17310 ****        10.5000   1.0000  38.7500 Du        
  17311 ****        10.5000   1.0000  39.0000 Du        
  17312 ****        10.5000   1.0000  39.2500 Du        
  17313 ****        10.5000   1.2500  39.0000 Du        
  17314 ****        10.5000   1.2500  39.2500 Du        
  17315 ****        10.5000   1.5000  39.0000 Du        
  17316 ****        10.5000   1.5000  39.2500 Du        
  17317 ****        10.5000   1.5000  39.5000 Du        
  17318 ****        10.5000   1.5000  39.7500 Du        
  17319 ****        10.5000   1.7500  38.7500 Du        
  17320 ****        10.5000   1.7500  39.0000 Du        
  17321 ****        10.5000   1.7500  39.2500 Du        
  17322 ****        10.5000   1.7500  39.5000 Du        
  17323 ****        10.5000   1.7500  39.7500 Du        
  17324 ****        10.5000   1.7500  40.0000 Du        
  17325 ****        10.5000   2.0000  38.7500 Du        
  17326 ****        10.5000   2.0000  39.0000 Du        
  17327 ****        10.5000   2.0000  39.2500 Du        
  17328 ****        10.5000   2.0000  39.5000 Du        
  17329 ****        10.5000   2.0000  39.7500 Du        
  17330 ****        10.5000   2.0000  40.0000 Du        
  17331 ****        10.5000   2.0000  40.2500 Du        
  17332 ****        10.5000   2.2500  38.7500 Du        
  17333 ****        10.5000   2.2500  39.0000 Du        
  17334 ****        10.5000   2.2500  39.2500 Du        
  17335 ****        10.5000   2.2500  39.5000 Du        
  17336 ****        10.5000   2.2500  39.7500 Du        
  17337 ****        10.5000   2.2500  40.0000 Du        
  17338 ****        10.5000   2.2500  40.2500 Du        
  17339 ****        10.5000   2.2500  42.5000 Du        
  17340 ****        10.5000   2.2500  42.7500 Du        
  17341 ****        10.5000   2.2500  43.0000 Du        
  17342 ****        10.5000   2.2500  43.2500 Du        
  17343 ****        10.5000   2.2500  43.5000 Du        
  17344 ****        10.5000   2.2500  43.7500 Du        
  17345 ****        10.5000   2.5000  38.7500 Du        
  17346 ****        10.5000   2.5000  39.0000 Du        
  17347 ****        10.5000   2.5000  39.2500 Du        
  17348 ****        10.5000   2.5000  39.5000 Du        
  17349 ****        10.5000   2.5000  39.7500 Du        
  17350 ****        10.5000   2.5000  40.0000 Du        
  17351 ****        10.5000   2.5000  40.2500 Du        
  17352 ****        10.5000   2.5000  40.5000 Du        
  17353 ****        10.5000   2.5000  40.7500 Du        
  17354 ****        10.5000   2.5000  41.0000 Du        
  17355 ****        10.5000   2.5000  41.2500 Du        
  17356 ****        10.5000   2.5000  41.5000 Du        
  17357 ****        10.5000   2.5000  41.7500 Du        
  17358 ****        10.5000   2.5000  42.0000 Du        
  17359 ****        10.5000   2.5000  42.2500 Du        
  17360 ****        10.5000   2.5000  42.5000 Du        
  17361 ****        10.5000   2.5000  42.7500 Du        
  17362 ****        10.5000   2.5000  43.0000 Du        
  17363 ****        10.5000   2.5000  43.2500 Du        
  17364 ****        10.5000   2.5000  43.5000 Du        
  17365 ****        10.5000   2.5000  43.7500 Du        
  17366 ****        10.5000   2.7500  40.0000 Du        
  17367 ****        10.5000   2.7500  40.2500 Du        
  17368 ****        10.5000   2.7500  40.5000 Du        
  17369 ****        10.5000   2.7500  40.7500 Du        
  17370 ****        10.5000   2.7500  41.0000 Du        
  17371 ****        10.5000   2.7500  41.2500 Du        
  17372 ****        10.5000   2.7500  41.5000 Du        
  17373 ****        10.5000   2.7500  41.7500 Du        
  17374 ****        10.5000   2.7500  42.0000 Du        
  17375 ****        10.5000   2.7500  42.2500 Du        
  17376 ****        10.5000   2.7500  42.5000 Du        
  17377 ****        10.5000   2.7500  42.7500 Du        
  17378 ****        10.5000   2.7500  43.0000 Du        
  17379 ****        10.5000   3.0000  40.7500 Du        
  17380 ****        10.5000   3.0000  41.0000 Du        
  17381 ****        10.5000   3.0000  41.2500 Du        
  17382 ****        10.5000   3.0000  41.5000 Du        
  17383 ****        10.5000   3.0000  41.7500 Du        
  17384 ****        10.5000   3.0000  42.0000 Du        
  17385 ****        10.5000   3.0000  42.2500 Du        
  17386 ****        10.5000   3.0000  42.5000 Du        
  17387 ****        10.5000   3.2500  41.0000 Du        
  17388 ****        10.5000   3.2500  41.2500 Du        
  17389 ****        10.5000   3.2500  41.5000 Du        
  17390 ****        10.5000   3.2500  41.7500 Du        
  17391 ****        10.5000   3.2500  42.0000 Du        
  17392 ****        10.5000   3.2500  42.2500 Du        
  17393 ****        10.5000   3.5000  41.2500 Du        
  17394 ****        10.5000   3.5000  41.5000 Du        
  17395 ****        10.5000   3.5000  41.7500 Du        
  17396 ****        10.5000   3.5000  42.0000 Du        
  17397 ****        10.5000   3.7500  41.2500 Du        
  17398 ****        10.5000   3.7500  41.5000 Du        
  17399 ****        10.5000   3.7500  41.7500 Du        
  17400 ****        10.5000  20.0000  31.0000 Du        
  17401 ****        10.5000  20.0000  31.2500 Du        
  17402 ****        10.5000  20.0000  31.5000 Du        
  17403 ****        10.5000  20.2500  30.7500 Du        
  17404 ****        10.5000  20.2500  31.0000 Du        
  17405 ****        10.5000  20.2500  31.2500 Du        
  17406 ****        10.5000  20.5000  30.0000 Du        
  17407 ****        10.5000  20.5000  30.2500 Du        
  17408 ****        10.5000  20.5000  30.5000 Du        
  17409 ****        10.5000  20.5000  30.7500 Du        
  17410 ****        10.5000  20.5000  31.0000 Du        
  17411 ****        10.5000  20.5000  31.2500 Du        
  17412 ****        10.5000  20.7500  28.7500 Du        
  17413 ****        10.5000  20.7500  29.0000 Du        
  17414 ****        10.5000  20.7500  29.2500 Du        
  17415 ****        10.5000  20.7500  29.5000 Du        
  17416 ****        10.5000  20.7500  29.7500 Du        
  17417 ****        10.5000  20.7500  30.0000 Du        
  17418 ****        10.5000  20.7500  30.2500 Du        
  17419 ****        10.5000  20.7500  30.5000 Du        
  17420 ****        10.5000  20.7500  30.7500 Du        
  17421 ****        10.5000  20.7500  31.0000 Du        
  17422 ****        10.5000  21.0000  28.0000 Du        
  17423 ****        10.5000  21.0000  28.2500 Du        
  17424 ****        10.5000  21.0000  28.5000 Du        
  17425 ****        10.5000  21.0000  28.7500 Du        
  17426 ****        10.5000  21.0000  29.0000 Du        
  17427 ****        10.5000  21.0000  29.2500 Du        
  17428 ****        10.5000  21.0000  29.5000 Du        
  17429 ****        10.5000  21.0000  29.7500 Du        
  17430 ****        10.5000  21.0000  30.0000 Du        
  17431 ****        10.5000  21.0000  30.2500 Du        
  17432 ****        10.5000  21.0000  30.5000 Du        
  17433 ****        10.5000  21.0000  30.7500 Du        
  17434 ****        10.5000  21.2500  27.7500 Du        
  17435 ****        10.5000  21.2500  28.0000 Du        
  17436 ****        10.5000  21.2500  28.2500 Du        
  17437 ****        10.5000  21.2500  28.5000 Du        
  17438 ****        10.5000  21.2500  28.7500 Du        
  17439 ****        10.5000  21.2500  29.0000 Du        
  17440 ****        10.5000  21.2500  29.2500 Du        
  17441 ****        10.5000  21.2500  29.5000 Du        
  17442 ****        10.5000  21.2500  29.7500 Du        
  17443 ****        10.5000  21.2500  30.0000 Du        
  17444 ****        10.5000  21.2500  30.2500 Du        
  17445 ****        10.5000  21.2500  30.5000 Du        
  17446 ****        10.5000  21.5000  27.5000 Du        
  17447 ****        10.5000  21.5000  27.7500 Du        
  17448 ****        10.5000  21.5000  28.0000 Du        
  17449 ****        10.5000  21.5000  28.2500 Du        
  17450 ****        10.5000  21.5000  28.5000 Du        
  17451 ****        10.5000  21.5000  28.7500 Du        
  17452 ****        10.5000  21.5000  29.0000 Du        
  17453 ****        10.5000  21.5000  29.2500 Du        
  17454 ****        10.5000  21.5000  29.5000 Du        
  17455 ****        10.5000  21.5000  29.7500 Du        
  17456 ****        10.5000  21.5000  30.0000 Du        
  17457 ****        10.5000  21.5000  30.2500 Du        
  17458 ****        10.5000  21.7500  27.5000 Du        
  17459 ****        10.5000  21.7500  27.7500 Du        
  17460 ****        10.5000  21.7500  28.0000 Du        
  17461 ****        10.5000  21.7500  28.2500 Du        
  17462 ****        10.5000  21.7500  28.5000 Du        
  17463 ****        10.5000  21.7500  28.7500 Du        
  17464 ****        10.5000  21.7500  29.0000 Du        
  17465 ****        10.5000  21.7500  29.2500 Du        
  17466 ****        10.5000  21.7500  29.5000 Du        
  17467 ****        10.5000  21.7500  29.7500 Du        
  17468 ****        10.5000  21.7500  30.0000 Du        
  17469 ****        10.5000  21.7500  30.2500 Du        
  17470 ****        10.5000  22.0000  27.5000 Du        
  17471 ****        10.5000  22.0000  27.7500 Du        
  17472 ****        10.5000  22.0000  28.0000 Du        
  17473 ****        10.5000  22.0000  28.2500 Du        
  17474 ****        10.5000  22.0000  28.5000 Du        
  17475 ****        10.5000  22.0000  28.7500 Du        
  17476 ****        10.5000  22.0000  29.0000 Du        
  17477 ****        10.5000  22.0000  29.2500 Du        
  17478 ****        10.5000  22.0000  29.5000 Du        
  17479 ****        10.5000  22.0000  29.7500 Du        
  17480 ****        10.5000  22.0000  30.0000 Du        
  17481 ****        10.5000  22.0000  30.2500 Du        
  17482 ****        10.5000  22.2500  27.5000 Du        
  17483 ****        10.5000  22.2500  27.7500 Du        
  17484 ****        10.5000  22.2500  28.0000 Du        
  17485 ****        10.5000  22.2500  28.2500 Du        
  17486 ****        10.5000  22.2500  28.5000 Du        
  17487 ****        10.5000  22.2500  28.7500 Du        
  17488 ****        10.5000  22.2500  29.0000 Du        
  17489 ****        10.5000  22.2500  29.2500 Du        
  17490 ****        10.5000  22.2500  29.5000 Du        
  17491 ****        10.5000  22.2500  29.7500 Du        
  17492 ****        10.5000  22.2500  30.0000 Du        
  17493 ****        10.5000  22.2500  30.2500 Du        
  17494 ****        10.5000  22.5000  27.5000 Du        
  17495 ****        10.5000  22.5000  27.7500 Du        
  17496 ****        10.5000  22.5000  28.0000 Du        
  17497 ****        10.5000  22.5000  28.2500 Du        
  17498 ****        10.5000  22.5000  28.5000 Du        
  17499 ****        10.5000  22.5000  28.7500 Du        
  17500 ****        10.5000  22.5000  29.0000 Du        
  17501 ****        10.5000  22.5000  29.2500 Du        
  17502 ****        10.5000  22.5000  29.5000 Du        
  17503 ****        10.5000  22.5000  29.7500 Du        
  17504 ****        10.5000  22.5000  30.0000 Du        
  17505 ****        10.5000  22.7500  27.5000 Du        
  17506 ****        10.5000  22.7500  27.7500 Du        
  17507 ****        10.5000  22.7500  28.0000 Du        
  17508 ****        10.5000  22.7500  28.2500 Du        
  17509 ****        10.5000  22.7500  28.5000 Du        
  17510 ****        10.5000  22.7500  28.7500 Du        
  17511 ****        10.5000  22.7500  29.0000 Du        
  17512 ****        10.5000  22.7500  29.2500 Du        
  17513 ****        10.5000  22.7500  29.5000 Du        
  17514 ****        10.5000  22.7500  29.7500 Du        
  17515 ****        10.5000  22.7500  30.0000 Du        
  17516 ****        10.5000  23.0000  28.0000 Du        
  17517 ****        10.5000  23.0000  28.2500 Du        
  17518 ****        10.5000  23.0000  28.5000 Du        
  17519 ****        10.5000  23.0000  28.7500 Du        
  17520 ****        10.5000  23.0000  29.0000 Du        
  17521 ****        10.5000  23.0000  29.2500 Du        
  17522 ****        10.5000  23.0000  29.5000 Du        
  17523 ****        10.5000  23.0000  29.7500 Du        
  17524 ****        10.5000  23.0000  30.0000 Du        
  17525 ****        10.5000  23.2500  28.7500 Du        
  17526 ****        10.5000  23.2500  29.0000 Du        
  17527 ****        10.5000  23.2500  29.2500 Du        
  17528 ****        10.5000  23.2500  29.5000 Du        
  17529 ****        10.5000  23.2500  29.7500 Du        
  17530 ****        10.5000  23.2500  30.0000 Du        
  17531 ****        10.5000  23.5000  29.2500 Du        
  17532 ****        10.5000  23.5000  29.5000 Du        
  17533 ****        10.5000  23.5000  29.7500 Du        
  17534 ****        10.5000  23.5000  30.0000 Du        
  17535 ****        10.5000  23.7500  29.7500 Du        
  17536 ****        10.5000  24.7500  41.7500 Du        
  17537 ****        10.7500   1.7500  39.2500 Du        
  17538 ****        10.7500   1.7500  39.5000 Du        
  17539 ****        10.7500   1.7500  39.7500 Du        
  17540 ****        10.7500   1.7500  40.0000 Du        
  17541 ****        10.7500   2.0000  39.2500 Du        
  17542 ****        10.7500   2.0000  39.5000 Du        
  17543 ****        10.7500   2.0000  39.7500 Du        
  17544 ****        10.7500   2.0000  40.0000 Du        
  17545 ****        10.7500   2.0000  40.2500 Du        
  17546 ****        10.7500   2.2500  39.0000 Du        
  17547 ****        10.7500   2.2500  39.2500 Du        
  17548 ****        10.7500   2.2500  39.5000 Du        
  17549 ****        10.7500   2.2500  39.7500 Du        
  17550 ****        10.7500   2.2500  40.0000 Du        
  17551 ****        10.7500   2.2500  40.2500 Du        
  17552 ****        10.7500   2.2500  42.5000 Du        
  17553 ****        10.7500   2.2500  42.7500 Du        
  17554 ****        10.7500   2.2500  43.0000 Du        
  17555 ****        10.7500   2.2500  43.2500 Du        
  17556 ****        10.7500   2.5000  39.0000 Du        
  17557 ****        10.7500   2.5000  39.2500 Du        
  17558 ****        10.7500   2.5000  39.5000 Du        
  17559 ****        10.7500   2.5000  39.7500 Du        
  17560 ****        10.7500   2.5000  40.0000 Du        
  17561 ****        10.7500   2.5000  40.2500 Du        
  17562 ****        10.7500   2.5000  40.5000 Du        
  17563 ****        10.7500   2.5000  40.7500 Du        
  17564 ****        10.7500   2.5000  41.0000 Du        
  17565 ****        10.7500   2.5000  41.2500 Du        
  17566 ****        10.7500   2.5000  41.5000 Du        
  17567 ****        10.7500   2.5000  41.7500 Du        
  17568 ****        10.7500   2.5000  42.0000 Du        
  17569 ****        10.7500   2.5000  42.2500 Du        
  17570 ****        10.7500   2.5000  42.5000 Du        
  17571 ****        10.7500   2.5000  42.7500 Du        
  17572 ****        10.7500   2.5000  43.0000 Du        
  17573 ****        10.7500   2.5000  43.2500 Du        
  17574 ****        10.7500   2.7500  39.2500 Du        
  17575 ****        10.7500   2.7500  39.5000 Du        
  17576 ****        10.7500   2.7500  39.7500 Du        
  17577 ****        10.7500   2.7500  40.0000 Du        
  17578 ****        10.7500   2.7500  40.2500 Du        
  17579 ****        10.7500   2.7500  40.5000 Du        
  17580 ****        10.7500   2.7500  40.7500 Du        
  17581 ****        10.7500   2.7500  41.0000 Du        
  17582 ****        10.7500   2.7500  41.2500 Du        
  17583 ****        10.7500   2.7500  41.5000 Du        
  17584 ****        10.7500   2.7500  41.7500 Du        
  17585 ****        10.7500   2.7500  42.0000 Du        
  17586 ****        10.7500   2.7500  42.2500 Du        
  17587 ****        10.7500   2.7500  42.5000 Du        
  17588 ****        10.7500   2.7500  42.7500 Du        
  17589 ****        10.7500   2.7500  43.0000 Du        
  17590 ****        10.7500   3.0000  40.2500 Du        
  17591 ****        10.7500   3.0000  40.5000 Du        
  17592 ****        10.7500   3.0000  40.7500 Du        
  17593 ****        10.7500   3.0000  41.0000 Du        
  17594 ****        10.7500   3.0000  41.2500 Du        
  17595 ****        10.7500   3.0000  41.5000 Du        
  17596 ****        10.7500   3.0000  41.7500 Du        
  17597 ****        10.7500   3.0000  42.0000 Du        
  17598 ****        10.7500   3.0000  42.2500 Du        
  17599 ****        10.7500   3.0000  42.5000 Du        
  17600 ****        10.7500   3.2500  40.7500 Du        
  17601 ****        10.7500   3.2500  41.0000 Du        
  17602 ****        10.7500   3.2500  41.2500 Du        
  17603 ****        10.7500   3.2500  41.5000 Du        
  17604 ****        10.7500   3.2500  41.7500 Du        
  17605 ****        10.7500   3.2500  42.0000 Du        
  17606 ****        10.7500   3.2500  42.2500 Du        
  17607 ****        10.7500   3.5000  41.0000 Du        
  17608 ****        10.7500   3.5000  41.2500 Du        
  17609 ****        10.7500   3.5000  41.5000 Du        
  17610 ****        10.7500   3.5000  41.7500 Du        
  17611 ****        10.7500   3.5000  42.0000 Du        
  17612 ****        10.7500   3.7500  41.2500 Du        
  17613 ****        10.7500   3.7500  41.5000 Du        
  17614 ****        10.7500  20.0000  31.2500 Du        
  17615 ****        10.7500  20.2500  30.7500 Du        
  17616 ****        10.7500  20.2500  31.0000 Du        
  17617 ****        10.7500  20.2500  31.2500 Du        
  17618 ****        10.7500  20.5000  30.2500 Du        
  17619 ****        10.7500  20.5000  30.5000 Du        
  17620 ****        10.7500  20.5000  30.7500 Du        
  17621 ****        10.7500  20.5000  31.0000 Du        
  17622 ****        10.7500  20.5000  43.0000 Du        
  17623 ****        10.7500  20.5000  43.2500 Du        
  17624 ****        10.7500  20.7500  29.0000 Du        
  17625 ****        10.7500  20.7500  29.2500 Du        
  17626 ****        10.7500  20.7500  29.5000 Du        
  17627 ****        10.7500  20.7500  29.7500 Du        
  17628 ****        10.7500  20.7500  30.0000 Du        
  17629 ****        10.7500  20.7500  30.2500 Du        
  17630 ****        10.7500  20.7500  30.5000 Du        
  17631 ****        10.7500  20.7500  30.7500 Du        
  17632 ****        10.7500  20.7500  31.0000 Du        
  17633 ****        10.7500  20.7500  42.7500 Du        
  17634 ****        10.7500  20.7500  43.0000 Du        
  17635 ****        10.7500  21.0000  28.2500 Du        
  17636 ****        10.7500  21.0000  28.5000 Du        
  17637 ****        10.7500  21.0000  28.7500 Du        
  17638 ****        10.7500  21.0000  29.0000 Du        
  17639 ****        10.7500  21.0000  29.2500 Du        
  17640 ****        10.7500  21.0000  29.5000 Du        
  17641 ****        10.7500  21.0000  29.7500 Du        
  17642 ****        10.7500  21.0000  30.0000 Du        
  17643 ****        10.7500  21.0000  30.2500 Du        
  17644 ****        10.7500  21.0000  30.5000 Du        
  17645 ****        10.7500  21.0000  30.7500 Du        
  17646 ****        10.7500  21.2500  28.0000 Du        
  17647 ****        10.7500  21.2500  28.2500 Du        
  17648 ****        10.7500  21.2500  28.5000 Du        
  17649 ****        10.7500  21.2500  28.7500 Du        
  17650 ****        10.7500  21.2500  29.0000 Du        
  17651 ****        10.7500  21.2500  29.2500 Du        
  17652 ****        10.7500  21.2500  29.5000 Du        
  17653 ****        10.7500  21.2500  29.7500 Du        
  17654 ****        10.7500  21.2500  30.0000 Du        
  17655 ****        10.7500  21.2500  30.2500 Du        
  17656 ****        10.7500  21.2500  30.5000 Du        
  17657 ****        10.7500  21.5000  28.0000 Du        
  17658 ****        10.7500  21.5000  28.2500 Du        
  17659 ****        10.7500  21.5000  28.5000 Du        
  17660 ****        10.7500  21.5000  28.7500 Du        
  17661 ****        10.7500  21.5000  29.0000 Du        
  17662 ****        10.7500  21.5000  29.2500 Du        
  17663 ****        10.7500  21.5000  29.5000 Du        
  17664 ****        10.7500  21.5000  29.7500 Du        
  17665 ****        10.7500  21.5000  30.0000 Du        
  17666 ****        10.7500  21.5000  30.2500 Du        
  17667 ****        10.7500  21.7500  27.7500 Du        
  17668 ****        10.7500  21.7500  28.0000 Du        
  17669 ****        10.7500  21.7500  28.2500 Du        
  17670 ****        10.7500  21.7500  28.5000 Du        
  17671 ****        10.7500  21.7500  28.7500 Du        
  17672 ****        10.7500  21.7500  29.0000 Du        
  17673 ****        10.7500  21.7500  29.2500 Du        
  17674 ****        10.7500  21.7500  29.5000 Du        
  17675 ****        10.7500  21.7500  29.7500 Du        
  17676 ****        10.7500  21.7500  30.0000 Du        
  17677 ****        10.7500  21.7500  30.2500 Du        
  17678 ****        10.7500  22.0000  27.7500 Du        
  17679 ****        10.7500  22.0000  28.0000 Du        
  17680 ****        10.7500  22.0000  28.2500 Du        
  17681 ****        10.7500  22.0000  28.5000 Du        
  17682 ****        10.7500  22.0000  28.7500 Du        
  17683 ****        10.7500  22.0000  29.0000 Du        
  17684 ****        10.7500  22.0000  29.2500 Du        
  17685 ****        10.7500  22.0000  29.5000 Du        
  17686 ****        10.7500  22.0000  29.7500 Du        
  17687 ****        10.7500  22.0000  30.0000 Du        
  17688 ****        10.7500  22.0000  30.2500 Du        
  17689 ****        10.7500  22.2500  27.7500 Du        
  17690 ****        10.7500  22.2500  28.0000 Du        
  17691 ****        10.7500  22.2500  28.2500 Du        
  17692 ****        10.7500  22.2500  28.5000 Du        
  17693 ****        10.7500  22.2500  28.7500 Du        
  17694 ****        10.7500  22.2500  29.0000 Du        
  17695 ****        10.7500  22.2500  29.2500 Du        
  17696 ****        10.7500  22.2500  29.5000 Du        
  17697 ****        10.7500  22.2500  29.7500 Du        
  17698 ****        10.7500  22.2500  30.0000 Du        
  17699 ****        10.7500  22.2500  30.2500 Du        
  17700 ****        10.7500  22.5000  27.7500 Du        
  17701 ****        10.7500  22.5000  28.0000 Du        
  17702 ****        10.7500  22.5000  28.2500 Du        
  17703 ****        10.7500  22.5000  28.5000 Du        
  17704 ****        10.7500  22.5000  28.7500 Du        
  17705 ****        10.7500  22.5000  29.0000 Du        
  17706 ****        10.7500  22.5000  29.2500 Du        
  17707 ****        10.7500  22.5000  29.5000 Du        
  17708 ****        10.7500  22.5000  29.7500 Du        
  17709 ****        10.7500  22.5000  30.0000 Du        
  17710 ****        10.7500  22.5000  30.2500 Du        
  17711 ****        10.7500  22.7500  27.7500 Du        
  17712 ****        10.7500  22.7500  28.0000 Du        
  17713 ****        10.7500  22.7500  28.2500 Du        
  17714 ****        10.7500  22.7500  28.5000 Du        
  17715 ****        10.7500  22.7500  28.7500 Du        
  17716 ****        10.7500  22.7500  29.0000 Du        
  17717 ****        10.7500  22.7500  29.2500 Du        
  17718 ****        10.7500  22.7500  29.5000 Du        
  17719 ****        10.7500  22.7500  29.7500 Du        
  17720 ****        10.7500  22.7500  30.0000 Du        
  17721 ****        10.7500  22.7500  46.5000 Du        
  17722 ****        10.7500  22.7500  46.7500 Du        
  17723 ****        10.7500  23.0000  28.0000 Du        
  17724 ****        10.7500  23.0000  28.2500 Du        
  17725 ****        10.7500  23.0000  28.5000 Du        
  17726 ****        10.7500  23.0000  28.7500 Du        
  17727 ****        10.7500  23.0000  29.0000 Du        
  17728 ****        10.7500  23.0000  29.2500 Du        
  17729 ****        10.7500  23.0000  29.5000 Du        
  17730 ****        10.7500  23.0000  29.7500 Du        
  17731 ****        10.7500  23.0000  30.0000 Du        
  17732 ****        10.7500  23.2500  28.7500 Du        
  17733 ****        10.7500  23.2500  29.0000 Du        
  17734 ****        10.7500  23.2500  29.2500 Du        
  17735 ****        10.7500  23.2500  29.5000 Du        
  17736 ****        10.7500  23.2500  29.7500 Du        
  17737 ****        10.7500  23.2500  30.0000 Du        
  17738 ****        10.7500  23.5000  29.2500 Du        
  17739 ****        10.7500  23.5000  29.5000 Du        
  17740 ****        10.7500  23.5000  29.7500 Du        
  17741 ****        10.7500  23.5000  30.0000 Du        
  17742 ****        10.7500  23.7500  29.7500 Du        
  17743 ****        10.7500  24.7500  42.0000 Du        
  17744 ****        11.0000   2.0000  39.7500 Du        
  17745 ****        11.0000   2.0000  40.0000 Du        
  17746 ****        11.0000   2.0000  40.2500 Du        
  17747 ****        11.0000   2.2500  39.7500 Du        
  17748 ****        11.0000   2.2500  40.0000 Du        
  17749 ****        11.0000   2.2500  40.2500 Du        
  17750 ****        11.0000   2.2500  40.7500 Du        
  17751 ****        11.0000   2.2500  41.0000 Du        
  17752 ****        11.0000   2.2500  42.7500 Du        
  17753 ****        11.0000   2.2500  43.0000 Du        
  17754 ****        11.0000   2.2500  43.2500 Du        
  17755 ****        11.0000   2.5000  39.2500 Du        
  17756 ****        11.0000   2.5000  39.5000 Du        
  17757 ****        11.0000   2.5000  39.7500 Du        
  17758 ****        11.0000   2.5000  40.0000 Du        
  17759 ****        11.0000   2.5000  40.2500 Du        
  17760 ****        11.0000   2.5000  40.5000 Du        
  17761 ****        11.0000   2.5000  40.7500 Du        
  17762 ****        11.0000   2.5000  41.0000 Du        
  17763 ****        11.0000   2.5000  41.2500 Du        
  17764 ****        11.0000   2.5000  41.5000 Du        
  17765 ****        11.0000   2.5000  41.7500 Du        
  17766 ****        11.0000   2.5000  42.0000 Du        
  17767 ****        11.0000   2.5000  42.2500 Du        
  17768 ****        11.0000   2.5000  42.5000 Du        
  17769 ****        11.0000   2.5000  42.7500 Du        
  17770 ****        11.0000   2.5000  43.0000 Du        
  17771 ****        11.0000   2.5000  43.2500 Du        
  17772 ****        11.0000   2.7500  39.2500 Du        
  17773 ****        11.0000   2.7500  39.5000 Du        
  17774 ****        11.0000   2.7500  39.7500 Du        
  17775 ****        11.0000   2.7500  40.0000 Du        
  17776 ****        11.0000   2.7500  40.2500 Du        
  17777 ****        11.0000   2.7500  40.5000 Du        
  17778 ****        11.0000   2.7500  40.7500 Du        
  17779 ****        11.0000   2.7500  41.0000 Du        
  17780 ****        11.0000   2.7500  41.2500 Du        
  17781 ****        11.0000   2.7500  41.5000 Du        
  17782 ****        11.0000   2.7500  41.7500 Du        
  17783 ****        11.0000   2.7500  42.0000 Du        
  17784 ****        11.0000   2.7500  42.2500 Du        
  17785 ****        11.0000   2.7500  42.5000 Du        
  17786 ****        11.0000   2.7500  42.7500 Du        
  17787 ****        11.0000   3.0000  39.7500 Du        
  17788 ****        11.0000   3.0000  40.0000 Du        
  17789 ****        11.0000   3.0000  40.2500 Du        
  17790 ****        11.0000   3.0000  40.5000 Du        
  17791 ****        11.0000   3.0000  40.7500 Du        
  17792 ****        11.0000   3.0000  41.0000 Du        
  17793 ****        11.0000   3.0000  41.2500 Du        
  17794 ****        11.0000   3.0000  41.5000 Du        
  17795 ****        11.0000   3.0000  41.7500 Du        
  17796 ****        11.0000   3.0000  42.0000 Du        
  17797 ****        11.0000   3.0000  42.2500 Du        
  17798 ****        11.0000   3.2500  40.2500 Du        
  17799 ****        11.0000   3.2500  40.5000 Du        
  17800 ****        11.0000   3.2500  40.7500 Du        
  17801 ****        11.0000   3.2500  41.0000 Du        
  17802 ****        11.0000   3.2500  41.2500 Du        
  17803 ****        11.0000   3.2500  41.5000 Du        
  17804 ****        11.0000   3.2500  41.7500 Du        
  17805 ****        11.0000   3.2500  42.0000 Du        
  17806 ****        11.0000   3.5000  40.7500 Du        
  17807 ****        11.0000   3.5000  41.0000 Du        
  17808 ****        11.0000   3.5000  41.2500 Du        
  17809 ****        11.0000   3.5000  41.5000 Du        
  17810 ****        11.0000   3.5000  41.7500 Du        
  17811 ****        11.0000   3.7500  41.0000 Du        
  17812 ****        11.0000   3.7500  41.2500 Du        
  17813 ****        11.0000   3.7500  41.5000 Du        
  17814 ****        11.0000   4.0000  41.2500 Du        
  17815 ****        11.0000  20.5000  30.5000 Du        
  17816 ****        11.0000  20.5000  30.7500 Du        
  17817 ****        11.0000  20.5000  31.0000 Du        
  17818 ****        11.0000  20.5000  42.7500 Du        
  17819 ****        11.0000  20.5000  43.0000 Du        
  17820 ****        11.0000  20.5000  43.2500 Du        
  17821 ****        11.0000  20.5000  43.5000 Du        
  17822 ****        11.0000  20.5000  43.7500 Du        
  17823 ****        11.0000  20.5000  44.0000 Du        
  17824 ****        11.0000  20.7500  29.2500 Du        
  17825 ****        11.0000  20.7500  29.5000 Du        
  17826 ****        11.0000  20.7500  29.7500 Du        
  17827 ****        11.0000  20.7500  30.0000 Du        
  17828 ****        11.0000  20.7500  30.2500 Du        
  17829 ****        11.0000  20.7500  30.5000 Du        
  17830 ****        11.0000  20.7500  30.7500 Du        
  17831 ****        11.0000  20.7500  42.5000 Du        
  17832 ****        11.0000  20.7500  42.7500 Du        
  17833 ****        11.0000  20.7500  43.0000 Du        
  17834 ****        11.0000  20.7500  43.2500 Du        
  17835 ****        11.0000  20.7500  43.5000 Du        
  17836 ****        11.0000  20.7500  43.7500 Du        
  17837 ****        11.0000  20.7500  44.0000 Du        
  17838 ****        11.0000  20.7500  44.2500 Du        
  17839 ****        11.0000  21.0000  28.7500 Du        
  17840 ****        11.0000  21.0000  29.0000 Du        
  17841 ****        11.0000  21.0000  29.2500 Du        
  17842 ****        11.0000  21.0000  29.5000 Du        
  17843 ****        11.0000  21.0000  29.7500 Du        
  17844 ****        11.0000  21.0000  30.0000 Du        
  17845 ****        11.0000  21.0000  30.2500 Du        
  17846 ****        11.0000  21.0000  30.5000 Du        
  17847 ****        11.0000  21.0000  30.7500 Du        
  17848 ****        11.0000  21.0000  42.5000 Du        
  17849 ****        11.0000  21.0000  42.7500 Du        
  17850 ****        11.0000  21.0000  43.0000 Du        
  17851 ****        11.0000  21.0000  43.2500 Du        
  17852 ****        11.0000  21.0000  43.5000 Du        
  17853 ****        11.0000  21.0000  43.7500 Du        
  17854 ****        11.0000  21.0000  44.0000 Du        
  17855 ****        11.0000  21.0000  44.2500 Du        
  17856 ****        11.0000  21.0000  44.5000 Du        
  17857 ****        11.0000  21.2500  28.5000 Du        
  17858 ****        11.0000  21.2500  28.7500 Du        
  17859 ****        11.0000  21.2500  29.0000 Du        
  17860 ****        11.0000  21.2500  29.2500 Du        
  17861 ****        11.0000  21.2500  29.5000 Du        
  17862 ****        11.0000  21.2500  29.7500 Du        
  17863 ****        11.0000  21.2500  30.0000 Du        
  17864 ****        11.0000  21.2500  30.2500 Du        
  17865 ****        11.0000  21.2500  30.5000 Du        
  17866 ****        11.0000  21.5000  28.2500 Du        
  17867 ****        11.0000  21.5000  28.5000 Du        
  17868 ****        11.0000  21.5000  28.7500 Du        
  17869 ****        11.0000  21.5000  29.0000 Du        
  17870 ****        11.0000  21.5000  29.2500 Du        
  17871 ****        11.0000  21.5000  29.5000 Du        
  17872 ****        11.0000  21.5000  29.7500 Du        
  17873 ****        11.0000  21.5000  30.0000 Du        
  17874 ****        11.0000  21.5000  30.2500 Du        
  17875 ****        11.0000  21.7500  28.2500 Du        
  17876 ****        11.0000  21.7500  28.5000 Du        
  17877 ****        11.0000  21.7500  28.7500 Du        
  17878 ****        11.0000  21.7500  29.0000 Du        
  17879 ****        11.0000  21.7500  29.2500 Du        
  17880 ****        11.0000  21.7500  29.5000 Du        
  17881 ****        11.0000  21.7500  29.7500 Du        
  17882 ****        11.0000  21.7500  30.0000 Du        
  17883 ****        11.0000  21.7500  30.2500 Du        
  17884 ****        11.0000  22.0000  28.2500 Du        
  17885 ****        11.0000  22.0000  28.5000 Du        
  17886 ****        11.0000  22.0000  28.7500 Du        
  17887 ****        11.0000  22.0000  29.0000 Du        
  17888 ****        11.0000  22.0000  29.2500 Du        
  17889 ****        11.0000  22.0000  29.5000 Du        
  17890 ****        11.0000  22.0000  29.7500 Du        
  17891 ****        11.0000  22.0000  30.0000 Du        
  17892 ****        11.0000  22.0000  30.2500 Du        
  17893 ****        11.0000  22.2500  28.2500 Du        
  17894 ****        11.0000  22.2500  28.5000 Du        
  17895 ****        11.0000  22.2500  28.7500 Du        
  17896 ****        11.0000  22.2500  29.0000 Du        
  17897 ****        11.0000  22.2500  29.2500 Du        
  17898 ****        11.0000  22.2500  29.5000 Du        
  17899 ****        11.0000  22.2500  29.7500 Du        
  17900 ****        11.0000  22.2500  30.0000 Du        
  17901 ****        11.0000  22.2500  30.2500 Du        
  17902 ****        11.0000  22.2500  46.0000 Du        
  17903 ****        11.0000  22.5000  28.2500 Du        
  17904 ****        11.0000  22.5000  28.5000 Du        
  17905 ****        11.0000  22.5000  28.7500 Du        
  17906 ****        11.0000  22.5000  29.0000 Du        
  17907 ****        11.0000  22.5000  29.2500 Du        
  17908 ****        11.0000  22.5000  29.5000 Du        
  17909 ****        11.0000  22.5000  29.7500 Du        
  17910 ****        11.0000  22.5000  30.0000 Du        
  17911 ****        11.0000  22.5000  30.2500 Du        
  17912 ****        11.0000  22.5000  46.2500 Du        
  17913 ****        11.0000  22.7500  28.0000 Du        
  17914 ****        11.0000  22.7500  28.2500 Du        
  17915 ****        11.0000  22.7500  28.5000 Du        
  17916 ****        11.0000  22.7500  28.7500 Du        
  17917 ****        11.0000  22.7500  29.0000 Du        
  17918 ****        11.0000  22.7500  29.2500 Du        
  17919 ****        11.0000  22.7500  29.5000 Du        
  17920 ****        11.0000  22.7500  29.7500 Du        
  17921 ****        11.0000  22.7500  30.0000 Du        
  17922 ****        11.0000  22.7500  46.2500 Du        
  17923 ****        11.0000  22.7500  46.5000 Du        
  17924 ****        11.0000  22.7500  46.7500 Du        
  17925 ****        11.0000  23.0000  28.0000 Du        
  17926 ****        11.0000  23.0000  28.2500 Du        
  17927 ****        11.0000  23.0000  28.5000 Du        
  17928 ****        11.0000  23.0000  28.7500 Du        
  17929 ****        11.0000  23.0000  29.0000 Du        
  17930 ****        11.0000  23.0000  29.2500 Du        
  17931 ****        11.0000  23.0000  29.5000 Du        
  17932 ****        11.0000  23.0000  29.7500 Du        
  17933 ****        11.0000  23.0000  30.0000 Du        
  17934 ****        11.0000  23.2500  28.7500 Du        
  17935 ****        11.0000  23.2500  29.0000 Du        
  17936 ****        11.0000  23.2500  29.2500 Du        
  17937 ****        11.0000  23.2500  29.5000 Du        
  17938 ****        11.0000  23.2500  29.7500 Du        
  17939 ****        11.0000  23.2500  30.0000 Du        
  17940 ****        11.0000  23.5000  29.2500 Du        
  17941 ****        11.0000  23.5000  29.5000 Du        
  17942 ****        11.0000  23.5000  29.7500 Du        
  17943 ****        11.0000  23.5000  30.0000 Du        
  17944 ****        11.0000  24.7500  42.0000 Du        
  17945 ****        11.0000  24.7500  42.2500 Du        
  17946 ****        11.2500   2.2500  40.0000 Du        
  17947 ****        11.2500   2.2500  41.0000 Du        
  17948 ****        11.2500   2.2500  42.2500 Du        
  17949 ****        11.2500   2.5000  40.0000 Du        
  17950 ****        11.2500   2.5000  40.2500 Du        
  17951 ****        11.2500   2.5000  40.5000 Du        
  17952 ****        11.2500   2.5000  40.7500 Du        
  17953 ****        11.2500   2.5000  41.0000 Du        
  17954 ****        11.2500   2.5000  41.2500 Du        
  17955 ****        11.2500   2.5000  41.5000 Du        
  17956 ****        11.2500   2.5000  41.7500 Du        
  17957 ****        11.2500   2.5000  42.0000 Du        
  17958 ****        11.2500   2.5000  42.2500 Du        
  17959 ****        11.2500   2.7500  39.7500 Du        
  17960 ****        11.2500   2.7500  40.0000 Du        
  17961 ****        11.2500   2.7500  40.2500 Du        
  17962 ****        11.2500   2.7500  40.5000 Du        
  17963 ****        11.2500   2.7500  40.7500 Du        
  17964 ****        11.2500   2.7500  41.0000 Du        
  17965 ****        11.2500   2.7500  41.2500 Du        
  17966 ****        11.2500   2.7500  41.5000 Du        
  17967 ****        11.2500   2.7500  41.7500 Du        
  17968 ****        11.2500   2.7500  42.0000 Du        
  17969 ****        11.2500   2.7500  42.2500 Du        
  17970 ****        11.2500   3.0000  39.7500 Du        
  17971 ****        11.2500   3.0000  40.0000 Du        
  17972 ****        11.2500   3.0000  40.2500 Du        
  17973 ****        11.2500   3.0000  40.5000 Du        
  17974 ****        11.2500   3.0000  40.7500 Du        
  17975 ****        11.2500   3.0000  41.0000 Du        
  17976 ****        11.2500   3.0000  41.2500 Du        
  17977 ****        11.2500   3.0000  41.5000 Du        
  17978 ****        11.2500   3.0000  41.7500 Du        
  17979 ****        11.2500   3.0000  42.0000 Du        
  17980 ****        11.2500   3.0000  42.2500 Du        
  17981 ****        11.2500   3.2500  39.7500 Du        
  17982 ****        11.2500   3.2500  40.0000 Du        
  17983 ****        11.2500   3.2500  40.2500 Du        
  17984 ****        11.2500   3.2500  40.5000 Du        
  17985 ****        11.2500   3.2500  40.7500 Du        
  17986 ****        11.2500   3.2500  41.0000 Du        
  17987 ****        11.2500   3.2500  41.2500 Du        
  17988 ****        11.2500   3.2500  41.5000 Du        
  17989 ****        11.2500   3.2500  41.7500 Du        
  17990 ****        11.2500   3.2500  42.0000 Du        
  17991 ****        11.2500   3.5000  40.0000 Du        
  17992 ****        11.2500   3.5000  40.2500 Du        
  17993 ****        11.2500   3.5000  40.5000 Du        
  17994 ****        11.2500   3.5000  40.7500 Du        
  17995 ****        11.2500   3.5000  41.0000 Du        
  17996 ****        11.2500   3.5000  41.2500 Du        
  17997 ****        11.2500   3.5000  41.5000 Du        
  17998 ****        11.2500   3.7500  40.7500 Du        
  17999 ****        11.2500   3.7500  41.0000 Du        
  18000 ****        11.2500   3.7500  41.2500 Du        
  18001 ****        11.2500   4.0000  41.0000 Du        
  18002 ****        11.2500   4.0000  41.2500 Du        
  18003 ****        11.2500  20.5000  42.7500 Du        
  18004 ****        11.2500  20.5000  43.0000 Du        
  18005 ****        11.2500  20.5000  43.2500 Du        
  18006 ****        11.2500  20.5000  43.5000 Du        
  18007 ****        11.2500  20.5000  43.7500 Du        
  18008 ****        11.2500  20.5000  44.0000 Du        
  18009 ****        11.2500  20.5000  44.2500 Du        
  18010 ****        11.2500  20.7500  42.5000 Du        
  18011 ****        11.2500  20.7500  42.7500 Du        
  18012 ****        11.2500  20.7500  43.0000 Du        
  18013 ****        11.2500  20.7500  43.2500 Du        
  18014 ****        11.2500  20.7500  43.5000 Du        
  18015 ****        11.2500  20.7500  43.7500 Du        
  18016 ****        11.2500  20.7500  44.0000 Du        
  18017 ****        11.2500  20.7500  44.2500 Du        
  18018 ****        11.2500  20.7500  44.5000 Du        
  18019 ****        11.2500  21.0000  29.0000 Du        
  18020 ****        11.2500  21.0000  29.2500 Du        
  18021 ****        11.2500  21.0000  29.5000 Du        
  18022 ****        11.2500  21.0000  29.7500 Du        
  18023 ****        11.2500  21.0000  30.0000 Du        
  18024 ****        11.2500  21.0000  30.2500 Du        
  18025 ****        11.2500  21.0000  42.5000 Du        
  18026 ****        11.2500  21.0000  42.7500 Du        
  18027 ****        11.2500  21.0000  43.0000 Du        
  18028 ****        11.2500  21.0000  43.2500 Du        
  18029 ****        11.2500  21.0000  43.5000 Du        
  18030 ****        11.2500  21.0000  43.7500 Du        
  18031 ****        11.2500  21.0000  44.0000 Du        
  18032 ****        11.2500  21.0000  44.2500 Du        
  18033 ****        11.2500  21.0000  44.5000 Du        
  18034 ****        11.2500  21.0000  44.7500 Du        
  18035 ****        11.2500  21.2500  28.7500 Du        
  18036 ****        11.2500  21.2500  29.0000 Du        
  18037 ****        11.2500  21.2500  29.2500 Du        
  18038 ****        11.2500  21.2500  29.5000 Du        
  18039 ****        11.2500  21.2500  29.7500 Du        
  18040 ****        11.2500  21.2500  30.0000 Du        
  18041 ****        11.2500  21.2500  30.2500 Du        
  18042 ****        11.2500  21.2500  42.5000 Du        
  18043 ****        11.2500  21.2500  42.7500 Du        
  18044 ****        11.2500  21.2500  43.0000 Du        
  18045 ****        11.2500  21.2500  43.2500 Du        
  18046 ****        11.2500  21.2500  43.5000 Du        
  18047 ****        11.2500  21.2500  43.7500 Du        
  18048 ****        11.2500  21.2500  44.0000 Du        
  18049 ****        11.2500  21.2500  44.2500 Du        
  18050 ****        11.2500  21.2500  44.5000 Du        
  18051 ****        11.2500  21.2500  44.7500 Du        
  18052 ****        11.2500  21.2500  45.0000 Du        
  18053 ****        11.2500  21.5000  28.7500 Du        
  18054 ****        11.2500  21.5000  29.0000 Du        
  18055 ****        11.2500  21.5000  29.2500 Du        
  18056 ****        11.2500  21.5000  29.5000 Du        
  18057 ****        11.2500  21.5000  29.7500 Du        
  18058 ****        11.2500  21.5000  30.0000 Du        
  18059 ****        11.2500  21.5000  30.2500 Du        
  18060 ****        11.2500  21.5000  42.7500 Du        
  18061 ****        11.2500  21.5000  43.0000 Du        
  18062 ****        11.2500  21.5000  44.7500 Du        
  18063 ****        11.2500  21.7500  28.7500 Du        
  18064 ****        11.2500  21.7500  29.0000 Du        
  18065 ****        11.2500  21.7500  29.2500 Du        
  18066 ****        11.2500  21.7500  29.5000 Du        
  18067 ****        11.2500  21.7500  29.7500 Du        
  18068 ****        11.2500  21.7500  30.0000 Du        
  18069 ****        11.2500  22.0000  28.7500 Du        
  18070 ****        11.2500  22.0000  29.0000 Du        
  18071 ****        11.2500  22.0000  29.2500 Du        
  18072 ****        11.2500  22.0000  29.5000 Du        
  18073 ****        11.2500  22.0000  29.7500 Du        
  18074 ****        11.2500  22.0000  30.0000 Du        
  18075 ****        11.2500  22.2500  28.7500 Du        
  18076 ****        11.2500  22.2500  29.0000 Du        
  18077 ****        11.2500  22.2500  29.2500 Du        
  18078 ****        11.2500  22.2500  29.5000 Du        
  18079 ****        11.2500  22.2500  29.7500 Du        
  18080 ****        11.2500  22.2500  30.0000 Du        
  18081 ****        11.2500  22.2500  45.7500 Du        
  18082 ****        11.2500  22.2500  46.0000 Du        
  18083 ****        11.2500  22.5000  28.5000 Du        
  18084 ****        11.2500  22.5000  28.7500 Du        
  18085 ****        11.2500  22.5000  29.0000 Du        
  18086 ****        11.2500  22.5000  29.2500 Du        
  18087 ****        11.2500  22.5000  29.5000 Du        
  18088 ****        11.2500  22.5000  29.7500 Du        
  18089 ****        11.2500  22.5000  30.0000 Du        
  18090 ****        11.2500  22.5000  46.0000 Du        
  18091 ****        11.2500  22.5000  46.2500 Du        
  18092 ****        11.2500  22.7500  28.5000 Du        
  18093 ****        11.2500  22.7500  28.7500 Du        
  18094 ****        11.2500  22.7500  29.0000 Du        
  18095 ****        11.2500  22.7500  29.2500 Du        
  18096 ****        11.2500  22.7500  29.5000 Du        
  18097 ****        11.2500  22.7500  29.7500 Du        
  18098 ****        11.2500  22.7500  30.0000 Du        
  18099 ****        11.2500  22.7500  46.0000 Du        
  18100 ****        11.2500  22.7500  46.2500 Du        
  18101 ****        11.2500  23.0000  28.5000 Du        
  18102 ****        11.2500  23.0000  28.7500 Du        
  18103 ****        11.2500  23.0000  29.0000 Du        
  18104 ****        11.2500  23.0000  29.2500 Du        
  18105 ****        11.2500  23.0000  29.5000 Du        
  18106 ****        11.2500  23.0000  29.7500 Du        
  18107 ****        11.2500  23.0000  30.0000 Du        
  18108 ****        11.2500  23.2500  29.0000 Du        
  18109 ****        11.2500  23.2500  29.2500 Du        
  18110 ****        11.2500  23.2500  29.5000 Du        
  18111 ****        11.2500  23.2500  29.7500 Du        
  18112 ****        11.2500  23.2500  30.0000 Du        
  18113 ****        11.2500  24.7500  42.7500 Du        
  18114 ****        11.5000   2.5000  40.2500 Du        
  18115 ****        11.5000   2.5000  40.5000 Du        
  18116 ****        11.5000   2.5000  40.7500 Du        
  18117 ****        11.5000   2.5000  41.0000 Du        
  18118 ****        11.5000   2.5000  41.2500 Du        
  18119 ****        11.5000   2.5000  41.5000 Du        
  18120 ****        11.5000   2.5000  41.7500 Du        
  18121 ****        11.5000   2.5000  42.0000 Du        
  18122 ****        11.5000   2.7500  40.0000 Du        
  18123 ****        11.5000   2.7500  40.2500 Du        
  18124 ****        11.5000   2.7500  40.5000 Du        
  18125 ****        11.5000   2.7500  40.7500 Du        
  18126 ****        11.5000   2.7500  41.0000 Du        
  18127 ****        11.5000   2.7500  41.2500 Du        
  18128 ****        11.5000   2.7500  41.5000 Du        
  18129 ****        11.5000   2.7500  41.7500 Du        
  18130 ****        11.5000   2.7500  42.0000 Du        
  18131 ****        11.5000   3.0000  39.7500 Du        
  18132 ****        11.5000   3.0000  40.0000 Du        
  18133 ****        11.5000   3.0000  40.2500 Du        
  18134 ****        11.5000   3.0000  40.5000 Du        
  18135 ****        11.5000   3.0000  40.7500 Du        
  18136 ****        11.5000   3.0000  41.0000 Du        
  18137 ****        11.5000   3.0000  41.2500 Du        
  18138 ****        11.5000   3.0000  41.5000 Du        
  18139 ****        11.5000   3.0000  41.7500 Du        
  18140 ****        11.5000   3.2500  39.7500 Du        
  18141 ****        11.5000   3.2500  40.0000 Du        
  18142 ****        11.5000   3.2500  40.2500 Du        
  18143 ****        11.5000   3.2500  40.5000 Du        
  18144 ****        11.5000   3.2500  40.7500 Du        
  18145 ****        11.5000   3.2500  41.0000 Du        
  18146 ****        11.5000   3.2500  41.2500 Du        
  18147 ****        11.5000   3.2500  41.5000 Du        
  18148 ****        11.5000   3.5000  39.7500 Du        
  18149 ****        11.5000   3.5000  40.0000 Du        
  18150 ****        11.5000   3.5000  40.2500 Du        
  18151 ****        11.5000   3.5000  40.5000 Du        
  18152 ****        11.5000   3.5000  40.7500 Du        
  18153 ****        11.5000   3.5000  41.0000 Du        
  18154 ****        11.5000   3.5000  41.2500 Du        
  18155 ****        11.5000   3.5000  41.5000 Du        
  18156 ****        11.5000   3.7500  40.0000 Du        
  18157 ****        11.5000   3.7500  40.2500 Du        
  18158 ****        11.5000   3.7500  40.5000 Du        
  18159 ****        11.5000   3.7500  40.7500 Du        
  18160 ****        11.5000   3.7500  41.0000 Du        
  18161 ****        11.5000   3.7500  41.2500 Du        
  18162 ****        11.5000   4.0000  40.5000 Du        
  18163 ****        11.5000   4.0000  40.7500 Du        
  18164 ****        11.5000   4.0000  41.0000 Du        
  18165 ****        11.5000   4.2500  40.7500 Du        
  18166 ****        11.5000  20.2500  43.5000 Du        
  18167 ****        11.5000  20.2500  43.7500 Du        
  18168 ****        11.5000  20.5000  42.5000 Du        
  18169 ****        11.5000  20.5000  42.7500 Du        
  18170 ****        11.5000  20.5000  43.0000 Du        
  18171 ****        11.5000  20.5000  43.2500 Du        
  18172 ****        11.5000  20.5000  43.5000 Du        
  18173 ****        11.5000  20.5000  43.7500 Du        
  18174 ****        11.5000  20.5000  44.0000 Du        
  18175 ****        11.5000  20.5000  44.2500 Du        
  18176 ****        11.5000  20.5000  44.5000 Du        
  18177 ****        11.5000  20.7500  42.5000 Du        
  18178 ****        11.5000  20.7500  42.7500 Du        
  18179 ****        11.5000  20.7500  43.0000 Du        
  18180 ****        11.5000  20.7500  43.2500 Du        
  18181 ****        11.5000  20.7500  43.5000 Du        
  18182 ****        11.5000  20.7500  43.7500 Du        
  18183 ****        11.5000  20.7500  44.0000 Du        
  18184 ****        11.5000  20.7500  44.2500 Du        
  18185 ****        11.5000  20.7500  44.5000 Du        
  18186 ****        11.5000  20.7500  44.7500 Du        
  18187 ****        11.5000  21.0000  42.5000 Du        
  18188 ****        11.5000  21.0000  42.7500 Du        
  18189 ****        11.5000  21.0000  43.0000 Du        
  18190 ****        11.5000  21.0000  43.2500 Du        
  18191 ****        11.5000  21.0000  43.5000 Du        
  18192 ****        11.5000  21.0000  43.7500 Du        
  18193 ****        11.5000  21.0000  44.0000 Du        
  18194 ****        11.5000  21.0000  44.2500 Du        
  18195 ****        11.5000  21.0000  44.5000 Du        
  18196 ****        11.5000  21.0000  44.7500 Du        
  18197 ****        11.5000  21.2500  42.5000 Du        
  18198 ****        11.5000  21.2500  42.7500 Du        
  18199 ****        11.5000  21.2500  43.0000 Du        
  18200 ****        11.5000  21.2500  43.2500 Du        
  18201 ****        11.5000  21.2500  43.5000 Du        
  18202 ****        11.5000  21.2500  43.7500 Du        
  18203 ****        11.5000  21.2500  44.0000 Du        
  18204 ****        11.5000  21.2500  44.2500 Du        
  18205 ****        11.5000  21.2500  44.5000 Du        
  18206 ****        11.5000  21.2500  44.7500 Du        
  18207 ****        11.5000  21.5000  42.7500 Du        
  18208 ****        11.5000  21.5000  43.0000 Du        
  18209 ****        11.5000  21.5000  43.2500 Du        
  18210 ****        11.5000  21.5000  43.5000 Du        
  18211 ****        11.5000  21.5000  43.7500 Du        
  18212 ****        11.5000  21.5000  44.0000 Du        
  18213 ****        11.5000  21.5000  44.2500 Du        
  18214 ****        11.5000  21.5000  44.5000 Du        
  18215 ****        11.5000  21.5000  44.7500 Du        
  18216 ****        11.5000  21.7500  42.7500 Du        
  18217 ****        11.5000  21.7500  43.0000 Du        
  18218 ****        11.5000  21.7500  43.2500 Du        
  18219 ****        11.5000  21.7500  43.5000 Du        
  18220 ****        11.5000  21.7500  43.7500 Du        
  18221 ****        11.5000  21.7500  44.0000 Du        
  18222 ****        11.5000  21.7500  44.2500 Du        
  18223 ****        11.5000  21.7500  44.5000 Du        
  18224 ****        11.5000  21.7500  44.7500 Du        
  18225 ****        11.5000  22.0000  43.0000 Du        
  18226 ****        11.5000  22.0000  43.2500 Du        
  18227 ****        11.5000  22.0000  43.5000 Du        
  18228 ****        11.5000  22.0000  43.7500 Du        
  18229 ****        11.5000  22.5000  29.0000 Du        
  18230 ****        11.5000  22.5000  29.2500 Du        
  18231 ****        11.5000  22.7500  28.7500 Du        
  18232 ****        11.5000  22.7500  29.0000 Du        
  18233 ****        11.5000  22.7500  29.2500 Du        
  18234 ****        11.5000  22.7500  29.5000 Du        
  18235 ****        11.5000  23.0000  29.0000 Du        
  18236 ****        11.5000  23.0000  29.2500 Du        
  18237 ****        11.5000  23.0000  29.5000 Du        
  18238 ****        11.7500   2.5000  40.7500 Du        
  18239 ****        11.7500   2.5000  41.0000 Du        
  18240 ****        11.7500   2.5000  41.2500 Du        
  18241 ****        11.7500   2.5000  41.5000 Du        
  18242 ****        11.7500   2.5000  41.7500 Du        
  18243 ****        11.7500   2.5000  42.0000 Du        
  18244 ****        11.7500   2.5000  42.2500 Du        
  18245 ****        11.7500   2.7500  40.5000 Du        
  18246 ****        11.7500   2.7500  40.7500 Du        
  18247 ****        11.7500   2.7500  41.0000 Du        
  18248 ****        11.7500   2.7500  41.2500 Du        
  18249 ****        11.7500   2.7500  41.5000 Du        
  18250 ****        11.7500   2.7500  41.7500 Du        
  18251 ****        11.7500   2.7500  42.0000 Du        
  18252 ****        11.7500   3.0000  40.0000 Du        
  18253 ****        11.7500   3.0000  40.2500 Du        
  18254 ****        11.7500   3.0000  40.5000 Du        
  18255 ****        11.7500   3.0000  40.7500 Du        
  18256 ****        11.7500   3.0000  41.0000 Du        
  18257 ****        11.7500   3.0000  41.2500 Du        
  18258 ****        11.7500   3.0000  41.5000 Du        
  18259 ****        11.7500   3.0000  41.7500 Du        
  18260 ****        11.7500   3.2500  39.7500 Du        
  18261 ****        11.7500   3.2500  40.0000 Du        
  18262 ****        11.7500   3.2500  40.2500 Du        
  18263 ****        11.7500   3.2500  40.5000 Du        
  18264 ****        11.7500   3.2500  40.7500 Du        
  18265 ****        11.7500   3.2500  41.0000 Du        
  18266 ****        11.7500   3.2500  41.2500 Du        
  18267 ****        11.7500   3.2500  41.5000 Du        
  18268 ****        11.7500   3.5000  39.7500 Du        
  18269 ****        11.7500   3.5000  40.0000 Du        
  18270 ****        11.7500   3.5000  40.2500 Du        
  18271 ****        11.7500   3.5000  40.5000 Du        
  18272 ****        11.7500   3.5000  40.7500 Du        
  18273 ****        11.7500   3.5000  41.0000 Du        
  18274 ****        11.7500   3.5000  41.2500 Du        
  18275 ****        11.7500   3.7500  39.7500 Du        
  18276 ****        11.7500   3.7500  40.0000 Du        
  18277 ****        11.7500   3.7500  40.2500 Du        
  18278 ****        11.7500   3.7500  40.5000 Du        
  18279 ****        11.7500   3.7500  40.7500 Du        
  18280 ****        11.7500   3.7500  41.0000 Du        
  18281 ****        11.7500   3.7500  41.2500 Du        
  18282 ****        11.7500   4.0000  39.7500 Du        
  18283 ****        11.7500   4.0000  40.0000 Du        
  18284 ****        11.7500   4.0000  40.2500 Du        
  18285 ****        11.7500   4.0000  40.5000 Du        
  18286 ****        11.7500   4.0000  40.7500 Du        
  18287 ****        11.7500   4.0000  41.0000 Du        
  18288 ****        11.7500   4.2500  40.2500 Du        
  18289 ****        11.7500   4.2500  40.5000 Du        
  18290 ****        11.7500   4.2500  40.7500 Du        
  18291 ****        11.7500  20.2500  43.2500 Du        
  18292 ****        11.7500  20.2500  43.5000 Du        
  18293 ****        11.7500  20.2500  43.7500 Du        
  18294 ****        11.7500  20.2500  44.0000 Du        
  18295 ****        11.7500  20.5000  42.5000 Du        
  18296 ****        11.7500  20.5000  42.7500 Du        
  18297 ****        11.7500  20.5000  43.0000 Du        
  18298 ****        11.7500  20.5000  43.2500 Du        
  18299 ****        11.7500  20.5000  43.5000 Du        
  18300 ****        11.7500  20.5000  43.7500 Du        
  18301 ****        11.7500  20.5000  44.0000 Du        
  18302 ****        11.7500  20.5000  44.2500 Du        
  18303 ****        11.7500  20.5000  44.5000 Du        
  18304 ****        11.7500  20.7500  42.5000 Du        
  18305 ****        11.7500  20.7500  42.7500 Du        
  18306 ****        11.7500  20.7500  43.0000 Du        
  18307 ****        11.7500  20.7500  43.2500 Du        
  18308 ****        11.7500  20.7500  43.5000 Du        
  18309 ****        11.7500  20.7500  43.7500 Du        
  18310 ****        11.7500  20.7500  44.0000 Du        
  18311 ****        11.7500  20.7500  44.2500 Du        
  18312 ****        11.7500  20.7500  44.5000 Du        
  18313 ****        11.7500  21.0000  42.5000 Du        
  18314 ****        11.7500  21.0000  42.7500 Du        
  18315 ****        11.7500  21.0000  43.0000 Du        
  18316 ****        11.7500  21.0000  43.2500 Du        
  18317 ****        11.7500  21.0000  43.5000 Du        
  18318 ****        11.7500  21.0000  43.7500 Du        
  18319 ****        11.7500  21.0000  44.0000 Du        
  18320 ****        11.7500  21.0000  44.2500 Du        
  18321 ****        11.7500  21.0000  44.5000 Du        
  18322 ****        11.7500  21.2500  42.5000 Du        
  18323 ****        11.7500  21.2500  42.7500 Du        
  18324 ****        11.7500  21.2500  43.0000 Du        
  18325 ****        11.7500  21.2500  43.2500 Du        
  18326 ****        11.7500  21.2500  43.5000 Du        
  18327 ****        11.7500  21.2500  43.7500 Du        
  18328 ****        11.7500  21.2500  44.0000 Du        
  18329 ****        11.7500  21.2500  44.2500 Du        
  18330 ****        11.7500  21.2500  44.5000 Du        
  18331 ****        11.7500  21.5000  42.7500 Du        
  18332 ****        11.7500  21.5000  43.0000 Du        
  18333 ****        11.7500  21.5000  43.2500 Du        
  18334 ****        11.7500  21.5000  43.5000 Du        
  18335 ****        11.7500  21.5000  43.7500 Du        
  18336 ****        11.7500  21.5000  44.0000 Du        
  18337 ****        11.7500  21.5000  44.2500 Du        
  18338 ****        11.7500  21.7500  42.7500 Du        
  18339 ****        11.7500  21.7500  43.0000 Du        
  18340 ****        11.7500  21.7500  43.2500 Du        
  18341 ****        11.7500  21.7500  43.5000 Du        
  18342 ****        11.7500  21.7500  43.7500 Du        
  18343 ****        11.7500  21.7500  44.0000 Du        
  18344 ****        11.7500  21.7500  44.2500 Du        
  18345 ****        11.7500  22.0000  42.7500 Du        
  18346 ****        11.7500  22.0000  43.0000 Du        
  18347 ****        11.7500  22.0000  43.2500 Du        
  18348 ****        11.7500  22.0000  43.5000 Du        
  18349 ****        11.7500  22.0000  43.7500 Du        
  18350 ****        11.7500  22.0000  44.0000 Du        
  18351 ****        11.7500  22.2500  43.0000 Du        
  18352 ****        11.7500  22.2500  43.2500 Du        
  18353 ****        11.7500  22.2500  43.5000 Du        
  18354 ****        11.7500  22.2500  43.7500 Du        
  18355 ****        11.7500  22.2500  44.0000 Du        
  18356 ****        11.7500  22.5000  43.0000 Du        
  18357 ****        11.7500  22.5000  43.2500 Du        
  18358 ****        11.7500  22.5000  43.5000 Du        
  18359 ****        11.7500  22.5000  43.7500 Du        
  18360 ****        11.7500  22.7500  43.2500 Du        
  18361 ****        11.7500  22.7500  43.5000 Du        
  18362 ****        11.7500  22.7500  43.7500 Du        
  18363 ****        12.0000   2.0000  42.2500 Du        
  18364 ****        12.0000   2.2500  41.7500 Du        
  18365 ****        12.0000   2.2500  42.0000 Du        
  18366 ****        12.0000   2.5000  41.0000 Du        
  18367 ****        12.0000   2.5000  41.2500 Du        
  18368 ****        12.0000   2.5000  41.7500 Du        
  18369 ****        12.0000   2.5000  42.0000 Du        
  18370 ****        12.0000   2.5000  42.2500 Du        
  18371 ****        12.0000   2.7500  40.7500 Du        
  18372 ****        12.0000   2.7500  41.0000 Du        
  18373 ****        12.0000   2.7500  41.2500 Du        
  18374 ****        12.0000   2.7500  41.5000 Du        
  18375 ****        12.0000   2.7500  41.7500 Du        
  18376 ****        12.0000   2.7500  42.0000 Du        
  18377 ****        12.0000   3.0000  40.5000 Du        
  18378 ****        12.0000   3.0000  40.7500 Du        
  18379 ****        12.0000   3.0000  41.0000 Du        
  18380 ****        12.0000   3.0000  41.2500 Du        
  18381 ****        12.0000   3.0000  41.5000 Du        
  18382 ****        12.0000   3.0000  41.7500 Du        
  18383 ****        12.0000   3.2500  40.0000 Du        
  18384 ****        12.0000   3.2500  40.2500 Du        
  18385 ****        12.0000   3.2500  40.5000 Du        
  18386 ****        12.0000   3.2500  40.7500 Du        
  18387 ****        12.0000   3.2500  41.0000 Du        
  18388 ****        12.0000   3.2500  41.2500 Du        
  18389 ****        12.0000   3.5000  39.7500 Du        
  18390 ****        12.0000   3.5000  40.0000 Du        
  18391 ****        12.0000   3.5000  40.2500 Du        
  18392 ****        12.0000   3.5000  40.5000 Du        
  18393 ****        12.0000   3.5000  40.7500 Du        
  18394 ****        12.0000   3.5000  41.0000 Du        
  18395 ****        12.0000   3.5000  41.2500 Du        
  18396 ****        12.0000   3.7500  39.5000 Du        
  18397 ****        12.0000   3.7500  39.7500 Du        
  18398 ****        12.0000   3.7500  40.0000 Du        
  18399 ****        12.0000   3.7500  40.2500 Du        
  18400 ****        12.0000   3.7500  40.5000 Du        
  18401 ****        12.0000   3.7500  40.7500 Du        
  18402 ****        12.0000   3.7500  41.0000 Du        
  18403 ****        12.0000   4.0000  39.5000 Du        
  18404 ****        12.0000   4.0000  39.7500 Du        
  18405 ****        12.0000   4.0000  40.0000 Du        
  18406 ****        12.0000   4.0000  40.2500 Du        
  18407 ****        12.0000   4.0000  40.5000 Du        
  18408 ****        12.0000   4.0000  40.7500 Du        
  18409 ****        12.0000   4.2500  39.7500 Du        
  18410 ****        12.0000   4.2500  40.0000 Du        
  18411 ****        12.0000   4.2500  40.2500 Du        
  18412 ****        12.0000   4.2500  40.5000 Du        
  18413 ****        12.0000   4.2500  40.7500 Du        
  18414 ****        12.0000   4.5000  40.0000 Du        
  18415 ****        12.0000   4.5000  40.2500 Du        
  18416 ****        12.0000   4.5000  40.5000 Du        
  18417 ****        12.0000  20.2500  43.2500 Du        
  18418 ****        12.0000  20.2500  43.5000 Du        
  18419 ****        12.0000  20.2500  43.7500 Du        
  18420 ****        12.0000  20.2500  44.0000 Du        
  18421 ****        12.0000  20.5000  42.5000 Du        
  18422 ****        12.0000  20.5000  42.7500 Du        
  18423 ****        12.0000  20.5000  43.0000 Du        
  18424 ****        12.0000  20.5000  43.2500 Du        
  18425 ****        12.0000  20.5000  43.5000 Du        
  18426 ****        12.0000  20.5000  43.7500 Du        
  18427 ****        12.0000  20.5000  44.0000 Du        
  18428 ****        12.0000  20.5000  44.2500 Du        
  18429 ****        12.0000  20.7500  42.5000 Du        
  18430 ****        12.0000  20.7500  42.7500 Du        
  18431 ****        12.0000  20.7500  43.0000 Du        
  18432 ****        12.0000  20.7500  43.2500 Du        
  18433 ****        12.0000  20.7500  43.5000 Du        
  18434 ****        12.0000  20.7500  43.7500 Du        
  18435 ****        12.0000  20.7500  44.0000 Du        
  18436 ****        12.0000  20.7500  44.2500 Du        
  18437 ****        12.0000  21.0000  42.5000 Du        
  18438 ****        12.0000  21.0000  42.7500 Du        
  18439 ****        12.0000  21.0000  43.0000 Du        
  18440 ****        12.0000  21.0000  43.2500 Du        
  18441 ****        12.0000  21.0000  43.5000 Du        
  18442 ****        12.0000  21.0000  43.7500 Du        
  18443 ****        12.0000  21.0000  44.0000 Du        
  18444 ****        12.0000  21.2500  42.5000 Du        
  18445 ****        12.0000  21.2500  42.7500 Du        
  18446 ****        12.0000  21.2500  43.0000 Du        
  18447 ****        12.0000  21.2500  43.2500 Du        
  18448 ****        12.0000  21.2500  43.5000 Du        
  18449 ****        12.0000  21.2500  43.7500 Du        
  18450 ****        12.0000  21.2500  44.0000 Du        
  18451 ****        12.0000  21.5000  42.7500 Du        
  18452 ****        12.0000  21.5000  43.0000 Du        
  18453 ****        12.0000  21.5000  43.2500 Du        
  18454 ****        12.0000  21.5000  43.5000 Du        
  18455 ****        12.0000  21.5000  43.7500 Du        
  18456 ****        12.0000  21.7500  42.7500 Du        
  18457 ****        12.0000  21.7500  43.0000 Du        
  18458 ****        12.0000  21.7500  43.2500 Du        
  18459 ****        12.0000  21.7500  43.5000 Du        
  18460 ****        12.0000  21.7500  43.7500 Du        
  18461 ****        12.0000  22.0000  42.7500 Du        
  18462 ****        12.0000  22.0000  43.0000 Du        
  18463 ****        12.0000  22.0000  43.2500 Du        
  18464 ****        12.0000  22.0000  43.5000 Du        
  18465 ****        12.0000  22.0000  43.7500 Du        
  18466 ****        12.0000  22.2500  43.0000 Du        
  18467 ****        12.0000  22.2500  43.2500 Du        
  18468 ****        12.0000  22.2500  43.5000 Du        
  18469 ****        12.0000  22.2500  43.7500 Du        
  18470 ****        12.0000  22.5000  43.0000 Du        
  18471 ****        12.0000  22.5000  43.2500 Du        
  18472 ****        12.0000  22.5000  43.5000 Du        
  18473 ****        12.0000  22.5000  43.7500 Du        
  18474 ****        12.0000  22.7500  43.2500 Du        
  18475 ****        12.0000  22.7500  43.5000 Du        
  18476 ****        12.0000  22.7500  43.7500 Du        
  18477 ****        12.0000  23.0000  43.2500 Du        
  18478 ****        12.0000  23.0000  43.7500 Du        
  18479 ****        12.2500   2.0000  42.0000 Du        
  18480 ****        12.2500   2.0000  42.2500 Du        
  18481 ****        12.2500   2.2500  41.7500 Du        
  18482 ****        12.2500   2.2500  42.0000 Du        
  18483 ****        12.2500   2.5000  41.2500 Du        
  18484 ****        12.2500   2.5000  41.7500 Du        
  18485 ****        12.2500   2.5000  42.0000 Du        
  18486 ****        12.2500   2.7500  41.0000 Du        
  18487 ****        12.2500   2.7500  41.2500 Du        
  18488 ****        12.2500   2.7500  41.5000 Du        
  18489 ****        12.2500   2.7500  41.7500 Du        
  18490 ****        12.2500   3.0000  40.7500 Du        
  18491 ****        12.2500   3.0000  41.0000 Du        
  18492 ****        12.2500   3.0000  41.2500 Du        
  18493 ****        12.2500   3.2500  40.5000 Du        
  18494 ****        12.2500   3.2500  40.7500 Du        
  18495 ****        12.2500   3.2500  41.0000 Du        
  18496 ****        12.2500   3.2500  41.2500 Du        
  18497 ****        12.2500   3.5000  40.0000 Du        
  18498 ****        12.2500   3.5000  40.2500 Du        
  18499 ****        12.2500   3.5000  40.5000 Du        
  18500 ****        12.2500   3.5000  40.7500 Du        
  18501 ****        12.2500   3.5000  41.0000 Du        
  18502 ****        12.2500   3.7500  39.7500 Du        
  18503 ****        12.2500   3.7500  40.0000 Du        
  18504 ****        12.2500   3.7500  40.2500 Du        
  18505 ****        12.2500   3.7500  40.5000 Du        
  18506 ****        12.2500   3.7500  40.7500 Du        
  18507 ****        12.2500   4.0000  39.2500 Du        
  18508 ****        12.2500   4.0000  39.5000 Du        
  18509 ****        12.2500   4.0000  39.7500 Du        
  18510 ****        12.2500   4.0000  40.0000 Du        
  18511 ****        12.2500   4.0000  40.2500 Du        
  18512 ****        12.2500   4.0000  40.5000 Du        
  18513 ****        12.2500   4.0000  40.7500 Du        
  18514 ****        12.2500   4.2500  39.2500 Du        
  18515 ****        12.2500   4.2500  39.5000 Du        
  18516 ****        12.2500   4.2500  39.7500 Du        
  18517 ****        12.2500   4.2500  40.0000 Du        
  18518 ****        12.2500   4.2500  40.2500 Du        
  18519 ****        12.2500   4.2500  40.5000 Du        
  18520 ****        12.2500   4.5000  39.7500 Du        
  18521 ****        12.2500   4.5000  40.0000 Du        
  18522 ****        12.2500   4.5000  40.2500 Du        
  18523 ****        12.2500   4.7500  40.0000 Du        
  18524 ****        12.2500   4.7500  40.2500 Du        
  18525 ****        12.2500  20.2500  43.2500 Du        
  18526 ****        12.2500  20.2500  43.5000 Du        
  18527 ****        12.2500  20.2500  43.7500 Du        
  18528 ****        12.2500  20.5000  42.5000 Du        
  18529 ****        12.2500  20.5000  42.7500 Du        
  18530 ****        12.2500  20.5000  43.0000 Du        
  18531 ****        12.2500  20.5000  43.2500 Du        
  18532 ****        12.2500  20.5000  43.5000 Du        
  18533 ****        12.2500  20.5000  43.7500 Du        
  18534 ****        12.2500  20.7500  42.5000 Du        
  18535 ****        12.2500  20.7500  42.7500 Du        
  18536 ****        12.2500  20.7500  43.0000 Du        
  18537 ****        12.2500  20.7500  43.2500 Du        
  18538 ****        12.2500  20.7500  43.5000 Du        
  18539 ****        12.2500  20.7500  43.7500 Du        
  18540 ****        12.2500  21.0000  42.5000 Du        
  18541 ****        12.2500  21.0000  42.7500 Du        
  18542 ****        12.2500  21.0000  43.0000 Du        
  18543 ****        12.2500  21.0000  43.2500 Du        
  18544 ****        12.2500  21.0000  43.5000 Du        
  18545 ****        12.2500  21.0000  43.7500 Du        
  18546 ****        12.2500  21.2500  42.5000 Du        
  18547 ****        12.2500  21.2500  42.7500 Du        
  18548 ****        12.2500  21.2500  43.0000 Du        
  18549 ****        12.2500  21.2500  43.2500 Du        
  18550 ****        12.2500  21.2500  43.5000 Du        
  18551 ****        12.2500  21.2500  43.7500 Du        
  18552 ****        12.2500  21.5000  42.7500 Du        
  18553 ****        12.2500  21.5000  43.0000 Du        
  18554 ****        12.2500  21.5000  43.2500 Du        
  18555 ****        12.2500  21.5000  43.5000 Du        
  18556 ****        12.2500  21.7500  42.7500 Du        
  18557 ****        12.2500  21.7500  43.0000 Du        
  18558 ****        12.2500  21.7500  43.2500 Du        
  18559 ****        12.2500  21.7500  43.5000 Du        
  18560 ****        12.2500  22.0000  42.7500 Du        
  18561 ****        12.2500  22.0000  43.0000 Du        
  18562 ****        12.2500  22.0000  43.2500 Du        
  18563 ****        12.2500  22.0000  43.5000 Du        
  18564 ****        12.2500  22.2500  43.0000 Du        
  18565 ****        12.2500  22.2500  43.2500 Du        
  18566 ****        12.2500  22.2500  43.5000 Du        
  18567 ****        12.5000   2.0000  41.7500 Du        
  18568 ****        12.5000   2.0000  42.0000 Du        
  18569 ****        12.5000   2.0000  42.2500 Du        
  18570 ****        12.5000   2.2500  41.7500 Du        
  18571 ****        12.5000   2.2500  42.0000 Du        
  18572 ****        12.5000   2.5000  41.7500 Du        
  18573 ****        12.5000   2.5000  42.0000 Du        
  18574 ****        12.5000   2.7500  41.2500 Du        
  18575 ****        12.5000   3.5000  40.2500 Du        
  18576 ****        12.5000   3.5000  40.5000 Du        
  18577 ****        12.5000   3.7500  39.7500 Du        
  18578 ****        12.5000   3.7500  40.0000 Du        
  18579 ****        12.5000   3.7500  40.2500 Du        
  18580 ****        12.5000   3.7500  40.5000 Du        
  18581 ****        12.5000   4.0000  39.2500 Du        
  18582 ****        12.5000   4.0000  39.5000 Du        
  18583 ****        12.5000   4.0000  39.7500 Du        
  18584 ****        12.5000   4.0000  40.0000 Du        
  18585 ****        12.5000   4.0000  40.2500 Du        
  18586 ****        12.5000   4.0000  40.5000 Du        
  18587 ****        12.5000   4.2500  39.2500 Du        
  18588 ****        12.5000   4.2500  39.5000 Du        
  18589 ****        12.5000   4.2500  39.7500 Du        
  18590 ****        12.5000   4.2500  40.0000 Du        
  18591 ****        12.5000   4.2500  40.2500 Du        
  18592 ****        12.5000   4.5000  39.2500 Du        
  18593 ****        12.5000   4.5000  39.5000 Du        
  18594 ****        12.5000   4.5000  39.7500 Du        
  18595 ****        12.5000   4.5000  40.0000 Du        
  18596 ****        12.5000   4.5000  40.2500 Du        
  18597 ****        12.5000   4.7500  39.5000 Du        
  18598 ****        12.5000   4.7500  39.7500 Du        
  18599 ****        12.5000   4.7500  40.0000 Du        
  18600 ****        12.5000   4.7500  40.2500 Du        
  18601 ****        12.5000   5.0000  39.7500 Du        
  18602 ****        12.5000   5.0000  40.0000 Du        
  18603 ****        12.5000  20.5000  42.5000 Du        
  18604 ****        12.5000  20.5000  42.7500 Du        
  18605 ****        12.5000  20.5000  43.0000 Du        
  18606 ****        12.5000  20.5000  43.2500 Du        
  18607 ****        12.5000  20.5000  43.5000 Du        
  18608 ****        12.5000  20.7500  42.5000 Du        
  18609 ****        12.5000  20.7500  42.7500 Du        
  18610 ****        12.5000  20.7500  43.0000 Du        
  18611 ****        12.5000  20.7500  43.2500 Du        
  18612 ****        12.5000  20.7500  43.5000 Du        
  18613 ****        12.5000  21.0000  42.5000 Du        
  18614 ****        12.5000  21.0000  42.7500 Du        
  18615 ****        12.5000  21.0000  43.0000 Du        
  18616 ****        12.5000  21.0000  43.2500 Du        
  18617 ****        12.5000  21.0000  43.5000 Du        
  18618 ****        12.5000  21.2500  42.5000 Du        
  18619 ****        12.5000  21.2500  42.7500 Du        
  18620 ****        12.5000  21.2500  43.0000 Du        
  18621 ****        12.5000  21.2500  43.2500 Du        
  18622 ****        12.5000  21.2500  43.5000 Du        
  18623 ****        12.5000  21.5000  42.7500 Du        
  18624 ****        12.5000  21.5000  43.0000 Du        
  18625 ****        12.5000  21.5000  43.2500 Du        
  18626 ****        12.5000  21.7500  42.7500 Du        
  18627 ****        12.5000  21.7500  43.0000 Du        
  18628 ****        12.5000  21.7500  43.2500 Du        
  18629 ****        12.5000  22.0000  43.0000 Du        
  18630 ****        12.5000  22.0000  43.2500 Du        
  18631 ****        12.7500   2.0000  42.0000 Du        
  18632 ****        12.7500   2.0000  42.2500 Du        
  18633 ****        12.7500   2.2500  41.7500 Du        
  18634 ****        12.7500   2.2500  42.0000 Du        
  18635 ****        12.7500   2.2500  42.2500 Du        
  18636 ****        12.7500   3.7500  40.2500 Du        
  18637 ****        12.7500   4.0000  39.5000 Du        
  18638 ****        12.7500   4.0000  39.7500 Du        
  18639 ****        12.7500   4.0000  40.0000 Du        
  18640 ****        12.7500   4.0000  40.2500 Du        
  18641 ****        12.7500   4.2500  39.2500 Du        
  18642 ****        12.7500   4.2500  39.5000 Du        
  18643 ****        12.7500   4.2500  39.7500 Du        
  18644 ****        12.7500   4.2500  40.0000 Du        
  18645 ****        12.7500   4.2500  40.2500 Du        
  18646 ****        12.7500   4.5000  39.2500 Du        
  18647 ****        12.7500   4.5000  39.5000 Du        
  18648 ****        12.7500   4.5000  39.7500 Du        
  18649 ****        12.7500   4.5000  40.0000 Du        
  18650 ****        12.7500   4.5000  40.2500 Du        
  18651 ****        12.7500   4.7500  39.2500 Du        
  18652 ****        12.7500   4.7500  39.5000 Du        
  18653 ****        12.7500   4.7500  39.7500 Du        
  18654 ****        12.7500   4.7500  40.0000 Du        
  18655 ****        12.7500   5.0000  39.5000 Du        
  18656 ****        12.7500   5.0000  39.7500 Du        
  18657 ****        12.7500   5.0000  40.0000 Du        
  18658 ****        12.7500   5.2500  40.0000 Du        
  18659 ****        12.7500  20.5000  42.5000 Du        
  18660 ****        12.7500  20.5000  42.7500 Du        
  18661 ****        12.7500  20.5000  43.0000 Du        
  18662 ****        12.7500  20.5000  43.2500 Du        
  18663 ****        12.7500  20.7500  42.5000 Du        
  18664 ****        12.7500  20.7500  42.7500 Du        
  18665 ****        12.7500  20.7500  43.0000 Du        
  18666 ****        12.7500  20.7500  43.2500 Du        
  18667 ****        12.7500  21.0000  42.5000 Du        
  18668 ****        12.7500  21.0000  42.7500 Du        
  18669 ****        12.7500  21.0000  43.0000 Du        
  18670 ****        12.7500  21.0000  43.2500 Du        
  18671 ****        12.7500  21.2500  42.5000 Du        
  18672 ****        12.7500  21.2500  42.7500 Du        
  18673 ****        12.7500  21.2500  43.0000 Du        
  18674 ****        12.7500  21.2500  43.2500 Du        
  18675 ****        12.7500  21.5000  42.7500 Du        
  18676 ****        12.7500  21.5000  43.0000 Du        
  18677 ****        12.7500  21.7500  43.0000 Du        
  18678 ****        13.0000   2.0000  42.0000 Du        
  18679 ****        13.0000   2.0000  42.2500 Du        
  18680 ****        13.0000   2.2500  42.0000 Du        
  18681 ****        13.0000   4.0000  39.7500 Du        
  18682 ****        13.0000   4.0000  40.0000 Du        
  18683 ****        13.0000   4.2500  39.2500 Du        
  18684 ****        13.0000   4.2500  39.5000 Du        
  18685 ****        13.0000   4.2500  39.7500 Du        
  18686 ****        13.0000   4.2500  40.0000 Du        
  18687 ****        13.0000   4.5000  39.0000 Du        
  18688 ****        13.0000   4.5000  39.2500 Du        
  18689 ****        13.0000   4.5000  39.5000 Du        
  18690 ****        13.0000   4.5000  39.7500 Du        
  18691 ****        13.0000   4.5000  40.0000 Du        
  18692 ****        13.0000   4.7500  39.2500 Du        
  18693 ****        13.0000   4.7500  39.5000 Du        
  18694 ****        13.0000   4.7500  39.7500 Du        
  18695 ****        13.0000   4.7500  40.0000 Du        
  18696 ****        13.0000   5.0000  39.2500 Du        
  18697 ****        13.0000   5.0000  39.5000 Du        
  18698 ****        13.0000   5.0000  39.7500 Du        
  18699 ****        13.0000   5.0000  40.0000 Du        
  18700 ****        13.0000   5.2500  39.5000 Du        
  18701 ****        13.0000   5.2500  39.7500 Du        
  18702 ****        13.0000   5.2500  40.0000 Du        
  18703 ****        13.0000  20.5000  42.5000 Du        
  18704 ****        13.0000  20.5000  42.7500 Du        
  18705 ****        13.0000  20.5000  43.0000 Du        
  18706 ****        13.0000  20.7500  42.5000 Du        
  18707 ****        13.0000  20.7500  42.7500 Du        
  18708 ****        13.0000  20.7500  43.0000 Du        
  18709 ****        13.0000  20.7500  43.2500 Du        
  18710 ****        13.0000  21.0000  42.5000 Du        
  18711 ****        13.0000  21.0000  42.7500 Du        
  18712 ****        13.0000  21.0000  43.0000 Du        
  18713 ****        13.0000  21.0000  43.2500 Du        
  18714 ****        13.0000  21.2500  42.5000 Du        
  18715 ****        13.0000  21.2500  42.7500 Du        
  18716 ****        13.0000  21.2500  43.0000 Du        
  18717 ****        13.0000  21.5000  42.7500 Du        
  18718 ****        13.0000  21.5000  43.0000 Du        
  18719 ****        13.2500   1.7500  42.2500 Du        
  18720 ****        13.2500   2.0000  42.0000 Du        
  18721 ****        13.2500   2.0000  42.2500 Du        
  18722 ****        13.2500   4.2500  39.2500 Du        
  18723 ****        13.2500   4.2500  39.5000 Du        
  18724 ****        13.2500   4.2500  39.7500 Du        
  18725 ****        13.2500   4.2500  40.0000 Du        
  18726 ****        13.2500   4.5000  39.0000 Du        
  18727 ****        13.2500   4.5000  39.2500 Du        
  18728 ****        13.2500   4.5000  39.5000 Du        
  18729 ****        13.2500   4.5000  39.7500 Du        
  18730 ****        13.2500   4.5000  40.0000 Du        
  18731 ****        13.2500   4.7500  39.0000 Du        
  18732 ****        13.2500   4.7500  39.2500 Du        
  18733 ****        13.2500   4.7500  39.5000 Du        
  18734 ****        13.2500   4.7500  39.7500 Du        
  18735 ****        13.2500   5.0000  39.0000 Du        
  18736 ****        13.2500   5.0000  39.2500 Du        
  18737 ****        13.2500   5.0000  39.5000 Du        
  18738 ****        13.2500   5.0000  39.7500 Du        
  18739 ****        13.2500   5.2500  39.2500 Du        
  18740 ****        13.2500   5.2500  39.5000 Du        
  18741 ****        13.2500   5.2500  39.7500 Du        
  18742 ****        13.2500   5.5000  39.7500 Du        
  18743 ****        13.2500   5.7500  39.7500 Du        
  18744 ****        13.2500  20.5000  42.5000 Du        
  18745 ****        13.2500  20.5000  42.7500 Du        
  18746 ****        13.2500  20.5000  43.0000 Du        
  18747 ****        13.2500  20.7500  42.5000 Du        
  18748 ****        13.2500  20.7500  42.7500 Du        
  18749 ****        13.2500  20.7500  43.0000 Du        
  18750 ****        13.2500  21.0000  42.5000 Du        
  18751 ****        13.2500  21.0000  42.7500 Du        
  18752 ****        13.2500  21.0000  43.0000 Du        
  18753 ****        13.2500  21.2500  42.7500 Du        
  18754 ****        13.2500  21.2500  43.0000 Du        
  18755 ****        13.5000   1.7500  42.2500 Du        
  18756 ****        13.5000   1.7500  42.5000 Du        
  18757 ****        13.5000   4.5000  39.0000 Du        
  18758 ****        13.5000   4.5000  39.2500 Du        
  18759 ****        13.5000   4.5000  39.5000 Du        
  18760 ****        13.5000   4.5000  39.7500 Du        
  18761 ****        13.5000   4.7500  39.0000 Du        
  18762 ****        13.5000   4.7500  39.2500 Du        
  18763 ****        13.5000   4.7500  39.5000 Du        
  18764 ****        13.5000   4.7500  39.7500 Du        
  18765 ****        13.5000   5.0000  39.0000 Du        
  18766 ****        13.5000   5.0000  39.2500 Du        
  18767 ****        13.5000   5.0000  39.5000 Du        
  18768 ****        13.5000   5.0000  39.7500 Du        
  18769 ****        13.5000   5.2500  39.0000 Du        
  18770 ****        13.5000   5.2500  39.2500 Du        
  18771 ****        13.5000   5.2500  39.5000 Du        
  18772 ****        13.5000   5.2500  39.7500 Du        
  18773 ****        13.5000   5.5000  39.2500 Du        
  18774 ****        13.5000   5.5000  39.5000 Du        
  18775 ****        13.5000   5.5000  39.7500 Du        
  18776 ****        13.5000   5.7500  39.2500 Du        
  18777 ****        13.5000   5.7500  39.5000 Du        
  18778 ****        13.5000   5.7500  39.7500 Du        
  18779 ****        13.5000   6.0000  39.5000 Du        
  18780 ****        13.5000   6.0000  39.7500 Du        
  18781 ****        13.5000   6.2500  39.7500 Du        
  18782 ****        13.5000   6.5000  39.7500 Du        
  18783 ****        13.5000   6.5000  40.0000 Du        
  18784 ****        13.5000   6.7500  39.7500 Du        
  18785 ****        13.5000   6.7500  40.0000 Du        
  18786 ****        13.5000   7.0000  39.7500 Du        
  18787 ****        13.5000   7.0000  40.0000 Du        
  18788 ****        13.5000  20.5000  42.5000 Du        
  18789 ****        13.5000  20.5000  42.7500 Du        
  18790 ****        13.5000  20.7500  42.5000 Du        
  18791 ****        13.5000  20.7500  42.7500 Du        
  18792 ****        13.5000  20.7500  43.0000 Du        
  18793 ****        13.5000  21.0000  42.5000 Du        
  18794 ****        13.5000  21.0000  42.7500 Du        
  18795 ****        13.5000  21.2500  42.7500 Du        
  18796 ****        13.7500   1.5000  42.2500 Du        
  18797 ****        13.7500   1.7500  42.2500 Du        
  18798 ****        13.7500   2.0000  42.2500 Du        
  18799 ****        13.7500   4.5000  39.0000 Du        
  18800 ****        13.7500   4.5000  39.2500 Du        
  18801 ****        13.7500   4.5000  39.5000 Du        
  18802 ****        13.7500   4.7500  38.7500 Du        
  18803 ****        13.7500   4.7500  39.0000 Du        
  18804 ****        13.7500   4.7500  39.2500 Du        
  18805 ****        13.7500   4.7500  39.5000 Du        
  18806 ****        13.7500   5.0000  38.7500 Du        
  18807 ****        13.7500   5.0000  39.0000 Du        
  18808 ****        13.7500   5.0000  39.2500 Du        
  18809 ****        13.7500   5.0000  39.5000 Du        
  18810 ****        13.7500   5.2500  38.7500 Du        
  18811 ****        13.7500   5.2500  39.0000 Du        
  18812 ****        13.7500   5.2500  39.2500 Du        
  18813 ****        13.7500   5.2500  39.5000 Du        
  18814 ****        13.7500   5.5000  39.0000 Du        
  18815 ****        13.7500   5.5000  39.2500 Du        
  18816 ****        13.7500   5.5000  39.5000 Du        
  18817 ****        13.7500   5.7500  39.0000 Du        
  18818 ****        13.7500   5.7500  39.2500 Du        
  18819 ****        13.7500   5.7500  39.5000 Du        
  18820 ****        13.7500   5.7500  39.7500 Du        
  18821 ****        13.7500   6.0000  39.0000 Du        
  18822 ****        13.7500   6.0000  39.2500 Du        
  18823 ****        13.7500   6.0000  39.5000 Du        
  18824 ****        13.7500   6.0000  39.7500 Du        
  18825 ****        13.7500   6.2500  39.2500 Du        
  18826 ****        13.7500   6.2500  39.5000 Du        
  18827 ****        13.7500   6.2500  39.7500 Du        
  18828 ****        13.7500   6.5000  39.2500 Du        
  18829 ****        13.7500   6.5000  39.5000 Du        
  18830 ****        13.7500   6.5000  39.7500 Du        
  18831 ****        13.7500   6.5000  40.0000 Du        
  18832 ****        13.7500   6.7500  39.5000 Du        
  18833 ****        13.7500   6.7500  39.7500 Du        
  18834 ****        13.7500   6.7500  40.0000 Du        
  18835 ****        13.7500   7.0000  39.5000 Du        
  18836 ****        13.7500   7.0000  39.7500 Du        
  18837 ****        13.7500   7.0000  40.0000 Du        
  18838 ****        13.7500   7.2500  39.7500 Du        
  18839 ****        13.7500   7.2500  40.0000 Du        
  18840 ****        13.7500  20.7500  42.5000 Du        
  18841 ****        13.7500  20.7500  42.7500 Du        
  18842 ****        13.7500  21.0000  42.7500 Du        
  18843 ****        14.0000   1.7500  42.2500 Du        
  18844 ****        14.0000   4.5000  39.0000 Du        
  18845 ****        14.0000   4.5000  39.2500 Du        
  18846 ****        14.0000   4.7500  38.7500 Du        
  18847 ****        14.0000   4.7500  39.0000 Du        
  18848 ****        14.0000   4.7500  39.2500 Du        
  18849 ****        14.0000   5.0000  38.7500 Du        
  18850 ****        14.0000   5.0000  39.0000 Du        
  18851 ****        14.0000   5.0000  39.2500 Du        
  18852 ****        14.0000   5.2500  38.7500 Du        
  18853 ****        14.0000   5.2500  39.0000 Du        
  18854 ****        14.0000   5.2500  39.2500 Du        
  18855 ****        14.0000   5.2500  39.5000 Du        
  18856 ****        14.0000   5.5000  38.7500 Du        
  18857 ****        14.0000   5.5000  39.0000 Du        
  18858 ****        14.0000   5.5000  39.2500 Du        
  18859 ****        14.0000   5.5000  39.5000 Du        
  18860 ****        14.0000   5.7500  38.7500 Du        
  18861 ****        14.0000   5.7500  39.0000 Du        
  18862 ****        14.0000   5.7500  39.2500 Du        
  18863 ****        14.0000   5.7500  39.5000 Du        
  18864 ****        14.0000   6.0000  38.7500 Du        
  18865 ****        14.0000   6.0000  39.0000 Du        
  18866 ****        14.0000   6.0000  39.2500 Du        
  18867 ****        14.0000   6.0000  39.5000 Du        
  18868 ****        14.0000   6.2500  39.0000 Du        
  18869 ****        14.0000   6.2500  39.2500 Du        
  18870 ****        14.0000   6.2500  39.5000 Du        
  18871 ****        14.0000   6.2500  39.7500 Du        
  18872 ****        14.0000   6.5000  39.0000 Du        
  18873 ****        14.0000   6.5000  39.2500 Du        
  18874 ****        14.0000   6.5000  39.5000 Du        
  18875 ****        14.0000   6.5000  39.7500 Du        
  18876 ****        14.0000   6.7500  39.0000 Du        
  18877 ****        14.0000   6.7500  39.2500 Du        
  18878 ****        14.0000   6.7500  39.5000 Du        
  18879 ****        14.0000   6.7500  39.7500 Du        
  18880 ****        14.0000   6.7500  40.0000 Du        
  18881 ****        14.0000   7.0000  39.2500 Du        
  18882 ****        14.0000   7.0000  39.5000 Du        
  18883 ****        14.0000   7.0000  39.7500 Du        
  18884 ****        14.0000   7.0000  40.0000 Du        
  18885 ****        14.0000   7.2500  39.2500 Du        
  18886 ****        14.0000   7.2500  39.5000 Du        
  18887 ****        14.0000   7.2500  39.7500 Du        
  18888 ****        14.0000   7.2500  40.0000 Du        
  18889 ****        14.2500   4.5000  39.0000 Du        
  18890 ****        14.2500   4.5000  39.2500 Du        
  18891 ****        14.2500   4.7500  38.7500 Du        
  18892 ****        14.2500   4.7500  39.0000 Du        
  18893 ****        14.2500   4.7500  39.2500 Du        
  18894 ****        14.2500   5.0000  38.7500 Du        
  18895 ****        14.2500   5.0000  39.0000 Du        
  18896 ****        14.2500   5.0000  39.2500 Du        
  18897 ****        14.2500   5.2500  38.5000 Du        
  18898 ****        14.2500   5.2500  38.7500 Du        
  18899 ****        14.2500   5.2500  39.0000 Du        
  18900 ****        14.2500   5.2500  39.2500 Du        
  18901 ****        14.2500   5.5000  38.5000 Du        
  18902 ****        14.2500   5.5000  38.7500 Du        
  18903 ****        14.2500   5.5000  39.0000 Du        
  18904 ****        14.2500   5.5000  39.2500 Du        
  18905 ****        14.2500   5.7500  38.7500 Du        
  18906 ****        14.2500   5.7500  39.0000 Du        
  18907 ****        14.2500   5.7500  39.2500 Du        
  18908 ****        14.2500   6.0000  38.7500 Du        
  18909 ****        14.2500   6.0000  39.0000 Du        
  18910 ****        14.2500   6.0000  39.2500 Du        
  18911 ****        14.2500   6.0000  39.5000 Du        
  18912 ****        14.2500   6.2500  38.7500 Du        
  18913 ****        14.2500   6.2500  39.0000 Du        
  18914 ****        14.2500   6.2500  39.2500 Du        
  18915 ****        14.2500   6.2500  39.5000 Du        
  18916 ****        14.2500   6.5000  38.7500 Du        
  18917 ****        14.2500   6.5000  39.0000 Du        
  18918 ****        14.2500   6.5000  39.2500 Du        
  18919 ****        14.2500   6.5000  39.5000 Du        
  18920 ****        14.2500   6.5000  39.7500 Du        
  18921 ****        14.2500   6.7500  38.7500 Du        
  18922 ****        14.2500   6.7500  39.0000 Du        
  18923 ****        14.2500   6.7500  39.2500 Du        
  18924 ****        14.2500   6.7500  39.5000 Du        
  18925 ****        14.2500   6.7500  39.7500 Du        
  18926 ****        14.2500   7.0000  39.0000 Du        
  18927 ****        14.2500   7.0000  39.2500 Du        
  18928 ****        14.2500   7.0000  39.5000 Du        
  18929 ****        14.2500   7.0000  39.7500 Du        
  18930 ****        14.2500   7.0000  40.0000 Du        
  18931 ****        14.2500   7.2500  39.2500 Du        
  18932 ****        14.2500   7.2500  39.5000 Du        
  18933 ****        14.2500   7.2500  39.7500 Du        
  18934 ****        14.2500   7.2500  40.0000 Du        
  18935 ****        14.5000   4.5000  38.7500 Du        
  18936 ****        14.5000   4.5000  39.0000 Du        
  18937 ****        14.5000   4.7500  38.7500 Du        
  18938 ****        14.5000   4.7500  39.0000 Du        
  18939 ****        14.5000   5.0000  38.5000 Du        
  18940 ****        14.5000   5.0000  38.7500 Du        
  18941 ****        14.5000   5.0000  39.0000 Du        
  18942 ****        14.5000   5.2500  38.5000 Du        
  18943 ****        14.5000   5.2500  38.7500 Du        
  18944 ****        14.5000   5.2500  39.0000 Du        
  18945 ****        14.5000   5.5000  38.5000 Du        
  18946 ****        14.5000   5.5000  38.7500 Du        
  18947 ****        14.5000   5.5000  39.0000 Du        
  18948 ****        14.5000   5.7500  38.5000 Du        
  18949 ****        14.5000   5.7500  38.7500 Du        
  18950 ****        14.5000   5.7500  39.0000 Du        
  18951 ****        14.5000   5.7500  39.2500 Du        
  18952 ****        14.5000   6.0000  38.5000 Du        
  18953 ****        14.5000   6.0000  38.7500 Du        
  18954 ****        14.5000   6.0000  39.0000 Du        
  18955 ****        14.5000   6.0000  39.2500 Du        
  18956 ****        14.5000   6.2500  38.5000 Du        
  18957 ****        14.5000   6.2500  38.7500 Du        
  18958 ****        14.5000   6.2500  39.0000 Du        
  18959 ****        14.5000   6.2500  39.2500 Du        
  18960 ****        14.5000   6.5000  38.7500 Du        
  18961 ****        14.5000   6.5000  39.0000 Du        
  18962 ****        14.5000   6.5000  39.2500 Du        
  18963 ****        14.5000   6.5000  39.5000 Du        
  18964 ****        14.5000   6.7500  38.7500 Du        
  18965 ****        14.5000   6.7500  39.0000 Du        
  18966 ****        14.5000   6.7500  39.2500 Du        
  18967 ****        14.5000   6.7500  39.5000 Du        
  18968 ****        14.5000   6.7500  39.7500 Du        
  18969 ****        14.5000   7.0000  38.7500 Du        
  18970 ****        14.5000   7.0000  39.0000 Du        
  18971 ****        14.5000   7.0000  39.2500 Du        
  18972 ****        14.5000   7.0000  39.5000 Du        
  18973 ****        14.5000   7.0000  39.7500 Du        
  18974 ****        14.5000   7.2500  39.0000 Du        
  18975 ****        14.5000   7.2500  39.2500 Du        
  18976 ****        14.5000   7.2500  39.5000 Du        
  18977 ****        14.5000   7.2500  39.7500 Du        
  18978 ****        14.7500   4.5000  38.7500 Du        
  18979 ****        14.7500   4.5000  39.0000 Du        
  18980 ****        14.7500   4.7500  38.5000 Du        
  18981 ****        14.7500   4.7500  38.7500 Du        
  18982 ****        14.7500   4.7500  39.0000 Du        
  18983 ****        14.7500   5.0000  38.5000 Du        
  18984 ****        14.7500   5.0000  38.7500 Du        
  18985 ****        14.7500   5.0000  39.0000 Du        
  18986 ****        14.7500   5.2500  38.2500 Du        
  18987 ****        14.7500   5.2500  38.5000 Du        
  18988 ****        14.7500   5.2500  38.7500 Du        
  18989 ****        14.7500   5.2500  39.0000 Du        
  18990 ****        14.7500   5.5000  38.2500 Du        
  18991 ****        14.7500   5.5000  38.5000 Du        
  18992 ****        14.7500   5.5000  38.7500 Du        
  18993 ****        14.7500   5.5000  39.0000 Du        
  18994 ****        14.7500   5.7500  38.5000 Du        
  18995 ****        14.7500   5.7500  38.7500 Du        
  18996 ****        14.7500   5.7500  39.0000 Du        
  18997 ****        14.7500   6.0000  38.5000 Du        
  18998 ****        14.7500   6.0000  38.7500 Du        
  18999 ****        14.7500   6.0000  39.0000 Du        
  19000 ****        14.7500   6.2500  38.5000 Du        
  19001 ****        14.7500   6.2500  38.7500 Du        
  19002 ****        14.7500   6.2500  39.0000 Du        
  19003 ****        14.7500   6.2500  39.2500 Du        
  19004 ****        14.7500   6.5000  38.5000 Du        
  19005 ****        14.7500   6.5000  38.7500 Du        
  19006 ****        14.7500   6.5000  39.0000 Du        
  19007 ****        14.7500   6.5000  39.2500 Du        
  19008 ****        14.7500   6.7500  38.7500 Du        
  19009 ****        14.7500   6.7500  39.0000 Du        
  19010 ****        14.7500   6.7500  39.2500 Du        
  19011 ****        14.7500   6.7500  39.5000 Du        
  19012 ****        14.7500   7.0000  38.7500 Du        
  19013 ****        14.7500   7.0000  39.0000 Du        
  19014 ****        14.7500   7.0000  39.2500 Du        
  19015 ****        14.7500   7.0000  39.5000 Du        
  19016 ****        14.7500   7.2500  39.2500 Du        
  19017 ****        15.0000   4.5000  38.7500 Du        
  19018 ****        15.0000   4.7500  38.5000 Du        
  19019 ****        15.0000   4.7500  38.7500 Du        
  19020 ****        15.0000   5.0000  38.2500 Du        
  19021 ****        15.0000   5.0000  38.5000 Du        
  19022 ****        15.0000   5.0000  38.7500 Du        
  19023 ****        15.0000   5.2500  38.2500 Du        
  19024 ****        15.0000   5.2500  38.5000 Du        
  19025 ****        15.0000   5.2500  38.7500 Du        
  19026 ****        15.0000   5.5000  38.2500 Du        
  19027 ****        15.0000   5.5000  38.5000 Du        
  19028 ****        15.0000   5.5000  38.7500 Du        
  19029 ****        15.0000   5.5000  39.0000 Du        
  19030 ****        15.0000   5.7500  38.2500 Du        
  19031 ****        15.0000   5.7500  38.5000 Du        
  19032 ****        15.0000   5.7500  38.7500 Du        
  19033 ****        15.0000   5.7500  39.0000 Du        
  19034 ****        15.0000   6.0000  38.5000 Du        
  19035 ****        15.0000   6.0000  38.7500 Du        
  19036 ****        15.0000   6.0000  39.0000 Du        
  19037 ****        15.0000   6.2500  38.5000 Du        
  19038 ****        15.0000   6.2500  38.7500 Du        
  19039 ****        15.0000   6.2500  39.0000 Du        
  19040 ****        15.0000   6.5000  38.5000 Du        
  19041 ****        15.0000   6.5000  38.7500 Du        
  19042 ****        15.0000   6.5000  39.0000 Du        
  19043 ****        15.0000   6.5000  39.2500 Du        
  19044 ****        15.0000   6.7500  38.7500 Du        
  19045 ****        15.0000   6.7500  39.0000 Du        
  19046 ****        15.0000   6.7500  39.2500 Du        
  19047 ****        15.0000   7.0000  38.7500 Du        
  19048 ****        15.0000   7.0000  39.0000 Du        
  19049 ****        15.0000   7.0000  39.2500 Du        
  19050 ****        15.2500   4.5000  38.7500 Du        
  19051 ****        15.2500   4.7500  38.5000 Du        
  19052 ****        15.2500   4.7500  38.7500 Du        
  19053 ****        15.2500   5.0000  38.2500 Du        
  19054 ****        15.2500   5.0000  38.5000 Du        
  19055 ****        15.2500   5.0000  38.7500 Du        
  19056 ****        15.2500   5.2500  38.2500 Du        
  19057 ****        15.2500   5.2500  38.5000 Du        
  19058 ****        15.2500   5.2500  38.7500 Du        
  19059 ****        15.2500   5.5000  38.2500 Du        
  19060 ****        15.2500   5.5000  38.5000 Du        
  19061 ****        15.2500   5.5000  38.7500 Du        
  19062 ****        15.2500   5.7500  38.5000 Du        
  19063 ****        15.2500   5.7500  38.7500 Du        
  19064 ****        15.2500   6.0000  38.5000 Du        
  19065 ****        15.2500   6.0000  38.7500 Du        
  19066 ****        15.2500   6.0000  39.0000 Du        
  19067 ****        15.2500   6.2500  38.5000 Du        
  19068 ****        15.2500   6.2500  38.7500 Du        
  19069 ****        15.2500   6.2500  39.0000 Du        
  19070 ****        15.2500   6.5000  38.7500 Du        
  19071 ****        15.2500   6.5000  39.0000 Du        
  19072 ****        15.2500   6.7500  38.7500 Du        
  19073 ****        15.2500   6.7500  39.0000 Du        
  19074 ****        15.2500   6.7500  39.2500 Du        
  19075 ****        15.2500   7.0000  38.7500 Du        
  19076 ****        15.2500   7.0000  39.0000 Du        
  19077 ****        15.5000   4.5000  38.7500 Du        
  19078 ****        15.5000   4.7500  38.2500 Du        
  19079 ****        15.5000   4.7500  38.5000 Du        
  19080 ****        15.5000   4.7500  38.7500 Du        
  19081 ****        15.5000   5.0000  38.2500 Du        
  19082 ****        15.5000   5.0000  38.5000 Du        
  19083 ****        15.5000   5.0000  38.7500 Du        
  19084 ****        15.5000   5.2500  38.2500 Du        
  19085 ****        15.5000   5.2500  38.5000 Du        
  19086 ****        15.5000   5.2500  38.7500 Du        
  19087 ****        15.5000   5.5000  38.5000 Du        
  19088 ****        15.5000   5.5000  38.7500 Du        
  19089 ****        15.5000   5.7500  38.5000 Du        
  19090 ****        15.5000   5.7500  38.7500 Du        
  19091 ****        15.5000   6.0000  38.5000 Du        
  19092 ****        15.5000   6.0000  38.7500 Du        
  19093 ****        15.5000   6.2500  38.7500 Du        
  19094 ****        15.5000   6.5000  38.7500 Du        
  19095 ****        15.5000   6.5000  39.0000 Du        
  19096 ****        15.5000   6.7500  38.7500 Du        
  19097 ****        15.5000   6.7500  39.0000 Du        
  19098 ****        15.7500   4.5000  38.5000 Du        
  19099 ****        15.7500   4.5000  38.7500 Du        
  19100 ****        15.7500   4.7500  38.2500 Du        
  19101 ****        15.7500   4.7500  38.5000 Du        
  19102 ****        15.7500   4.7500  38.7500 Du        
  19103 ****        15.7500   5.0000  38.2500 Du        
  19104 ****        15.7500   5.0000  38.5000 Du        
  19105 ****        15.7500   5.0000  38.7500 Du        
  19106 ****        15.7500   5.2500  38.2500 Du        
  19107 ****        15.7500   5.2500  38.5000 Du        
  19108 ****        15.7500   5.2500  38.7500 Du        
  19109 ****        15.7500   5.5000  38.5000 Du        
  19110 ****        15.7500   5.5000  38.7500 Du        
  19111 ****        15.7500   5.7500  38.5000 Du        
  19112 ****        15.7500   5.7500  38.7500 Du        
  19113 ****        15.7500   6.0000  38.7500 Du        
  19114 ****        15.7500   6.2500  38.7500 Du        
  19115 ****        15.7500   6.5000  38.7500 Du        
  19116 ****        15.7500   6.7500  38.7500 Du        
  19117 ****        15.7500   6.7500  39.0000 Du        
