#       Name:                CT1002167954
#       Creating user name   hitesit
#       Creation time:       Sun Apr 16 02:21:25 2023


#       File generated by GOLD software.
#

@<TRIPOS>MOLECULE
CT1002167954|ligand_prepared|mol2|1|dock3
    29    30     1
SMALL
NO_CHARGES


@<TRIPOS>ATOM
      1 C1           3.9104  11.9053  32.4689 C.3            1 RES1               0.0000
      2 C2           5.3509  11.3929  32.2657 C.ar           1 RES1               0.0000
      3 C3           3.9880  12.9878  33.5415 C.2            1 RES1               0.0000
      4 C4           3.4412  12.4098  31.1088 C.2            1 RES1               0.0000
      5 C5           2.9204  10.8154  32.9417 C.3            1 RES1               0.0000
      6 C6           6.4235  12.0311  32.8813 C.ar           1 RES1               0.0000
      7 C7           5.6221  10.2836  31.4692 C.ar           1 RES1               0.0000
      8 N8           3.8558  14.2847  33.1411 N.am           1 RES1               0.0000
      9 O9           4.2016  12.7102  34.7152 O.2            1 RES1               0.0000
     10 N10          3.1944  13.7507  30.9715 N.am           1 RES1               0.0000
     11 O11          3.2991  11.6607  30.1501 O.2            1 RES1               0.0000
     12 C12          1.4911  11.3108  33.0964 C.3            1 RES1               0.0000
     13 C13          7.7199  11.5752  32.7093 C.ar           1 RES1               0.0000
     14 C14          6.9194   9.8294  31.2983 C.ar           1 RES1               0.0000
     15 C15          3.4098  14.7155  31.9175 C.2            1 RES1               0.0000
     16 C16          7.9688  10.4739  31.9182 C.ar           1 RES1               0.0000
     17 O17          3.2155  15.9083  31.7013 O.2            1 RES1               0.0000
     18 H18          2.9319   9.9904  32.2188 H              1 RES1               0.0000
     19 H19          3.2636  10.4210  33.9061 H              1 RES1               0.0000
     20 H20          6.2473  12.9008  33.5056 H              1 RES1               0.0000
     21 H21          4.8123   9.7615  30.9709 H              1 RES1               0.0000
     22 H22          4.1122  15.0005  33.8136 H              1 RES1               0.0000
     23 H23          2.8146  14.0580  30.0817 H              1 RES1               0.0000
     24 H24          0.8383  10.5070  33.4300 H              1 RES1               0.0000
     25 H25          1.4387  12.1153  33.8271 H              1 RES1               0.0000
     26 H26          1.1088  11.6873  32.1499 H              1 RES1               0.0000
     27 H27          8.5424  12.0868  33.1982 H              1 RES1               0.0000
     28 H28          7.1106   8.9627  30.6743 H              1 RES1               0.0000
     29 H29          8.9844  10.1167  31.7839 H              1 RES1               0.0000
@<TRIPOS>BOND
    1    1    2 1     
    2    1    3 1     
    3    1    4 1     
    4    1    5 1     
    5    2    6 ar    
    6    2    7 ar    
    7    3    8 1     
    8    3    9 2     
    9    4   10 1     
   10    4   11 2     
   11    5   12 1     
   12    5   18 1     
   13    5   19 1     
   14    6   13 ar    
   15    6   20 1     
   16    7   14 ar    
   17    7   21 1     
   18    8   15 1     
   19    8   22 1     
   20   10   15 1     
   21   10   23 1     
   22   12   24 1     
   23   12   25 1     
   24   12   26 1     
   25   13   16 ar    
   26   13   27 1     
   27   14   16 ar    
   28   14   28 1     
   29   15   17 2     
   30   16   29 1     
@<TRIPOS>SUBSTRUCTURE
      1 RES1           1
@<TRIPOS>SET
DONOR_HYDROGENS      STATIC     ATOMS    <user>   **** ""
2 22 23
ATOM$RED        STATIC     ATOMS    COLORGROUP SYSTEM
2 22 23
@<TRIPOS>COMMENT
> <Gold.Version>
2022.3.0

> <Gold.Id.Protein>
unknown|1wbs_clean|pdb

> <Gold.Protein.RotatedTorsions>
[ 1700 1693 1691 1688 ] final  136.84 input   60.03 | X-H torsion

> <Gold.Protein.ActiveResidues>
 TRP18   VAL30   GLY31   GLY36   SER37   VAL38   CYS39   ALA40   ARG49   VAL50  
 ALA51   VAL52   LYS53   LYS54   LEU55   ARG67   THR68   ARG70   GLU71   LEU72  
 LEU74   LEU75   MET78   HIS80   ASN82   VAL83   ILE84   GLY85   LEU86   LEU87  
 ASP88   VAL89   TYR103  LEU104  VAL105  THR106  HIS107  LEU108  MET109  GLY110 
 ALA111  ASP112  GLY137  LEU138  TYR140  ILE141  HIS142  ALA144  ILE146  ILE147 
 HIS148  ARG149  ASP150  LEU151  SER154  ASN155  LEU156  ALA157  LYS165  ILE166 
 LEU167  ASP168  PHE169  GLY170  LEU171  ASP205 

> <Gold.Protein.RotatedAtoms>
    7.0507    7.0079   36.0289 H   0  0  0  0  0  0  0  0  0  0  0  0  # atno 1700 bound_to 1693
    7.2037    5.5012   35.4331 LP  0  0  0  0  0  0  0  0  0  0  0  0  # atno 5694 bound_to 1693
    5.7330    6.2070   35.5085 LP  0  0  0  0  0  0  0  0  0  0  0  0  # atno 5695 bound_to 1693

> <Gold.Score>
     Fitness  S(hb_ext) S(vdw_ext)  S(hb_int)    S(int)      intcor
     48.06       0.07      36.77       0.00      -2.56      -0.77

> <Gold.Goldscore.Fitness>
48.0623

> <Gold.Goldscore.Internal.Vdw>
-2.9605

> <Gold.Goldscore.Internal.Torsion>
-0.3721

> <Gold.Goldscore.External.Vdw>
36.7663

> <Gold.Goldscore.Internal.HBond>
0.0000

> <Gold.Goldscore.External.HBond>
0.0725

> <Gold.Goldscore.Internal.Correction>
-0.7686

> <Gold.Goldscore.Hbonds>
donor molecule, donor type, donor heavy atom, donor atom, acceptor molecule, acceptor atom, score
      L1  H     8    22       P1  2705  0.04

> <Gold.Goldscore.Internal.Vdw.Weighted>
-2.9605

> <Gold.Goldscore.Internal.Torsion.Weighted>
-0.3721

> <Gold.Goldscore.External.Vdw.Weighted>
50.5537

> <Gold.Goldscore.Internal.HBond.Weighted>
0.0000

> <Gold.Goldscore.External.HBond.Weighted>
0.0725

> <Gold.Goldscore.Internal.Correction.Weighted>
-0.7686

> <Gold.Rescore>
     Score     S(PLP)   S(hbond)     S(cho)   S(metal)  DE(clash)   DE(tors)     intcor
     42.55     -41.66       1.00       0.00       0.00       2.01       0.05       ----

> <Gold.PLP.Fitness>
42.5507

> <Gold.PLP.PLP>
-41.6589

> <Gold.PLP.part.hbond>
-1.0000

> <Gold.PLP.part.metal>
0.0000

> <Gold.PLP.part.buried>
-3.3999

> <Gold.PLP.part.nonpolar>
-38.5266

> <Gold.PLP.part.repulsive>
0.5446

> <Gold.PLP.ligand.clash>
2.0055

> <Gold.PLP.ligand.torsion>
0.0513

> <Gold.PLP.Chemscore.Hbond>
1.0000

> <Gold.PLP.Chemscore.CHOScore>
0.0000

> <Gold.PLP.Chemscore.Metal>
0.0000

> <Gold.Chemscore.Hbonds>
donor molecule, donor type, donor heavy atom, donor atom, acceptor molecule, acceptor atom, score
      L1  H     8    22       P1  2705  0.39

> <Gold.PLP.Chemscore.Internal.Correction>
   9.000000E+99

