#       Name:                CT1002167954
#       Creating user name   hitesit
#       Creation time:       Sun Apr 16 02:21:26 2023


#       File generated by GOLD software.
#

@<TRIPOS>MOLECULE
CT1002167954|ligand_prepared|mol2|1|dock4
    29    30     1
SMALL
NO_CHARGES


@<TRIPOS>ATOM
      1 C1           2.3447  10.2570  32.8377 C.3            1 RES1               0.0000
      2 C2           2.4881   9.1881  33.9402 C.ar           1 RES1               0.0000
      3 C3           1.7469  11.4891  33.5107 C.2            1 RES1               0.0000
      4 C4           3.7429  10.4749  32.2703 C.2            1 RES1               0.0000
      5 C5           1.4175   9.8343  31.6745 C.3            1 RES1               0.0000
      6 C6           1.8847   7.9417  33.8017 C.ar           1 RES1               0.0000
      7 C7           3.2216   9.4323  35.0982 C.ar           1 RES1               0.0000
      8 N8           2.5728  12.5516  33.7316 N.am           1 RES1               0.0000
      9 O9           0.5786  11.5131  33.8778 O.2            1 RES1               0.0000
     10 N10          4.3294  11.6988  32.4601 N.am           1 RES1               0.0000
     11 O11          4.3488   9.5925  31.6749 O.2            1 RES1               0.0000
     12 C12          1.2225  10.9145  30.6222 C.3            1 RES1               0.0000
     13 C13          2.0123   6.9735  34.7837 C.ar           1 RES1               0.0000
     14 C14          3.3478   8.4626  36.0792 C.ar           1 RES1               0.0000
     15 C15          3.8201  12.7369  33.1916 C.2            1 RES1               0.0000
     16 C16          2.7442   7.2330  35.9228 C.ar           1 RES1               0.0000
     17 O17          4.4315  13.7877  33.3624 O.2            1 RES1               0.0000
     18 H18          1.8394   8.9438  31.1924 H              1 RES1               0.0000
     19 H19          0.4378   9.5607  32.0853 H              1 RES1               0.0000
     20 H20          1.3028   7.7202  32.9132 H              1 RES1               0.0000
     21 H21          3.7043  10.3928  35.2432 H              1 RES1               0.0000
     22 H22          2.2315  13.2754  34.3562 H              1 RES1               0.0000
     23 H23          5.2289  11.8500  32.0146 H              1 RES1               0.0000
     24 H24          0.5640  10.5662  29.8293 H              1 RES1               0.0000
     25 H25          0.7809  11.8063  31.0621 H              1 RES1               0.0000
     26 H26          2.1742  11.1931  30.1745 H              1 RES1               0.0000
     27 H27          1.5342   6.0078  34.6565 H              1 RES1               0.0000
     28 H28          3.9243   8.6714  36.9744 H              1 RES1               0.0000
     29 H29          2.8444   6.4742  36.6918 H              1 RES1               0.0000
@<TRIPOS>BOND
    1    1    2 1     
    2    1    3 1     
    3    1    4 1     
    4    1    5 1     
    5    2    6 ar    
    6    2    7 ar    
    7    3    8 1     
    8    3    9 2     
    9    4   10 1     
   10    4   11 2     
   11    5   12 1     
   12    5   18 1     
   13    5   19 1     
   14    6   13 ar    
   15    6   20 1     
   16    7   14 ar    
   17    7   21 1     
   18    8   15 1     
   19    8   22 1     
   20   10   15 1     
   21   10   23 1     
   22   12   24 1     
   23   12   25 1     
   24   12   26 1     
   25   13   16 ar    
   26   13   27 1     
   27   14   16 ar    
   28   14   28 1     
   29   15   17 2     
   30   16   29 1     
@<TRIPOS>SUBSTRUCTURE
      1 RES1           1
@<TRIPOS>SET
DONOR_HYDROGENS      STATIC     ATOMS    <user>   **** ""
2 22 23
ATOM$RED        STATIC     ATOMS    COLORGROUP SYSTEM
2 22 23
@<TRIPOS>COMMENT
> <Gold.Version>
2022.3.0

> <Gold.Id.Protein>
unknown|1wbs_clean|pdb

> <Gold.Protein.RotatedTorsions>
[ 1700 1693 1691 1688 ] final -140.86 input   60.03 | X-H torsion

> <Gold.Protein.ActiveResidues>
 TRP18   VAL30   GLY31   GLY36   SER37   VAL38   CYS39   ALA40   ARG49   VAL50  
 ALA51   VAL52   LYS53   LYS54   LEU55   ARG67   THR68   ARG70   GLU71   LEU72  
 LEU74   LEU75   MET78   HIS80   ASN82   VAL83   ILE84   GLY85   LEU86   LEU87  
 ASP88   VAL89   TYR103  LEU104  VAL105  THR106  HIS107  LEU108  MET109  GLY110 
 ALA111  ASP112  GLY137  LEU138  TYR140  ILE141  HIS142  ALA144  ILE146  ILE147 
 HIS148  ARG149  ASP150  LEU151  SER154  ASN155  LEU156  ALA157  LYS165  ILE166 
 LEU167  ASP168  PHE169  GLY170  LEU171  ASP205 

> <Gold.Protein.RotatedAtoms>
    5.8797    6.7448   35.7488 H   0  0  0  0  0  0  0  0  0  0  0  0  # atno 1700 bound_to 1693
    7.4908    6.6019   35.9289 LP  0  0  0  0  0  0  0  0  0  0  0  0  # atno 5694 bound_to 1693
    6.6249    5.3712   35.2947 LP  0  0  0  0  0  0  0  0  0  0  0  0  # atno 5695 bound_to 1693

> <Gold.Score>
     Fitness  S(hb_ext) S(vdw_ext)  S(hb_int)    S(int)      intcor
     38.49       0.72      28.05       0.00      -0.81      -0.77

> <Gold.Goldscore.Fitness>
38.4853

> <Gold.Goldscore.Internal.Vdw>
-1.1953

> <Gold.Goldscore.Internal.Torsion>
-0.3817

> <Gold.Goldscore.External.Vdw>
28.0544

> <Gold.Goldscore.Internal.HBond>
0.0000

> <Gold.Goldscore.External.HBond>
0.7189

> <Gold.Goldscore.Internal.Correction>
-0.7686

> <Gold.Goldscore.Hbonds>
donor molecule, donor type, donor heavy atom, donor atom, acceptor molecule, acceptor atom, score
      P1  H   777   786       L1    17  0.12

> <Gold.Goldscore.Internal.Vdw.Weighted>
-1.1953

> <Gold.Goldscore.Internal.Torsion.Weighted>
-0.3817

> <Gold.Goldscore.External.Vdw.Weighted>
38.5748

> <Gold.Goldscore.Internal.HBond.Weighted>
0.0000

> <Gold.Goldscore.External.HBond.Weighted>
0.7189

> <Gold.Goldscore.Internal.Correction.Weighted>
-0.7686

> <Gold.Rescore>
     Score     S(PLP)   S(hbond)     S(cho)   S(metal)  DE(clash)   DE(tors)     intcor
     32.40     -29.55       1.00       0.00       0.00       0.00       0.08       ----

> <Gold.PLP.Fitness>
32.3984

> <Gold.PLP.PLP>
-29.5488

> <Gold.PLP.part.hbond>
-1.5265

> <Gold.PLP.part.metal>
0.0000

> <Gold.PLP.part.buried>
5.1317

> <Gold.PLP.part.nonpolar>
-33.9298

> <Gold.PLP.part.repulsive>
0.3941

> <Gold.PLP.ligand.clash>
0.0000

> <Gold.PLP.ligand.torsion>
0.0752

> <Gold.PLP.Chemscore.Hbond>
1.0000

> <Gold.PLP.Chemscore.CHOScore>
0.0000

> <Gold.PLP.Chemscore.Metal>
0.0000

> <Gold.PLP.Chemscore.Internal.Correction>
   9.000000E+99

