#       Name:                CT1002167954
#       Creating user name   hitesit
#       Creation time:       Sun Apr 16 02:21:27 2023


#       File generated by GOLD software.
#

@<TRIPOS>MOLECULE
CT1002167954|ligand_prepared|mol2|1|dock5
    29    30     1
SMALL
NO_CHARGES


@<TRIPOS>ATOM
      1 C1           3.2588  10.7853  32.6354 C.3            1 RES1               0.0000
      2 C2           4.7382  10.5997  32.2411 C.ar           1 RES1               0.0000
      3 C3           2.4481  10.6031  31.3556 C.2            1 RES1               0.0000
      4 C4           2.9693   9.7420  33.7090 C.2            1 RES1               0.0000
      5 C5           2.9394  12.1788  33.2250 C.3            1 RES1               0.0000
      6 C6           5.7564  11.0168  33.0931 C.ar           1 RES1               0.0000
      7 C7           5.0998  10.0117  31.0319 C.ar           1 RES1               0.0000
      8 N8           1.7421   9.4448  31.2144 N.am           1 RES1               0.0000
      9 O9           2.4597  11.4455  30.4666 O.2            1 RES1               0.0000
     10 N10          2.0788   8.7441  33.4110 N.am           1 RES1               0.0000
     11 O11          3.5170   9.7657  34.8043 O.2            1 RES1               0.0000
     12 C12          3.5551  13.3301  32.4456 C.3            1 RES1               0.0000
     13 C13          7.0879  10.8495  32.7503 C.ar           1 RES1               0.0000
     14 C14          6.4319   9.8455  30.6908 C.ar           1 RES1               0.0000
     15 C15          1.4753   8.5307  32.2017 C.2            1 RES1               0.0000
     16 C16          7.4265  10.2634  31.5492 C.ar           1 RES1               0.0000
     17 O17          0.7281   7.5789  31.9946 O.2            1 RES1               0.0000
     18 H18          1.8507  12.3109  33.2491 H              1 RES1               0.0000
     19 H19          3.3047  12.2170  34.2587 H              1 RES1               0.0000
     20 H20          5.5092  11.4823  34.0414 H              1 RES1               0.0000
     21 H21          4.3342   9.6763  30.3405 H              1 RES1               0.0000
     22 H22          1.3791   9.2393  30.2890 H              1 RES1               0.0000
     23 H23          1.8438   8.1008  34.1602 H              1 RES1               0.0000
     24 H24          3.3002  14.2845  32.9015 H              1 RES1               0.0000
     25 H25          4.6395  13.2443  32.4229 H              1 RES1               0.0000
     26 H26          3.1941  13.3376  31.4192 H              1 RES1               0.0000
     27 H27          7.8668  11.1813  33.4287 H              1 RES1               0.0000
     28 H28          6.6938   9.3843  29.7443 H              1 RES1               0.0000
     29 H29          8.4696  10.1321  31.2810 H              1 RES1               0.0000
@<TRIPOS>BOND
    1    1    2 1     
    2    1    3 1     
    3    1    4 1     
    4    1    5 1     
    5    2    6 ar    
    6    2    7 ar    
    7    3    8 1     
    8    3    9 2     
    9    4   10 1     
   10    4   11 2     
   11    5   12 1     
   12    5   18 1     
   13    5   19 1     
   14    6   13 ar    
   15    6   20 1     
   16    7   14 ar    
   17    7   21 1     
   18    8   15 1     
   19    8   22 1     
   20   10   15 1     
   21   10   23 1     
   22   12   24 1     
   23   12   25 1     
   24   12   26 1     
   25   13   16 ar    
   26   13   27 1     
   27   14   16 ar    
   28   14   28 1     
   29   15   17 2     
   30   16   29 1     
@<TRIPOS>SUBSTRUCTURE
      1 RES1           1
@<TRIPOS>SET
DONOR_HYDROGENS      STATIC     ATOMS    <user>   **** ""
2 22 23
ATOM$RED        STATIC     ATOMS    COLORGROUP SYSTEM
2 22 23
@<TRIPOS>COMMENT
> <Gold.Version>
2022.3.0

> <Gold.Id.Protein>
unknown|1wbs_clean|pdb

> <Gold.Protein.RotatedTorsions>
[ 1700 1693 1691 1688 ] final -142.87 input   60.03 | X-H torsion

> <Gold.Protein.ActiveResidues>
 TRP18   VAL30   GLY31   GLY36   SER37   VAL38   CYS39   ALA40   ARG49   VAL50  
 ALA51   VAL52   LYS53   LYS54   LEU55   ARG67   THR68   ARG70   GLU71   LEU72  
 LEU74   LEU75   MET78   HIS80   ASN82   VAL83   ILE84   GLY85   LEU86   LEU87  
 ASP88   VAL89   TYR103  LEU104  VAL105  THR106  HIS107  LEU108  MET109  GLY110 
 ALA111  ASP112  GLY137  LEU138  TYR140  ILE141  HIS142  ALA144  ILE146  ILE147 
 HIS148  ARG149  ASP150  LEU151  SER154  ASN155  LEU156  ALA157  LYS165  ILE166 
 LEU167  ASP168  PHE169  GLY170  LEU171  ASP205 

> <Gold.Protein.RotatedAtoms>
    5.8976    6.7693   35.7615 H   0  0  0  0  0  0  0  0  0  0  0  0  # atno 1700 bound_to 1693
    7.5055    6.5737   35.9194 LP  0  0  0  0  0  0  0  0  0  0  0  0  # atno 5694 bound_to 1693
    6.5921    5.3747   35.2913 LP  0  0  0  0  0  0  0  0  0  0  0  0  # atno 5695 bound_to 1693

> <Gold.Score>
     Fitness  S(hb_ext) S(vdw_ext)  S(hb_int)    S(int)      intcor
     43.29       1.96      32.30       0.00      -3.08      -0.77

> <Gold.Goldscore.Fitness>
43.2874

> <Gold.Goldscore.Internal.Vdw>
-3.1315

> <Gold.Goldscore.Internal.Torsion>
-0.7166

> <Gold.Goldscore.External.Vdw>
32.2961

> <Gold.Goldscore.Internal.HBond>
0.0000

> <Gold.Goldscore.External.HBond>
1.9596

> <Gold.Goldscore.Internal.Correction>
-0.7686

> <Gold.Goldscore.Hbonds>
donor molecule, donor type, donor heavy atom, donor atom, acceptor molecule, acceptor atom, score
      P1  H  1737  1745       L1    17  0.98

> <Gold.Goldscore.Internal.Vdw.Weighted>
-3.1315

> <Gold.Goldscore.Internal.Torsion.Weighted>
-0.7166

> <Gold.Goldscore.External.Vdw.Weighted>
44.4072

> <Gold.Goldscore.Internal.HBond.Weighted>
0.0000

> <Gold.Goldscore.External.HBond.Weighted>
1.9596

> <Gold.Goldscore.Internal.Correction.Weighted>
-0.7686

> <Gold.Rescore>
     Score     S(PLP)   S(hbond)     S(cho)   S(metal)  DE(clash)   DE(tors)     intcor
     44.77     -43.52       1.00       0.00       0.00       0.00       0.87       ----

> <Gold.PLP.Fitness>
44.7740

> <Gold.PLP.PLP>
-43.5236

> <Gold.PLP.part.hbond>
-1.0000

> <Gold.PLP.part.metal>
0.0000

> <Gold.PLP.part.buried>
-1.0189

> <Gold.PLP.part.nonpolar>
-41.8991

> <Gold.PLP.part.repulsive>
0.1100

> <Gold.PLP.ligand.clash>
0.0000

> <Gold.PLP.ligand.torsion>
0.8748

> <Gold.PLP.Chemscore.Hbond>
1.0000

> <Gold.PLP.Chemscore.CHOScore>
0.0000

> <Gold.PLP.Chemscore.Metal>
0.0000

> <Gold.Chemscore.Hbonds>
donor molecule, donor type, donor heavy atom, donor atom, acceptor molecule, acceptor atom, score
      P1  H  1737  1745       L1    17  1.00

> <Gold.PLP.Chemscore.Internal.Correction>
   9.000000E+99

