#       Name:                CT1002167954
#       Creating user name   hitesit
#       Creation time:       Sun Apr 16 02:21:22 2023


#       File generated by GOLD software.
#

@<TRIPOS>MOLECULE
CT1002167954|ligand_prepared|mol2|1|dock1
    29    30     1
SMALL
NO_CHARGES


@<TRIPOS>ATOM
      1 C1           2.4804  10.7995  32.3500 C.3            1 RES1               0.0000
      2 C2           3.8599  10.4505  31.7550 C.ar           1 RES1               0.0000
      3 C3           1.5733  11.1243  31.1669 C.2            1 RES1               0.0000
      4 C4           2.0418   9.5806  33.1540 C.2            1 RES1               0.0000
      5 C5           2.5009  12.0179  33.3023 C.3            1 RES1               0.0000
      6 C6           4.9891  10.3986  32.5667 C.ar           1 RES1               0.0000
      7 C7           4.0182  10.1758  30.3993 C.ar           1 RES1               0.0000
      8 N8           0.6301  10.2017  30.8219 N.am           1 RES1               0.0000
      9 O9           1.7095  12.1566  30.5217 O.2            1 RES1               0.0000
     10 N10          0.9431   8.8863  32.7197 N.am           1 RES1               0.0000
     11 O11          2.6475   9.2053  34.1503 O.2            1 RES1               0.0000
     12 C12          3.4009  13.1493  32.8311 C.3            1 RES1               0.0000
     13 C13          6.2312  10.0807  32.0427 C.ar           1 RES1               0.0000
     14 C14          5.2613   9.8583  29.8772 C.ar           1 RES1               0.0000
     15 C15          0.2357   9.1236  31.5727 C.2            1 RES1               0.0000
     16 C16          6.3680   9.8100  30.6978 C.ar           1 RES1               0.0000
     17 O17         -0.7079   8.4214  31.2210 O.2            1 RES1               0.0000
     18 H18          1.4783  12.4007  33.4078 H              1 RES1               0.0000
     19 H19          2.8388  11.6868  34.2920 H              1 RES1               0.0000
     20 H20          4.9013  10.6110  33.6270 H              1 RES1               0.0000
     21 H21          3.1616  10.2090  29.7346 H              1 RES1               0.0000
     22 H22          0.1761  10.3246  29.9224 H              1 RES1               0.0000
     23 H23          0.6228   8.1220  33.3058 H              1 RES1               0.0000
     24 H24          3.3786  13.9786  33.5350 H              1 RES1               0.0000
     25 H25          4.4307  12.8103  32.7393 H              1 RES1               0.0000
     26 H26          3.0783  13.5200  31.8603 H              1 RES1               0.0000
     27 H27          7.0993  10.0453  32.6925 H              1 RES1               0.0000
     28 H28          5.3644   9.6466  28.8181 H              1 RES1               0.0000
     29 H29          7.3410   9.5606  30.2876 H              1 RES1               0.0000
@<TRIPOS>BOND
    1    1    2 1     
    2    1    3 1     
    3    1    4 1     
    4    1    5 1     
    5    2    6 ar    
    6    2    7 ar    
    7    3    8 1     
    8    3    9 2     
    9    4   10 1     
   10    4   11 2     
   11    5   12 1     
   12    5   18 1     
   13    5   19 1     
   14    6   13 ar    
   15    6   20 1     
   16    7   14 ar    
   17    7   21 1     
   18    8   15 1     
   19    8   22 1     
   20   10   15 1     
   21   10   23 1     
   22   12   24 1     
   23   12   25 1     
   24   12   26 1     
   25   13   16 ar    
   26   13   27 1     
   27   14   16 ar    
   28   14   28 1     
   29   15   17 2     
   30   16   29 1     
@<TRIPOS>SUBSTRUCTURE
      1 RES1           1
@<TRIPOS>SET
DONOR_HYDROGENS      STATIC     ATOMS    <user>   **** ""
2 22 23
ATOM$RED        STATIC     ATOMS    COLORGROUP SYSTEM
2 22 23
@<TRIPOS>COMMENT
> <Gold.Version>
2022.3.0

> <Gold.Id.Protein>
unknown|1wbs_clean|pdb

> <Gold.Protein.RotatedTorsions>
[ 1700 1693 1691 1688 ] final -144.98 input   60.03 | X-H torsion

> <Gold.Protein.ActiveResidues>
 TRP18   VAL30   GLY31   GLY36   SER37   VAL38   CYS39   ALA40   ARG49   VAL50  
 ALA51   VAL52   LYS53   LYS54   LEU55   ARG67   THR68   ARG70   GLU71   LEU72  
 LEU74   LEU75   MET78   HIS80   ASN82   VAL83   ILE84   GLY85   LEU86   LEU87  
 ASP88   VAL89   TYR103  LEU104  VAL105  THR106  HIS107  LEU108  MET109  GLY110 
 ALA111  ASP112  GLY137  LEU138  TYR140  ILE141  HIS142  ALA144  ILE146  ILE147 
 HIS148  ARG149  ASP150  LEU151  SER154  ASN155  LEU156  ALA157  LYS165  ILE166 
 LEU167  ASP168  PHE169  GLY170  LEU171  ASP205 

> <Gold.Protein.RotatedAtoms>
    5.9174    6.7942   35.7747 H   0  0  0  0  0  0  0  0  0  0  0  0  # atno 1700 bound_to 1693
    7.5198    6.5439   35.9092 LP  0  0  0  0  0  0  0  0  0  0  0  0  # atno 5694 bound_to 1693
    6.5579    5.3794   35.2883 LP  0  0  0  0  0  0  0  0  0  0  0  0  # atno 5695 bound_to 1693

> <Gold.Score>
     Fitness  S(hb_ext) S(vdw_ext)  S(hb_int)    S(int)      intcor
     40.98       0.12      32.07       0.00      -3.23      -0.77

> <Gold.Goldscore.Fitness>
40.9836

> <Gold.Goldscore.Internal.Vdw>
-3.0237

> <Gold.Goldscore.Internal.Torsion>
-0.9771

> <Gold.Goldscore.External.Vdw>
32.0684

> <Gold.Goldscore.Internal.HBond>
0.0000

> <Gold.Goldscore.External.HBond>
0.1218

> <Gold.Goldscore.Internal.Correction>
-0.7686

> <Gold.Goldscore.Hbonds>
donor molecule, donor type, donor heavy atom, donor atom, acceptor molecule, acceptor atom, score
      P1  H  1737  1745       L1    17  0.02
      P1  H  1754  1760       L1    17  0.04

> <Gold.Goldscore.Internal.Vdw.Weighted>
-3.0237

> <Gold.Goldscore.Internal.Torsion.Weighted>
-0.9771

> <Gold.Goldscore.External.Vdw.Weighted>
44.0940

> <Gold.Goldscore.Internal.HBond.Weighted>
0.0000

> <Gold.Goldscore.External.HBond.Weighted>
0.1218

> <Gold.Goldscore.Internal.Correction.Weighted>
-0.7686

> <Gold.Rescore>
     Score     S(PLP)   S(hbond)     S(cho)   S(metal)  DE(clash)   DE(tors)     intcor
     44.88     -43.48       1.00       0.00       0.00       0.94       0.33       ----

> <Gold.PLP.Fitness>
44.8833

> <Gold.PLP.PLP>
-43.4849

> <Gold.PLP.part.hbond>
-1.0000

> <Gold.PLP.part.metal>
0.0000

> <Gold.PLP.part.buried>
0.9732

> <Gold.PLP.part.nonpolar>
-43.8462

> <Gold.PLP.part.repulsive>
0.0997

> <Gold.PLP.ligand.clash>
0.9380

> <Gold.PLP.ligand.torsion>
0.3319

> <Gold.PLP.Chemscore.Hbond>
1.0000

> <Gold.PLP.Chemscore.CHOScore>
0.0000

> <Gold.PLP.Chemscore.Metal>
0.0000

> <Gold.PLP.Chemscore.Internal.Correction>
   9.000000E+99

