#       Name:                CT1002167954
#       Creating user name   hitesit
#       Creation time:       Sun Apr 16 02:21:28 2023


#       File generated by GOLD software.
#

@<TRIPOS>MOLECULE
CT1002167954|ligand_prepared|mol2|1|dock6
    29    30     1
SMALL
NO_CHARGES


@<TRIPOS>ATOM
      1 C1           3.6205  11.3540  32.4739 C.3            1 RES1               0.0000
      2 C2           3.1282  10.0638  33.1609 C.ar           1 RES1               0.0000
      3 C3           4.0428  12.3010  33.5933 C.2            1 RES1               0.0000
      4 C4           4.7588  10.9372  31.5491 C.2            1 RES1               0.0000
      5 C5           2.5416  12.0564  31.6171 C.3            1 RES1               0.0000
      6 C6           3.3622   9.8489  34.5158 C.ar           1 RES1               0.0000
      7 C7           2.4377   9.0825  32.4547 C.ar           1 RES1               0.0000
      8 N8           5.3789  12.4942  33.7871 N.am           1 RES1               0.0000
      9 O9           3.2171  12.8394  34.3203 O.2            1 RES1               0.0000
     10 N10          6.0184  11.3951  31.8345 N.am           1 RES1               0.0000
     11 O11          4.5790  10.2028  30.5854 O.2            1 RES1               0.0000
     12 C12          2.9828  13.3987  31.0554 C.3            1 RES1               0.0000
     13 C13          2.9193   8.6961  35.1428 C.ar           1 RES1               0.0000
     14 C14          1.9958   7.9302  33.0837 C.ar           1 RES1               0.0000
     15 C15          6.3852  12.1296  32.9291 C.2            1 RES1               0.0000
     16 C16          2.2355   7.7362  34.4274 C.ar           1 RES1               0.0000
     17 O17          7.5482  12.4577  33.1455 O.2            1 RES1               0.0000
     18 H18          2.2684  11.3974  30.7837 H              1 RES1               0.0000
     19 H19          1.6460  12.2082  32.2320 H              1 RES1               0.0000
     20 H20          3.9008  10.5919  35.0945 H              1 RES1               0.0000
     21 H21          2.2387   9.2132  31.3965 H              1 RES1               0.0000
     22 H22          5.6554  12.9519  34.6498 H              1 RES1               0.0000
     23 H23          6.7505  11.1674  31.1692 H              1 RES1               0.0000
     24 H24          2.1891  13.8485  30.4626 H              1 RES1               0.0000
     25 H25          3.2382  14.0876  31.8579 H              1 RES1               0.0000
     26 H26          3.8569  13.2817  30.4182 H              1 RES1               0.0000
     27 H27          3.1117   8.5476  36.2002 H              1 RES1               0.0000
     28 H28          1.4586   7.1772  32.5166 H              1 RES1               0.0000
     29 H29          1.8883   6.8334  34.9189 H              1 RES1               0.0000
@<TRIPOS>BOND
    1    1    2 1     
    2    1    3 1     
    3    1    4 1     
    4    1    5 1     
    5    2    6 ar    
    6    2    7 ar    
    7    3    8 1     
    8    3    9 2     
    9    4   10 1     
   10    4   11 2     
   11    5   12 1     
   12    5   18 1     
   13    5   19 1     
   14    6   13 ar    
   15    6   20 1     
   16    7   14 ar    
   17    7   21 1     
   18    8   15 1     
   19    8   22 1     
   20   10   15 1     
   21   10   23 1     
   22   12   24 1     
   23   12   25 1     
   24   12   26 1     
   25   13   16 ar    
   26   13   27 1     
   27   14   16 ar    
   28   14   28 1     
   29   15   17 2     
   30   16   29 1     
@<TRIPOS>SUBSTRUCTURE
      1 RES1           1
@<TRIPOS>SET
DONOR_HYDROGENS      STATIC     ATOMS    <user>   **** ""
2 22 23
ATOM$RED        STATIC     ATOMS    COLORGROUP SYSTEM
2 22 23
@<TRIPOS>COMMENT
> <Gold.Version>
2022.3.0

> <Gold.Id.Protein>
unknown|1wbs_clean|pdb

> <Gold.Protein.RotatedTorsions>
[ 1700 1693 1691 1688 ] final -140.02 input   60.03 | X-H torsion

> <Gold.Protein.ActiveResidues>
 TRP18   VAL30   GLY31   GLY36   SER37   VAL38   CYS39   ALA40   ARG49   VAL50  
 ALA51   VAL52   LYS53   LYS54   LEU55   ARG67   THR68   ARG70   GLU71   LEU72  
 LEU74   LEU75   MET78   HIS80   ASN82   VAL83   ILE84   GLY85   LEU86   LEU87  
 ASP88   VAL89   TYR103  LEU104  VAL105  THR106  HIS107  LEU108  MET109  GLY110 
 ALA111  ASP112  GLY137  LEU138  TYR140  ILE141  HIS142  ALA144  ILE146  ILE147 
 HIS148  ARG149  ASP150  LEU151  SER154  ASN155  LEU156  ALA157  LYS165  ILE166 
 LEU167  ASP168  PHE169  GLY170  LEU171  ASP205 

> <Gold.Protein.RotatedAtoms>
    5.8725    6.7345   35.7435 H   0  0  0  0  0  0  0  0  0  0  0  0  # atno 1700 bound_to 1693
    7.4843    6.6134   35.9327 LP  0  0  0  0  0  0  0  0  0  0  0  0  # atno 5694 bound_to 1693
    6.6385    5.3700   35.2962 LP  0  0  0  0  0  0  0  0  0  0  0  0  # atno 5695 bound_to 1693

> <Gold.Score>
     Fitness  S(hb_ext) S(vdw_ext)  S(hb_int)    S(int)      intcor
     39.64       0.00      30.20       0.00      -1.88      -0.77

> <Gold.Goldscore.Fitness>
39.6403

> <Gold.Goldscore.Internal.Vdw>
-2.2191

> <Gold.Goldscore.Internal.Torsion>
-0.4242

> <Gold.Goldscore.External.Vdw>
30.1951

> <Gold.Goldscore.Internal.HBond>
0.0000

> <Gold.Goldscore.External.HBond>
0.0000

> <Gold.Goldscore.Internal.Correction>
-0.7653

> <Gold.Goldscore.Internal.Vdw.Weighted>
-2.2191

> <Gold.Goldscore.Internal.Torsion.Weighted>
-0.4242

> <Gold.Goldscore.External.Vdw.Weighted>
41.5183

> <Gold.Goldscore.Internal.HBond.Weighted>
0.0000

> <Gold.Goldscore.External.HBond.Weighted>
0.0000

> <Gold.Goldscore.Internal.Correction.Weighted>
-0.7653

> <Gold.Rescore>
     Score     S(PLP)   S(hbond)     S(cho)   S(metal)  DE(clash)   DE(tors)     intcor
     42.57     -44.65       0.00       0.00       0.00       2.01       0.04       ----

> <Gold.PLP.Fitness>
42.5700

> <Gold.PLP.PLP>
-44.6548

> <Gold.PLP.part.hbond>
0.0000

> <Gold.PLP.part.metal>
0.0000

> <Gold.PLP.part.buried>
-4.9104

> <Gold.PLP.part.nonpolar>
-40.5461

> <Gold.PLP.part.repulsive>
0.3057

> <Gold.PLP.ligand.clash>
2.0140

> <Gold.PLP.ligand.torsion>
0.0354

> <Gold.PLP.Chemscore.Hbond>
0.0000

> <Gold.PLP.Chemscore.CHOScore>
0.0000

> <Gold.PLP.Chemscore.Metal>
0.0000

> <Gold.PLP.Chemscore.Internal.Correction>
   9.000000E+99

