#       Name:                CT1002167954
#       Creating user name   hitesit
#       Creation time:       Sun Apr 16 02:21:34 2023


#       File generated by GOLD software.
#

@<TRIPOS>MOLECULE
CT1002167954|ligand_prepared|mol2|1|dock10
    29    30     1
SMALL
NO_CHARGES


@<TRIPOS>ATOM
      1 C1           6.3631  15.4238  41.0469 C.3            1 RES1               0.0000
      2 C2           6.5943  15.2090  39.5373 C.ar           1 RES1               0.0000
      3 C3           7.7463  15.5511  41.6785 C.2            1 RES1               0.0000
      4 C4           5.5040  16.6771  41.1728 C.2            1 RES1               0.0000
      5 C5           5.6137  14.2597  41.7361 C.3            1 RES1               0.0000
      6 C6           6.0220  14.1240  38.8800 C.ar           1 RES1               0.0000
      7 C7           7.3740  16.0872  38.7893 C.ar           1 RES1               0.0000
      8 N8           8.1476  16.7924  42.0758 N.am           1 RES1               0.0000
      9 O9           8.4893  14.5838  41.7899 O.2            1 RES1               0.0000
     10 N10          6.0576  17.7774  41.7733 N.am           1 RES1               0.0000
     11 O11          4.3583  16.7271  40.7426 O.2            1 RES1               0.0000
     12 C12          5.5366  14.3905  43.2491 C.3            1 RES1               0.0000
     13 C13          6.2194  13.9257  37.5236 C.ar           1 RES1               0.0000
     14 C14          7.5703  15.8869  37.4329 C.ar           1 RES1               0.0000
     15 C15          7.3507  17.9017  42.2029 C.2            1 RES1               0.0000
     16 C16          6.9932  14.8071  36.7990 C.ar           1 RES1               0.0000
     17 O17          7.7905  18.9424  42.6834 O.2            1 RES1               0.0000
     18 H18          4.5945  14.2085  41.3337 H              1 RES1               0.0000
     19 H19          6.1196  13.3183  41.4884 H              1 RES1               0.0000
     20 H20          5.4120  13.4185  39.4342 H              1 RES1               0.0000
     21 H21          7.8387  16.9430  39.2671 H              1 RES1               0.0000
     22 H22          9.1312  16.9065  42.2991 H              1 RES1               0.0000
     23 H23          5.4493  18.5779  41.9131 H              1 RES1               0.0000
     24 H24          5.0011  13.5483  43.6822 H              1 RES1               0.0000
     25 H25          6.5331  14.4189  43.6851 H              1 RES1               0.0000
     26 H26          5.0170  15.3038  43.5313 H              1 RES1               0.0000
     27 H27          5.7642  13.0736  37.0297 H              1 RES1               0.0000
     28 H28          8.1806  16.5828  36.8667 H              1 RES1               0.0000
     29 H29          7.1474  14.6518  35.7363 H              1 RES1               0.0000
@<TRIPOS>BOND
    1    1    2 1     
    2    1    3 1     
    3    1    4 1     
    4    1    5 1     
    5    2    6 ar    
    6    2    7 ar    
    7    3    8 1     
    8    3    9 2     
    9    4   10 1     
   10    4   11 2     
   11    5   12 1     
   12    5   18 1     
   13    5   19 1     
   14    6   13 ar    
   15    6   20 1     
   16    7   14 ar    
   17    7   21 1     
   18    8   15 1     
   19    8   22 1     
   20   10   15 1     
   21   10   23 1     
   22   12   24 1     
   23   12   25 1     
   24   12   26 1     
   25   13   16 ar    
   26   13   27 1     
   27   14   16 ar    
   28   14   28 1     
   29   15   17 2     
   30   16   29 1     
@<TRIPOS>SUBSTRUCTURE
      1 RES1           1
@<TRIPOS>SET
DONOR_HYDROGENS      STATIC     ATOMS    <user>   **** ""
2 22 23
ATOM$RED        STATIC     ATOMS    COLORGROUP SYSTEM
2 22 23
@<TRIPOS>COMMENT
> <Gold.Version>
2022.3.0

> <Gold.Id.Protein>
unknown|1wbs_clean|pdb

> <Gold.Protein.RotatedTorsions>
[ 1700 1693 1691 1688 ] final -112.21 input   60.03 | X-H torsion

> <Gold.Protein.ActiveResidues>
 TRP18   VAL30   GLY31   GLY36   SER37   VAL38   CYS39   ALA40   ARG49   VAL50  
 ALA51   VAL52   LYS53   LYS54   LEU55   ARG67   THR68   ARG70   GLU71   LEU72  
 LEU74   LEU75   MET78   HIS80   ASN82   VAL83   ILE84   GLY85   LEU86   LEU87  
 ASP88   VAL89   TYR103  LEU104  VAL105  THR106  HIS107  LEU108  MET109  GLY110 
 ALA111  ASP112  GLY137  LEU138  TYR140  ILE141  HIS142  ALA144  ILE146  ILE147 
 HIS148  ARG149  ASP150  LEU151  SER154  ASN155  LEU156  ALA157  LYS165  ILE166 
 LEU167  ASP168  PHE169  GLY170  LEU171  ASP205 

> <Gold.Protein.RotatedAtoms>
    5.7376    6.3448   35.5631 H   0  0  0  0  0  0  0  0  0  0  0  0  # atno 1700 bound_to 1693
    7.1816    6.9385   36.0223 LP  0  0  0  0  0  0  0  0  0  0  0  0  # atno 5694 bound_to 1693
    7.0771    5.4373   35.3882 LP  0  0  0  0  0  0  0  0  0  0  0  0  # atno 5695 bound_to 1693

> <Gold.Score>
     Fitness  S(hb_ext) S(vdw_ext)  S(hb_int)    S(int)      intcor
     37.25       0.85      27.15       0.00      -0.92      -0.76

> <Gold.Goldscore.Fitness>
37.2510

> <Gold.Goldscore.Internal.Vdw>
-1.2300

> <Gold.Goldscore.Internal.Torsion>
-0.4519

> <Gold.Goldscore.External.Vdw>
27.1456

> <Gold.Goldscore.Internal.HBond>
0.0000

> <Gold.Goldscore.External.HBond>
0.8492

> <Gold.Goldscore.Internal.Correction>
-0.7585

> <Gold.Goldscore.Hbonds>
donor molecule, donor type, donor heavy atom, donor atom, acceptor molecule, acceptor atom, score
      L1  H    10    23       P1  2381  0.42

> <Gold.Goldscore.Internal.Vdw.Weighted>
-1.2300

> <Gold.Goldscore.Internal.Torsion.Weighted>
-0.4519

> <Gold.Goldscore.External.Vdw.Weighted>
37.3252

> <Gold.Goldscore.Internal.HBond.Weighted>
0.0000

> <Gold.Goldscore.External.HBond.Weighted>
0.8492

> <Gold.Goldscore.Internal.Correction.Weighted>
-0.7585

> <Gold.Rescore>
     Score     S(PLP)   S(hbond)     S(cho)   S(metal)  DE(clash)   DE(tors)     intcor
     26.97     -27.41       0.00       0.00       0.00       0.00       0.22       ----

> <Gold.PLP.Fitness>
26.9690

> <Gold.PLP.PLP>
-27.4081

> <Gold.PLP.part.hbond>
-0.1689

> <Gold.PLP.part.metal>
0.0000

> <Gold.PLP.part.buried>
9.6158

> <Gold.PLP.part.nonpolar>
-40.6912

> <Gold.PLP.part.repulsive>
2.9524

> <Gold.PLP.ligand.clash>
0.0000

> <Gold.PLP.ligand.torsion>
0.2195

> <Gold.PLP.Chemscore.Hbond>
0.0000

> <Gold.PLP.Chemscore.CHOScore>
0.0000

> <Gold.PLP.Chemscore.Metal>
0.0000

> <Gold.PLP.Chemscore.Internal.Correction>
   9.000000E+99

