#       Name:                CT1002167954
#       Creating user name   hitesit
#       Creation time:       Sun Apr 16 02:21:32 2023


#       File generated by GOLD software.
#

@<TRIPOS>MOLECULE
CT1002167954|ligand_prepared|mol2|1|dock9
    29    30     1
SMALL
NO_CHARGES


@<TRIPOS>ATOM
      1 C1           4.0361  11.6829  32.5942 C.3            1 RES1               0.0000
      2 C2           2.7449  10.9686  33.0430 C.ar           1 RES1               0.0000
      3 C3           3.7716  12.1993  31.1829 C.2            1 RES1               0.0000
      4 C4           4.2950  12.7807  33.6200 C.2            1 RES1               0.0000
      5 C5           5.2782  10.7624  32.5557 C.3            1 RES1               0.0000
      6 C6           2.7343   9.5940  33.2599 C.ar           1 RES1               0.0000
      7 C7           1.5595  11.6701  33.2466 C.ar           1 RES1               0.0000
      8 N8           3.5752  13.5398  31.0272 N.am           1 RES1               0.0000
      9 O9           3.6973  11.4370  30.2270 O.2            1 RES1               0.0000
     10 N10          4.2150  14.0829  33.2010 N.am           1 RES1               0.0000
     11 O11          4.5513  12.5300  34.7913 O.2            1 RES1               0.0000
     12 C12          6.5708  11.4905  32.2220 C.3            1 RES1               0.0000
     13 C13          1.5812   8.9445  33.6683 C.ar           1 RES1               0.0000
     14 C14          0.4074  11.0185  33.6548 C.ar           1 RES1               0.0000
     15 C15          3.8366  14.5126  31.9583 C.2            1 RES1               0.0000
     16 C16          0.4172   9.6562  33.8665 C.ar           1 RES1               0.0000
     17 O17          3.7354  15.7023  31.6727 O.2            1 RES1               0.0000
     18 H18          5.3885  10.2771  33.5333 H              1 RES1               0.0000
     19 H19          5.1125   9.9768  31.8081 H              1 RES1               0.0000
     20 H20          3.6401   9.0169  33.1067 H              1 RES1               0.0000
     21 H21          1.5281  12.7422  33.0851 H              1 RES1               0.0000
     22 H22          3.1990  13.8474  30.1360 H              1 RES1               0.0000
     23 H23          4.4603  14.7981  33.8782 H              1 RES1               0.0000
     24 H24          7.4105  10.7988  32.2080 H              1 RES1               0.0000
     25 H25          6.5055  11.9641  31.2446 H              1 RES1               0.0000
     26 H26          6.7799  12.2626  32.9595 H              1 RES1               0.0000
     27 H27          1.5938   7.8720  33.8322 H              1 RES1               0.0000
     28 H28         -0.5065  11.5826  33.8089 H              1 RES1               0.0000
     29 H29         -0.4859   9.1472  34.1868 H              1 RES1               0.0000
@<TRIPOS>BOND
    1    1    2 1     
    2    1    3 1     
    3    1    4 1     
    4    1    5 1     
    5    2    6 ar    
    6    2    7 ar    
    7    3    8 1     
    8    3    9 2     
    9    4   10 1     
   10    4   11 2     
   11    5   12 1     
   12    5   18 1     
   13    5   19 1     
   14    6   13 ar    
   15    6   20 1     
   16    7   14 ar    
   17    7   21 1     
   18    8   15 1     
   19    8   22 1     
   20   10   15 1     
   21   10   23 1     
   22   12   24 1     
   23   12   25 1     
   24   12   26 1     
   25   13   16 ar    
   26   13   27 1     
   27   14   16 ar    
   28   14   28 1     
   29   15   17 2     
   30   16   29 1     
@<TRIPOS>SUBSTRUCTURE
      1 RES1           1
@<TRIPOS>SET
DONOR_HYDROGENS      STATIC     ATOMS    <user>   **** ""
2 22 23
ATOM$RED        STATIC     ATOMS    COLORGROUP SYSTEM
2 22 23
@<TRIPOS>COMMENT
> <Gold.Version>
2022.3.0

> <Gold.Id.Protein>
unknown|1wbs_clean|pdb

> <Gold.Protein.RotatedTorsions>
[ 1700 1693 1691 1688 ] final  134.46 input   60.03 | X-H torsion

> <Gold.Protein.ActiveResidues>
 TRP18   VAL30   GLY31   GLY36   SER37   VAL38   CYS39   ALA40   ARG49   VAL50  
 ALA51   VAL52   LYS53   LYS54   LEU55   ARG67   THR68   ARG70   GLU71   LEU72  
 LEU74   LEU75   MET78   HIS80   ASN82   VAL83   ILE84   GLY85   LEU86   LEU87  
 ASP88   VAL89   TYR103  LEU104  VAL105  THR106  HIS107  LEU108  MET109  GLY110 
 ALA111  ASP112  GLY137  LEU138  TYR140  ILE141  HIS142  ALA144  ILE146  ILE147 
 HIS148  ARG149  ASP150  LEU151  SER154  ASN155  LEU156  ALA157  LYS165  ILE166 
 LEU167  ASP168  PHE169  GLY170  LEU171  ASP205 

> <Gold.Protein.RotatedAtoms>
    7.0853    6.9905   36.0267 H   0  0  0  0  0  0  0  0  0  0  0  0  # atno 1700 bound_to 1693
    7.1717    5.4826   35.4207 LP  0  0  0  0  0  0  0  0  0  0  0  0  # atno 5694 bound_to 1693
    5.7302    6.2431   35.5230 LP  0  0  0  0  0  0  0  0  0  0  0  0  # atno 5695 bound_to 1693

> <Gold.Score>
     Fitness  S(hb_ext) S(vdw_ext)  S(hb_int)    S(int)      intcor
     40.18       0.06      29.74       0.00      -0.77      -0.76

> <Gold.Goldscore.Fitness>
40.1804

> <Gold.Goldscore.Internal.Vdw>
-1.1319

> <Gold.Goldscore.Internal.Torsion>
-0.3998

> <Gold.Goldscore.External.Vdw>
29.7411

> <Gold.Goldscore.Internal.HBond>
0.0000

> <Gold.Goldscore.External.HBond>
0.0596

> <Gold.Goldscore.Internal.Correction>
-0.7585

> <Gold.Goldscore.Hbonds>
donor molecule, donor type, donor heavy atom, donor atom, acceptor molecule, acceptor atom, score
      P1  H  2702  2710       L1    11  0.02
      L1  H    10    23       P1  2705  0.01

> <Gold.Goldscore.Internal.Vdw.Weighted>
-1.1319

> <Gold.Goldscore.Internal.Torsion.Weighted>
-0.3998

> <Gold.Goldscore.External.Vdw.Weighted>
40.8940

> <Gold.Goldscore.Internal.HBond.Weighted>
0.0000

> <Gold.Goldscore.External.HBond.Weighted>
0.0596

> <Gold.Goldscore.Internal.Correction.Weighted>
-0.7585

> <Gold.Rescore>
     Score     S(PLP)   S(hbond)     S(cho)   S(metal)  DE(clash)   DE(tors)     intcor
     41.37     -38.91       0.99       0.00       0.00       0.00       0.26       ----

> <Gold.PLP.Fitness>
41.3718

> <Gold.PLP.PLP>
-38.9140

> <Gold.PLP.part.hbond>
-1.0000

> <Gold.PLP.part.metal>
0.0000

> <Gold.PLP.part.buried>
-3.9516

> <Gold.PLP.part.nonpolar>
-34.6226

> <Gold.PLP.part.repulsive>
0.5199

> <Gold.PLP.ligand.clash>
0.0000

> <Gold.PLP.ligand.torsion>
0.2591

> <Gold.PLP.Chemscore.Hbond>
0.9920

> <Gold.PLP.Chemscore.CHOScore>
0.0000

> <Gold.PLP.Chemscore.Metal>
0.0000

> <Gold.Chemscore.Hbonds>
donor molecule, donor type, donor heavy atom, donor atom, acceptor molecule, acceptor atom, score
      L1  H    10    23       P1  2705  0.48

> <Gold.PLP.Chemscore.Internal.Correction>
   9.000000E+99

