#       Name:                CT1002167954
#       Creating user name   hitesit
#       Creation time:       Sun Apr 16 02:21:23 2023


#       File generated by GOLD software.
#

@<TRIPOS>MOLECULE
CT1002167954|ligand_prepared|mol2|1|dock2
    29    30     1
SMALL
NO_CHARGES


@<TRIPOS>ATOM
      1 C1           3.8661  12.0124  32.5122 C.3            1 RES1               0.0000
      2 C2           5.2998  11.4916  32.2844 C.ar           1 RES1               0.0000
      3 C3           3.9743  13.1244  33.5515 C.2            1 RES1               0.0000
      4 C4           3.3606  12.4795  31.1517 C.2            1 RES1               0.0000
      5 C5           2.8879  10.9383  33.0422 C.3            1 RES1               0.0000
      6 C6           5.5344  10.4057  31.4462 C.ar           1 RES1               0.0000
      7 C7           6.3962  12.0873  32.9022 C.ar           1 RES1               0.0000
      8 N8           3.8328  14.4099  33.1185 N.am           1 RES1               0.0000
      9 O9           4.2194  12.8794  34.7263 O.2            1 RES1               0.0000
     10 N10          3.1118  13.8165  30.9836 N.am           1 RES1               0.0000
     11 O11          3.1914  11.7041  30.2187 O.2            1 RES1               0.0000
     12 C12          1.4590  11.4339  33.1987 C.3            1 RES1               0.0000
     13 C13          6.8188   9.9341  31.2311 C.ar           1 RES1               0.0000
     14 C14          7.6798  11.6140  32.6858 C.ar           1 RES1               0.0000
     15 C15          3.3542  14.8071  31.8958 C.2            1 RES1               0.0000
     16 C16          7.8923  10.5381  31.8503 C.ar           1 RES1               0.0000
     17 O17          3.1556  15.9937  31.6515 O.2            1 RES1               0.0000
     18 H18          2.8923  10.0855  32.3522 H              1 RES1               0.0000
     19 H19          3.2471  10.5834  34.0162 H              1 RES1               0.0000
     20 H20          4.7018   9.9160  30.9523 H              1 RES1               0.0000
     21 H21          6.2528  12.9343  33.5644 H              1 RES1               0.0000
     22 H22          4.1084  15.1437  33.7634 H              1 RES1               0.0000
     23 H23          2.7083  14.0995  30.0962 H              1 RES1               0.0000
     24 H24          0.8146  10.6414  33.5733 H              1 RES1               0.0000
     25 H25          1.4138  12.2663  33.8979 H              1 RES1               0.0000
     26 H26          1.0611  11.7713  32.2438 H              1 RES1               0.0000
     27 H27          6.9805   9.0862  30.5737 H              1 RES1               0.0000
     28 H28          8.5217  12.0920  33.1757 H              1 RES1               0.0000
     29 H29          8.8984  10.1688  31.6813 H              1 RES1               0.0000
@<TRIPOS>BOND
    1    1    2 1     
    2    1    3 1     
    3    1    4 1     
    4    1    5 1     
    5    2    6 ar    
    6    2    7 ar    
    7    3    8 1     
    8    3    9 2     
    9    4   10 1     
   10    4   11 2     
   11    5   12 1     
   12    5   18 1     
   13    5   19 1     
   14    6   13 ar    
   15    6   20 1     
   16    7   14 ar    
   17    7   21 1     
   18    8   15 1     
   19    8   22 1     
   20   10   15 1     
   21   10   23 1     
   22   12   24 1     
   23   12   25 1     
   24   12   26 1     
   25   13   16 ar    
   26   13   27 1     
   27   14   16 ar    
   28   14   28 1     
   29   15   17 2     
   30   16   29 1     
@<TRIPOS>SUBSTRUCTURE
      1 RES1           1
@<TRIPOS>SET
DONOR_HYDROGENS      STATIC     ATOMS    <user>   **** ""
2 22 23
ATOM$RED        STATIC     ATOMS    COLORGROUP SYSTEM
2 22 23
@<TRIPOS>COMMENT
> <Gold.Version>
2022.3.0

> <Gold.Id.Protein>
unknown|1wbs_clean|pdb

> <Gold.Protein.RotatedTorsions>
[ 1700 1693 1691 1688 ] final  -35.74 input   60.03 | X-H torsion

> <Gold.Protein.ActiveResidues>
 TRP18   VAL30   GLY31   GLY36   SER37   VAL38   CYS39   ALA40   ARG49   VAL50  
 ALA51   VAL52   LYS53   LYS54   LEU55   ARG67   THR68   ARG70   GLU71   LEU72  
 LEU74   LEU75   MET78   HIS80   ASN82   VAL83   ILE84   GLY85   LEU86   LEU87  
 ASP88   VAL89   TYR103  LEU104  VAL105  THR106  HIS107  LEU108  MET109  GLY110 
 ALA111  ASP112  GLY137  LEU138  TYR140  ILE141  HIS142  ALA144  ILE146  ILE147 
 HIS148  ARG149  ASP150  LEU151  SER154  ASN155  LEU156  ALA157  LYS165  ILE166 
 LEU167  ASP168  PHE169  GLY170  LEU171  ASP205 

> <Gold.Protein.RotatedAtoms>
    6.3886    5.4284   35.2807 H   0  0  0  0  0  0  0  0  0  0  0  0  # atno 1700 bound_to 1693
    6.0289    6.9127   35.8428 LP  0  0  0  0  0  0  0  0  0  0  0  0  # atno 5694 bound_to 1693
    7.5744    6.3856   35.8520 LP  0  0  0  0  0  0  0  0  0  0  0  0  # atno 5695 bound_to 1693

> <Gold.Score>
     Fitness  S(hb_ext) S(vdw_ext)  S(hb_int)    S(int)      intcor
     48.31       0.04      36.88       0.00      -2.45      -0.77

> <Gold.Goldscore.Fitness>
48.3062

> <Gold.Goldscore.Internal.Vdw>
-2.8344

> <Gold.Goldscore.Internal.Torsion>
-0.3803

> <Gold.Goldscore.External.Vdw>
36.8841

> <Gold.Goldscore.Internal.HBond>
0.0000

> <Gold.Goldscore.External.HBond>
0.0367

> <Gold.Goldscore.Internal.Correction>
-0.7686

> <Gold.Goldscore.Hbonds>
donor molecule, donor type, donor heavy atom, donor atom, acceptor molecule, acceptor atom, score
      L1  H     8    22       P1  2705  0.02

> <Gold.Goldscore.Internal.Vdw.Weighted>
-2.8344

> <Gold.Goldscore.Internal.Torsion.Weighted>
-0.3803

> <Gold.Goldscore.External.Vdw.Weighted>
50.7156

> <Gold.Goldscore.Internal.HBond.Weighted>
0.0000

> <Gold.Goldscore.External.HBond.Weighted>
0.0367

> <Gold.Goldscore.Internal.Correction.Weighted>
-0.7686

> <Gold.Rescore>
     Score     S(PLP)   S(hbond)     S(cho)   S(metal)  DE(clash)   DE(tors)     intcor
     42.75     -41.16       1.00       0.00       0.00       1.37       0.02       ----

> <Gold.PLP.Fitness>
42.7462

> <Gold.PLP.PLP>
-41.1603

> <Gold.PLP.part.hbond>
-1.0000

> <Gold.PLP.part.metal>
0.0000

> <Gold.PLP.part.buried>
-4.5751

> <Gold.PLP.part.nonpolar>
-37.6320

> <Gold.PLP.part.repulsive>
0.4997

> <Gold.PLP.ligand.clash>
1.3743

> <Gold.PLP.ligand.torsion>
0.0199

> <Gold.PLP.Chemscore.Hbond>
1.0000

> <Gold.PLP.Chemscore.CHOScore>
0.0000

> <Gold.PLP.Chemscore.Metal>
0.0000

> <Gold.Chemscore.Hbonds>
donor molecule, donor type, donor heavy atom, donor atom, acceptor molecule, acceptor atom, score
      L1  H     8    22       P1  2705  0.32

> <Gold.PLP.Chemscore.Internal.Correction>
   9.000000E+99

