#       Name:                CT1002167954
#       Creating user name   hitesit
#       Creation time:       Sun Apr 16 02:24:27 2023


#       File generated by GOLD software.
#

@<TRIPOS>MOLECULE
CT1002167954|ligand_prepared|mol2|1|dock8
    29    30     1
SMALL
NO_CHARGES


@<TRIPOS>ATOM
      1 C1         117.4034 245.3009 324.1430 C.3            1 RES1               0.0000
      2 C2         116.2147 245.9277 324.8999 C.ar           1 RES1               0.0000
      3 C3         116.9282 245.0750 322.7107 C.2            1 RES1               0.0000
      4 C4         118.5573 246.2897 324.2670 C.2            1 RES1               0.0000
      5 C5         117.8704 243.9463 324.7250 C.3            1 RES1               0.0000
      6 C6         116.1618 247.3001 325.1241 C.ar           1 RES1               0.0000
      7 C7         115.1642 245.1481 325.3766 C.ar           1 RES1               0.0000
      8 N8         117.4069 245.9125 321.7467 N.am           1 RES1               0.0000
      9 O9         116.1153 244.2004 322.4376 O.2            1 RES1               0.0000
     10 N10        119.0055 246.8999 323.1248 N.am           1 RES1               0.0000
     11 O11        119.0714 246.5585 325.3457 O.2            1 RES1               0.0000
     12 C12        119.2756 243.5488 324.3014 C.3            1 RES1               0.0000
     13 C13        115.0959 247.8730 325.7980 C.ar           1 RES1               0.0000
     14 C14        114.0993 245.7230 326.0505 C.ar           1 RES1               0.0000
     15 C15        118.4624 246.7792 321.8747 C.2            1 RES1               0.0000
     16 C16        114.0639 247.0850 326.2612 C.ar           1 RES1               0.0000
     17 O17        118.8874 247.4028 320.9064 O.2            1 RES1               0.0000
     18 H18        117.8339 244.0011 325.8200 H              1 RES1               0.0000
     19 H19        117.1707 243.1644 324.4048 H              1 RES1               0.0000
     20 H20        116.9661 247.9359 324.7691 H              1 RES1               0.0000
     21 H21        115.1714 244.0743 325.2233 H              1 RES1               0.0000
     22 H22        116.9366 245.8925 320.8474 H              1 RES1               0.0000
     23 H23        119.8196 247.4995 323.2148 H              1 RES1               0.0000
     24 H24        119.5535 242.5914 324.7371 H              1 RES1               0.0000
     25 H25        119.3418 243.4604 323.2190 H              1 RES1               0.0000
     26 H26        120.0010 244.2921 324.6257 H              1 RES1               0.0000
     27 H27        115.0735 248.9452 325.9624 H              1 RES1               0.0000
     28 H28        113.2896 245.0989 326.4138 H              1 RES1               0.0000
     29 H29        113.2288 247.5340 326.7887 H              1 RES1               0.0000
@<TRIPOS>BOND
    1    1    2 1     
    2    1    3 1     
    3    1    4 1     
    4    1    5 1     
    5    2    6 ar    
    6    2    7 ar    
    7    3    8 1     
    8    3    9 2     
    9    4   10 1     
   10    4   11 2     
   11    5   12 1     
   12    5   18 1     
   13    5   19 1     
   14    6   13 ar    
   15    6   20 1     
   16    7   14 ar    
   17    7   21 1     
   18    8   15 1     
   19    8   22 1     
   20   10   15 1     
   21   10   23 1     
   22   12   24 1     
   23   12   25 1     
   24   12   26 1     
   25   13   16 ar    
   26   13   27 1     
   27   14   16 ar    
   28   14   28 1     
   29   15   17 2     
   30   16   29 1     
@<TRIPOS>SUBSTRUCTURE
      1 RES1           1
@<TRIPOS>SET
DONOR_HYDROGENS      STATIC     ATOMS    <user>   **** ""
2 22 23
ATOM$RED        STATIC     ATOMS    COLORGROUP SYSTEM
2 22 23
@<TRIPOS>COMMENT
> <Gold.Version>
2022.3.0

> <Gold.Id.Protein>
unknown|5uo4_clean|pdb

> <Gold.Protein.RotatedTorsions>
[ 8496 8486 8487 8488 ] final   30.89 input   44.11 | X-H torsion
[ 8524 8508 8509 8510 ] final -130.31 input   97.60 | X-H torsion
[ 9059 9055 9056 9057 ] final   94.49 input   32.84 | X-H torsion
[ 9093 9079 9080 9081 ] final  -19.79 input   37.99 | X-H torsion
[ 9137 9125 9126 9127 ] final   32.91 input   94.90 | X-H torsion
[ 9145 9136 9135 9133 ] final  136.50 input   59.99 | X-H torsion
[ 9171 9163 9164 9165 ] final -107.14 input   93.81 | X-H torsion
[ 9249 9240 9241 9242 ] final    5.08 input  122.14 | X-H torsion
[ 3643 3636 3637 3638 ] final  153.80 input   81.24 | X-H torsion
[ 9041 9035 9036 9037 ] final  -31.94 input   40.99 | X-H torsion
[ 9197 9193 9194 9195 ] final   16.30 input  127.52 | X-H torsion
[ 4934 4929 4928 4925 ] final  -81.30 input   60.01 | X-H torsion
[ 9045 9040 9039 9036 ] final  127.42 input   60.00 | X-H torsion
[ 9011 9000 9001 9002 ] final  121.32 input   48.35 | X-H torsion
[ 8550 8539 8540 8541 ] final  162.51 input   52.79 | X-H torsion
[ 3595 3586 3587 3588 ] final   10.69 input   78.24 | X-H torsion
[ 4950 4945 4946 4947 ] final  -26.69 input   25.62 | X-H torsion
[ 12935 12926 12925 12923 ] final -156.91 input   60.03 | X-H torsion
[ 8577 8563 8564 8565 ] final   -2.85 input   67.96 | X-H torsion
[ 8608 8591 8592 8593 ] final   -6.85 input   87.41 | X-H torsion
[ 5599 5589 5588 5585 ] final   27.59 input   60.01 | X-H torsion
[ 12927 12915 12916 12917 ] final    6.16 input  110.33 | X-H torsion
[ 12963 12954 12955 12956 ] final   10.84 input   33.30 | X-H torsion
[ 8644 8625 8626 8627 ] final    6.37 input   62.93 | X-H torsion
[ 12891 12882 12883 12884 ] final   32.09 input   63.10 | X-H torsion
[ 9549 9544 9543 9540 ] final  113.40 input   60.00 | X-H torsion
[ 3623 3607 3608 3609 ] final  125.02 input  103.98 | X-H torsion
[ 9277 9269 9270 9271 ] final -119.47 input   95.60 | X-H torsion
[ 11113 11106 11107 11108 ] final -134.63 input   53.77 | X-H torsion
[ 13521 8463 8462 8461 ] final  -21.11 input    0.00 | X-H torsion
[ 13525 9003 9002 9001 ] final   50.86 input    0.00 | X-H torsion
[ 13528 9058 9057 9056 ] final   17.33 input   -0.00 | X-H torsion
[ 13531 9082 9081 9080 ] final  -88.25 input   -0.00 | X-H torsion
[ 13534 9128 9127 9126 ] final    2.93 input   -0.00 | X-H torsion
[ 13539 9166 9165 9164 ] final  164.19 input   -0.00 | X-H torsion
[ 13552 9038 9037 9036 ] final -152.21 input    0.00 | X-H torsion
[ 13554 8408 8407 8406 ] final -106.52 input    0.00 | X-H torsion
[ 13556 8426 8425 8424 ] final  133.07 input   -0.00 | X-H torsion
[ 13563 8489 8488 8487 ] final  -15.76 input    0.00 | X-H torsion
[ 13565 8511 8510 8509 ] final  -91.42 input    0.00 | X-H torsion
[ 13573 3546 3545 3544 ] final   34.56 input    0.00 | X-H torsion
[ 13575 5587 5586 5585 ] final  118.75 input   -0.00 | X-H torsion
[ 13579 4948 4947 4946 ] final -124.38 input   -0.00 | X-H torsion
[ 13587 8566 8565 8564 ] final -141.39 input   -0.00 | X-H torsion
[ 13589 12885 12884 12883 ] final  -74.52 input   -0.00 | X-H torsion
[ 13594 12957 12956 12955 ] final -134.20 input    0.00 | X-H torsion
[ 13597 12918 12917 12916 ] final  -78.40 input    0.00 | X-H torsion
[ 13601 8542 8541 8540 ] final   11.06 input    0.00 | X-H torsion
[ 13603 8594 8593 8592 ] final -133.88 input    0.00 | X-H torsion
[ 13616 6182 6181 6180 ] final -124.74 input   -0.00 | X-H torsion
[ 13618 9359 9358 9357 ] final   80.55 input   -0.00 | X-H torsion

> <Gold.Protein.ActiveResidues>
 TRP311  MET341  HIS342  TRP414  ALA417  ARG419  CYS420  VAL421  GLY422  LEU429 
 LEU460  SER462  ALA463  ILE464  ARG478  SER482  GLN483  ARG486  ALA502  TYR567 
 GLY568  LEU569  PRO570  ALA571  VAL572  SER573  ASN574  MET575  LEU576  PRO588 
 PHE589  SER590  GLY591  TRP592  TYR593  MET594  GLY595  GLU597  ILE598  ARG601 
 ASP602  ASP605  SER607  ARG608  ILE653  VAL654  TRP683  PHE696  HIS697  PHE709 
 GLU710  TYR711  GLN712  PRO713  ASP714  HEM801  H4B802 

> <Gold.Protein.RotatedAtoms>
  120.8720  252.2896  330.7761 H   0  0  0  0  0  0  0  0  0  0  0  0  # atno 3595 bound_to 3586
  121.7828  248.7120  330.6955 H   0  0  0  0  0  0  0  0  0  0  0  0  # atno 3623 bound_to 3607
  123.7385  247.8622  328.8323 H   0  0  0  0  0  0  0  0  0  0  0  0  # atno 3643 bound_to 3636
  124.4086  246.6360  319.5838 H   0  0  0  0  0  0  0  0  0  0  0  0  # atno 4934 bound_to 4929
  122.7048  248.0267  316.4722 H   0  0  0  0  0  0  0  0  0  0  0  0  # atno 4950 bound_to 4945
  107.5906  243.5105  321.2833 H   0  0  0  0  0  0  0  0  0  0  0  0  # atno 5599 bound_to 5589
  114.9812  242.6629  319.7170 H   0  0  0  0  0  0  0  0  0  0  0  0  # atno 8496 bound_to 8486
  114.5887  245.1446  319.7184 H   0  0  0  0  0  0  0  0  0  0  0  0  # atno 8524 bound_to 8508
  112.1732  246.9923  318.7415 H   0  0  0  0  0  0  0  0  0  0  0  0  # atno 8550 bound_to 8539
  110.5063  250.0297  319.4369 H   0  0  0  0  0  0  0  0  0  0  0  0  # atno 8577 bound_to 8563
  109.7714  252.1147  319.3080 H   0  0  0  0  0  0  0  0  0  0  0  0  # atno 8608 bound_to 8591
  111.4726  255.5597  321.0043 H   0  0  0  0  0  0  0  0  0  0  0  0  # atno 8644 bound_to 8625
  115.5104  250.0271  317.2025 H   0  0  0  0  0  0  0  0  0  0  0  0  # atno 9011 bound_to 9000
  119.4236  248.0967  318.0081 H   0  0  0  0  0  0  0  0  0  0  0  0  # atno 9041 bound_to 9035
  120.3264  244.1158  315.8068 H   0  0  0  0  0  0  0  0  0  0  0  0  # atno 9045 bound_to 9040
  120.2473  245.1515  320.0624 H   0  0  0  0  0  0  0  0  0  0  0  0  # atno 9059 bound_to 9055
  122.3042  243.4535  321.8624 H   0  0  0  0  0  0  0  0  0  0  0  0  # atno 9093 bound_to 9079
  123.0430  239.6840  323.4918 H   0  0  0  0  0  0  0  0  0  0  0  0  # atno 9137 bound_to 9125
  114.6387  238.8284  324.4131 H   0  0  0  0  0  0  0  0  0  0  0  0  # atno 9145 bound_to 9136
  122.5677  240.2086  326.4068 H   0  0  0  0  0  0  0  0  0  0  0  0  # atno 9171 bound_to 9163
  122.0899  238.5644  330.0226 H   0  0  0  0  0  0  0  0  0  0  0  0  # atno 9197 bound_to 9193
  118.2104  237.7988  330.7956 H   0  0  0  0  0  0  0  0  0  0  0  0  # atno 9249 bound_to 9240
  116.1581  237.9799  328.9565 H   0  0  0  0  0  0  0  0  0  0  0  0  # atno 9277 bound_to 9269
  104.3152  240.0331  333.1140 H   0  0  0  0  0  0  0  0  0  0  0  0  # atno 9549 bound_to 9544
  126.5596  237.7164  325.9246 H   0  0  0  0  0  0  0  0  0  0  0  0  # atno 11113 bound_to 11106
  112.5105  257.2882  322.5724 H   0  0  0  0  0  0  0  0  0  0  0  0  # atno 12891 bound_to 12882
  109.6434  257.5730  324.8227 H   0  0  0  0  0  0  0  0  0  0  0  0  # atno 12927 bound_to 12915
  111.2964  251.4844  329.3997 H   0  0  0  0  0  0  0  0  0  0  0  0  # atno 12935 bound_to 12926
  106.4672  254.8046  323.9745 H   0  0  0  0  0  0  0  0  0  0  0  0  # atno 12963 bound_to 12954
  118.7146  243.4460  320.5060 LP  0  0  0  0  0  0  0  0  0  0  0  0  # atno 13521 bound_to 8463
  118.0157  244.2538  319.1426 LP  0  0  0  0  0  0  0  0  0  0  0  0  # atno 13522 bound_to 8463
  116.7208  242.7980  319.6263 LP  0  0  0  0  0  0  0  0  0  0  0  0  # atno 13523 bound_to 8486
  115.3248  246.6641  319.2693 LP  0  0  0  0  0  0  0  0  0  0  0  0  # atno 13524 bound_to 8508
  116.0465  247.2838  318.4780 LP  0  0  0  0  0  0  0  0  0  0  0  0  # atno 13525 bound_to 9003
  117.3254  247.1545  319.6389 LP  0  0  0  0  0  0  0  0  0  0  0  0  # atno 13526 bound_to 9003
  120.7548  244.8232  318.4191 LP  0  0  0  0  0  0  0  0  0  0  0  0  # atno 13527 bound_to 9055
  122.2157  242.6146  318.2786 LP  0  0  0  0  0  0  0  0  0  0  0  0  # atno 13528 bound_to 9058
  122.1175  241.3596  319.4683 LP  0  0  0  0  0  0  0  0  0  0  0  0  # atno 13529 bound_to 9058
  123.3873  243.0931  320.5400 LP  0  0  0  0  0  0  0  0  0  0  0  0  # atno 13530 bound_to 9079
  123.1130  242.6336  324.4127 LP  0  0  0  0  0  0  0  0  0  0  0  0  # atno 13531 bound_to 9082
  121.4504  242.7911  323.9533 LP  0  0  0  0  0  0  0  0  0  0  0  0  # atno 13532 bound_to 9082
  121.6535  240.5875  322.9357 LP  0  0  0  0  0  0  0  0  0  0  0  0  # atno 13533 bound_to 9125
  123.8735  238.9012  325.1763 LP  0  0  0  0  0  0  0  0  0  0  0  0  # atno 13534 bound_to 9128
  124.1647  239.2383  326.8501 LP  0  0  0  0  0  0  0  0  0  0  0  0  # atno 13535 bound_to 9128
  114.9351  238.1984  322.9423 LP  0  0  0  0  0  0  0  0  0  0  0  0  # atno 13536 bound_to 9136
  114.9922  239.8147  323.1680 LP  0  0  0  0  0  0  0  0  0  0  0  0  # atno 13537 bound_to 9136
  121.1446  240.9073  327.1418 LP  0  0  0  0  0  0  0  0  0  0  0  0  # atno 13538 bound_to 9163
  119.8412  238.1013  328.9566 LP  0  0  0  0  0  0  0  0  0  0  0  0  # atno 13539 bound_to 9166
  119.9612  239.8185  328.7647 LP  0  0  0  0  0  0  0  0  0  0  0  0  # atno 13540 bound_to 9166
  118.7614  239.4306  331.0923 LP  0  0  0  0  0  0  0  0  0  0  0  0  # atno 13541 bound_to 9240
  124.6874  249.3143  329.0324 LP  0  0  0  0  0  0  0  0  0  0  0  0  # atno 13550 bound_to 3636
  118.2762  247.4216  316.8773 LP  0  0  0  0  0  0  0  0  0  0  0  0  # atno 13551 bound_to 9035
  122.4857  246.4242  318.0520 LP  0  0  0  0  0  0  0  0  0  0  0  0  # atno 13552 bound_to 9038
  121.2345  247.6050  317.8513 LP  0  0  0  0  0  0  0  0  0  0  0  0  # atno 13553 bound_to 9038
  120.0435  237.9884  320.7266 LP  0  0  0  0  0  0  0  0  0  0  0  0  # atno 13554 bound_to 8408
  121.2625  237.5295  319.5848 LP  0  0  0  0  0  0  0  0  0  0  0  0  # atno 13555 bound_to 8408
  115.6900  239.6595  319.3109 LP  0  0  0  0  0  0  0  0  0  0  0  0  # atno 13556 bound_to 8426
  116.1457  239.8468  317.6504 LP  0  0  0  0  0  0  0  0  0  0  0  0  # atno 13557 bound_to 8426
  122.8960  237.8287  328.6565 LP  0  0  0  0  0  0  0  0  0  0  0  0  # atno 13558 bound_to 9193
  125.9310  247.1818  319.7605 LP  0  0  0  0  0  0  0  0  0  0  0  0  # atno 13559 bound_to 4929
  125.6417  245.8246  318.8996 LP  0  0  0  0  0  0  0  0  0  0  0  0  # atno 13560 bound_to 4929
  120.6400  245.6579  316.2205 LP  0  0  0  0  0  0  0  0  0  0  0  0  # atno 13561 bound_to 9040
  119.4697  245.3234  315.1319 LP  0  0  0  0  0  0  0  0  0  0  0  0  # atno 13562 bound_to 9040
  113.3354  244.1925  317.5538 LP  0  0  0  0  0  0  0  0  0  0  0  0  # atno 13563 bound_to 8489
  112.4946  245.1551  318.7228 LP  0  0  0  0  0  0  0  0  0  0  0  0  # atno 13564 bound_to 8489
  113.7788  249.5740  319.0435 LP  0  0  0  0  0  0  0  0  0  0  0  0  # atno 13565 bound_to 8511
  114.1488  248.4260  317.8005 LP  0  0  0  0  0  0  0  0  0  0  0  0  # atno 13566 bound_to 8511
  115.6259  248.5360  316.2983 LP  0  0  0  0  0  0  0  0  0  0  0  0  # atno 13567 bound_to 9000
  111.3746  248.1362  319.7896 LP  0  0  0  0  0  0  0  0  0  0  0  0  # atno 13568 bound_to 8539
  118.1833  250.0354  331.4785 LP  0  0  0  0  0  0  0  0  0  0  0  0  # atno 13573 bound_to 3546
  119.8493  249.5909  331.3145 LP  0  0  0  0  0  0  0  0  0  0  0  0  # atno 13574 bound_to 3546
  110.4974  245.9162  321.0419 LP  0  0  0  0  0  0  0  0  0  0  0  0  # atno 13575 bound_to 5587
  109.8776  247.0133  319.8535 LP  0  0  0  0  0  0  0  0  0  0  0  0  # atno 13576 bound_to 5587
  119.4007  251.9288  329.9045 LP  0  0  0  0  0  0  0  0  0  0  0  0  # atno 13577 bound_to 3586
  123.5181  246.9274  315.3838 LP  0  0  0  0  0  0  0  0  0  0  0  0  # atno 13578 bound_to 4945
  119.4462  248.5856  315.4548 LP  0  0  0  0  0  0  0  0  0  0  0  0  # atno 13579 bound_to 4948
  120.7718  248.6948  316.5642 LP  0  0  0  0  0  0  0  0  0  0  0  0  # atno 13580 bound_to 4948
  110.6474  252.2230  330.6966 LP  0  0  0  0  0  0  0  0  0  0  0  0  # atno 13581 bound_to 12926
  111.9789  252.8422  329.9822 LP  0  0  0  0  0  0  0  0  0  0  0  0  # atno 13582 bound_to 12926
  109.4360  248.7767  318.8601 LP  0  0  0  0  0  0  0  0  0  0  0  0  # atno 13583 bound_to 8563
  110.0530  251.3342  320.8416 LP  0  0  0  0  0  0  0  0  0  0  0  0  # atno 13584 bound_to 8591
  106.0094  243.6214  321.6512 LP  0  0  0  0  0  0  0  0  0  0  0  0  # atno 13585 bound_to 5589
  107.1350  243.7434  322.8280 LP  0  0  0  0  0  0  0  0  0  0  0  0  # atno 13586 bound_to 5589
  107.9658  253.5601  320.6336 LP  0  0  0  0  0  0  0  0  0  0  0  0  # atno 13587 bound_to 8566
  107.1218  252.1630  321.2131 LP  0  0  0  0  0  0  0  0  0  0  0  0  # atno 13588 bound_to 8566
  109.9783  256.6675  322.2865 LP  0  0  0  0  0  0  0  0  0  0  0  0  # atno 13589 bound_to 12885
  110.7118  255.2903  323.0383 LP  0  0  0  0  0  0  0  0  0  0  0  0  # atno 13590 bound_to 12885
  110.4741  256.2721  325.6438 LP  0  0  0  0  0  0  0  0  0  0  0  0  # atno 13591 bound_to 12915
  107.3664  256.2914  323.7745 LP  0  0  0  0  0  0  0  0  0  0  0  0  # atno 13593 bound_to 12954
  103.8957  253.4948  322.8258 LP  0  0  0  0  0  0  0  0  0  0  0  0  # atno 13594 bound_to 12957
  105.0378  253.9472  324.0469 LP  0  0  0  0  0  0  0  0  0  0  0  0  # atno 13595 bound_to 12957
  109.9218  255.1532  320.3034 LP  0  0  0  0  0  0  0  0  0  0  0  0  # atno 13596 bound_to 8625
  107.0721  258.3024  324.8797 LP  0  0  0  0  0  0  0  0  0  0  0  0  # atno 13597 bound_to 12918
  107.8316  258.1933  323.3269 LP  0  0  0  0  0  0  0  0  0  0  0  0  # atno 13598 bound_to 12918
  109.4883  249.6931  316.1139 LP  0  0  0  0  0  0  0  0  0  0  0  0  # atno 13601 bound_to 8542
  108.6596  250.7318  317.2250 LP  0  0  0  0  0  0  0  0  0  0  0  0  # atno 13602 bound_to 8542
  111.1330  254.7393  317.9951 LP  0  0  0  0  0  0  0  0  0  0  0  0  # atno 13603 bound_to 8594
  109.7532  253.7300  318.2735 LP  0  0  0  0  0  0  0  0  0  0  0  0  # atno 13604 bound_to 8594
  113.5642  258.0123  323.7656 LP  0  0  0  0  0  0  0  0  0  0  0  0  # atno 13605 bound_to 12882
  101.6702  241.5045  325.3442 LP  0  0  0  0  0  0  0  0  0  0  0  0  # atno 13616 bound_to 6182
  103.3068  241.9195  325.7307 LP  0  0  0  0  0  0  0  0  0  0  0  0  # atno 13617 bound_to 6182
  109.9050  237.6788  332.5067 LP  0  0  0  0  0  0  0  0  0  0  0  0  # atno 13618 bound_to 9359
  110.4812  236.0776  332.8290 LP  0  0  0  0  0  0  0  0  0  0  0  0  # atno 13619 bound_to 9359
  105.1127  238.8860  333.9485 LP  0  0  0  0  0  0  0  0  0  0  0  0  # atno 13622 bound_to 9544
  104.3394  240.0867  334.7403 LP  0  0  0  0  0  0  0  0  0  0  0  0  # atno 13623 bound_to 9544

> <Gold.Score>
     Fitness  S(hb_ext) S(vdw_ext)  S(hb_int)    S(int)      intcor
     43.88       0.00      33.20       0.00      -1.76      -0.76

> <Gold.Goldscore.Fitness>
43.8834

> <Gold.Goldscore.Internal.Vdw>
-1.6309

> <Gold.Goldscore.Internal.Torsion>
-0.8892

> <Gold.Goldscore.External.Vdw>
33.1963

> <Gold.Goldscore.Internal.HBond>
0.0000

> <Gold.Goldscore.External.HBond>
0.0000

> <Gold.Goldscore.Internal.Correction>
-0.7585

> <Gold.Goldscore.Internal.Vdw.Weighted>
-1.6309

> <Gold.Goldscore.Internal.Torsion.Weighted>
-0.8892

> <Gold.Goldscore.External.Vdw.Weighted>
45.6450

> <Gold.Goldscore.Internal.HBond.Weighted>
0.0000

> <Gold.Goldscore.External.HBond.Weighted>
0.0000

> <Gold.Goldscore.Internal.Correction.Weighted>
-0.7585

> <Gold.Rescore>
     Score     S(PLP)   S(hbond)     S(cho)   S(metal)  DE(clash)   DE(tors)     intcor
     52.83     -48.14       0.42       0.00       1.00       0.00       1.29       ----

> <Gold.PLP.Fitness>
52.8328

> <Gold.PLP.PLP>
-48.1436

> <Gold.PLP.part.hbond>
-2.5192

> <Gold.PLP.part.metal>
-0.9213

> <Gold.PLP.part.buried>
12.5753

> <Gold.PLP.part.nonpolar>
-64.3982

> <Gold.PLP.part.repulsive>
5.1377

> <Gold.PLP.ligand.clash>
0.0000

> <Gold.PLP.ligand.torsion>
1.2912

> <Gold.PLP.Chemscore.Hbond>
0.4239

> <Gold.PLP.Chemscore.CHOScore>
0.0000

> <Gold.PLP.Chemscore.Metal>
1.0000

> <Gold.Chemscore.Hbonds>
donor molecule, donor type, donor heavy atom, donor atom, acceptor molecule, acceptor atom, score
      P1  M 13387 13387       L1    11  0.99

> <Gold.PLP.Chemscore.Internal.Correction>
   9.000000E+99

