#       Name:                CT1002167954
#       Creating user name   hitesit
#       Creation time:       Sun Apr 16 02:24:26 2023


#       File generated by GOLD software.
#

@<TRIPOS>MOLECULE
CT1002167954|ligand_prepared|mol2|1|dock7
    29    30     1
SMALL
NO_CHARGES


@<TRIPOS>ATOM
      1 C1         118.0947 245.7567 324.3601 C.3            1 RES1               0.0000
      2 C2         116.8100 244.9472 324.6300 C.ar           1 RES1               0.0000
      3 C3         119.2592 244.8657 324.7824 C.2            1 RES1               0.0000
      4 C4         118.0796 246.0980 322.8741 C.2            1 RES1               0.0000
      5 C5         118.1768 247.0814 325.1537 C.3            1 RES1               0.0000
      6 C6         116.3647 244.7378 325.9318 C.ar           1 RES1               0.0000
      7 C7         116.0593 244.4068 323.5893 C.ar           1 RES1               0.0000
      8 N8         120.0113 244.2990 323.7960 N.am           1 RES1               0.0000
      9 O9         119.4898 244.6322 325.9625 O.2            1 RES1               0.0000
     10 N10        119.0498 245.5466 322.0788 N.am           1 RES1               0.0000
     11 O11        117.2264 246.8261 322.3819 O.2            1 RES1               0.0000
     12 C12        116.8473 247.8102 325.2694 C.3            1 RES1               0.0000
     13 C13        115.2093 244.0169 326.1840 C.ar           1 RES1               0.0000
     14 C14        114.9043 243.6859 323.8437 C.ar           1 RES1               0.0000
     15 C15        119.9966 244.6382 322.4669 C.2            1 RES1               0.0000
     16 C16        114.4782 243.4909 325.1403 C.ar           1 RES1               0.0000
     17 O17        120.8013 244.1457 321.6814 O.2            1 RES1               0.0000
     18 H18        118.5505 246.8662 326.1624 H              1 RES1               0.0000
     19 H19        118.9006 247.7432 324.6622 H              1 RES1               0.0000
     20 H20        116.9284 245.1420 326.7660 H              1 RES1               0.0000
     21 H21        116.3761 244.5467 322.5613 H              1 RES1               0.0000
     22 H22        120.6431 243.5540 324.0720 H              1 RES1               0.0000
     23 H23        119.0680 245.8408 321.1075 H              1 RES1               0.0000
     24 H24        116.9610 248.7326 325.8352 H              1 RES1               0.0000
     25 H25        116.4586 248.0623 324.2849 H              1 RES1               0.0000
     26 H26        116.1105 247.1904 325.7762 H              1 RES1               0.0000
     27 H27        114.8790 243.8650 327.2063 H              1 RES1               0.0000
     28 H28        114.3323 243.2732 323.0192 H              1 RES1               0.0000
     29 H29        113.5729 242.9265 325.3381 H              1 RES1               0.0000
@<TRIPOS>BOND
    1    1    2 1     
    2    1    3 1     
    3    1    4 1     
    4    1    5 1     
    5    2    6 ar    
    6    2    7 ar    
    7    3    8 1     
    8    3    9 2     
    9    4   10 1     
   10    4   11 2     
   11    5   12 1     
   12    5   18 1     
   13    5   19 1     
   14    6   13 ar    
   15    6   20 1     
   16    7   14 ar    
   17    7   21 1     
   18    8   15 1     
   19    8   22 1     
   20   10   15 1     
   21   10   23 1     
   22   12   24 1     
   23   12   25 1     
   24   12   26 1     
   25   13   16 ar    
   26   13   27 1     
   27   14   16 ar    
   28   14   28 1     
   29   15   17 2     
   30   16   29 1     
@<TRIPOS>SUBSTRUCTURE
      1 RES1           1
@<TRIPOS>SET
DONOR_HYDROGENS      STATIC     ATOMS    <user>   **** ""
2 22 23
ATOM$RED        STATIC     ATOMS    COLORGROUP SYSTEM
2 22 23
@<TRIPOS>COMMENT
> <Gold.Version>
2022.3.0

> <Gold.Id.Protein>
unknown|5uo4_clean|pdb

> <Gold.Protein.RotatedTorsions>
[ 8496 8486 8487 8488 ] final  179.67 input   44.11 | X-H torsion
[ 8524 8508 8509 8510 ] final  105.65 input   97.60 | X-H torsion
[ 9059 9055 9056 9057 ] final   37.47 input   32.84 | X-H torsion
[ 9093 9079 9080 9081 ] final  -38.51 input   37.99 | X-H torsion
[ 9137 9125 9126 9127 ] final  172.91 input   94.90 | X-H torsion
[ 9145 9136 9135 9133 ] final   99.02 input   59.99 | X-H torsion
[ 9171 9163 9164 9165 ] final -135.52 input   93.81 | X-H torsion
[ 9249 9240 9241 9242 ] final  -53.34 input  122.14 | X-H torsion
[ 3643 3636 3637 3638 ] final  167.94 input   81.24 | X-H torsion
[ 9041 9035 9036 9037 ] final -160.21 input   40.99 | X-H torsion
[ 9197 9193 9194 9195 ] final  173.49 input  127.52 | X-H torsion
[ 4934 4929 4928 4925 ] final  -19.20 input   60.01 | X-H torsion
[ 9045 9040 9039 9036 ] final  -94.60 input   60.00 | X-H torsion
[ 9011 9000 9001 9002 ] final   21.36 input   48.35 | X-H torsion
[ 8550 8539 8540 8541 ] final -109.69 input   52.79 | X-H torsion
[ 3595 3586 3587 3588 ] final -117.25 input   78.24 | X-H torsion
[ 4950 4945 4946 4947 ] final -144.14 input   25.62 | X-H torsion
[ 12935 12926 12925 12923 ] final   41.59 input   60.03 | X-H torsion
[ 8577 8563 8564 8565 ] final  171.96 input   67.96 | X-H torsion
[ 8608 8591 8592 8593 ] final -121.72 input   87.41 | X-H torsion
[ 5599 5589 5588 5585 ] final   34.22 input   60.01 | X-H torsion
[ 12927 12915 12916 12917 ] final  102.37 input  110.33 | X-H torsion
[ 12963 12954 12955 12956 ] final  128.31 input   33.30 | X-H torsion
[ 8644 8625 8626 8627 ] final  164.80 input   62.93 | X-H torsion
[ 12891 12882 12883 12884 ] final  170.43 input   63.10 | X-H torsion
[ 9549 9544 9543 9540 ] final    3.78 input   60.00 | X-H torsion
[ 3623 3607 3608 3609 ] final -118.70 input  103.98 | X-H torsion
[ 9277 9269 9270 9271 ] final   34.91 input   95.60 | X-H torsion
[ 11113 11106 11107 11108 ] final  165.41 input   53.77 | X-H torsion
[ 13521 8463 8462 8461 ] final   20.82 input    0.00 | X-H torsion
[ 13525 9003 9002 9001 ] final  -98.81 input    0.00 | X-H torsion
[ 13528 9058 9057 9056 ] final  151.36 input   -0.00 | X-H torsion
[ 13531 9082 9081 9080 ] final -121.53 input   -0.00 | X-H torsion
[ 13534 9128 9127 9126 ] final   17.94 input   -0.00 | X-H torsion
[ 13539 9166 9165 9164 ] final  108.85 input   -0.00 | X-H torsion
[ 13552 9038 9037 9036 ] final   23.05 input    0.00 | X-H torsion
[ 13554 8408 8407 8406 ] final   47.67 input    0.00 | X-H torsion
[ 13556 8426 8425 8424 ] final   45.71 input   -0.00 | X-H torsion
[ 13563 8489 8488 8487 ] final -164.19 input    0.00 | X-H torsion
[ 13565 8511 8510 8509 ] final  -23.80 input    0.00 | X-H torsion
[ 13573 3546 3545 3544 ] final  -57.18 input    0.00 | X-H torsion
[ 13575 5587 5586 5585 ] final -119.25 input   -0.00 | X-H torsion
[ 13579 4948 4947 4946 ] final  160.51 input   -0.00 | X-H torsion
[ 13587 8566 8565 8564 ] final -116.41 input   -0.00 | X-H torsion
[ 13589 12885 12884 12883 ] final -140.36 input   -0.00 | X-H torsion
[ 13594 12957 12956 12955 ] final -130.65 input    0.00 | X-H torsion
[ 13597 12918 12917 12916 ] final  -99.84 input    0.00 | X-H torsion
[ 13601 8542 8541 8540 ] final  -98.77 input    0.00 | X-H torsion
[ 13603 8594 8593 8592 ] final -125.03 input    0.00 | X-H torsion
[ 13616 6182 6181 6180 ] final  -31.20 input   -0.00 | X-H torsion
[ 13618 9359 9358 9357 ] final   24.27 input   -0.00 | X-H torsion

> <Gold.Protein.ActiveResidues>
 TRP311  MET341  HIS342  TRP414  ALA417  ARG419  CYS420  VAL421  GLY422  LEU429 
 LEU460  SER462  ALA463  ILE464  ARG478  SER482  GLN483  ARG486  ALA502  TYR567 
 GLY568  LEU569  PRO570  ALA571  VAL572  SER573  ASN574  MET575  LEU576  PRO588 
 PHE589  SER590  GLY591  TRP592  TYR593  MET594  GLY595  GLU597  ILE598  ARG601 
 ASP602  ASP605  SER607  ARG608  ILE653  VAL654  TRP683  PHE696  HIS697  PHE709 
 GLU710  TYR711  GLN712  PRO713  ASP714  HEM801  H4B802 

> <Gold.Protein.RotatedAtoms>
  119.4982  251.5233  330.5484 H   0  0  0  0  0  0  0  0  0  0  0  0  # atno 3595 bound_to 3586
  122.3014  250.1298  330.6436 H   0  0  0  0  0  0  0  0  0  0  0  0  # atno 3623 bound_to 3607
  123.8782  247.7829  328.9779 H   0  0  0  0  0  0  0  0  0  0  0  0  # atno 3643 bound_to 3636
  124.7496  245.9021  319.0574 H   0  0  0  0  0  0  0  0  0  0  0  0  # atno 4934 bound_to 4929
  123.9423  247.6740  315.6775 H   0  0  0  0  0  0  0  0  0  0  0  0  # atno 4950 bound_to 4945
  107.6606  243.5194  321.3654 H   0  0  0  0  0  0  0  0  0  0  0  0  # atno 5599 bound_to 5589
  116.6132  242.5267  319.2574 H   0  0  0  0  0  0  0  0  0  0  0  0  # atno 8496 bound_to 8486
  115.4807  246.3866  320.0250 H   0  0  0  0  0  0  0  0  0  0  0  0  # atno 8524 bound_to 8508
  112.5036  248.0530  319.2424 H   0  0  0  0  0  0  0  0  0  0  0  0  # atno 8550 bound_to 8539
  109.4277  248.7349  318.9287 H   0  0  0  0  0  0  0  0  0  0  0  0  # atno 8577 bound_to 8563
  109.2163  251.6906  320.6091 H   0  0  0  0  0  0  0  0  0  0  0  0  # atno 8608 bound_to 8591
  109.8038  255.3474  320.5410 H   0  0  0  0  0  0  0  0  0  0  0  0  # atno 8644 bound_to 8625
  115.3992  248.6902  317.3882 H   0  0  0  0  0  0  0  0  0  0  0  0  # atno 9011 bound_to 9000
  117.9836  247.6052  317.5567 H   0  0  0  0  0  0  0  0  0  0  0  0  # atno 9041 bound_to 9035
  119.5612  245.5808  315.2393 H   0  0  0  0  0  0  0  0  0  0  0  0  # atno 9045 bound_to 9040
  120.1958  244.3533  319.7735 H   0  0  0  0  0  0  0  0  0  0  0  0  # atno 9059 bound_to 9055
  122.1109  243.3927  321.6590 H   0  0  0  0  0  0  0  0  0  0  0  0  # atno 9093 bound_to 9079
  121.5588  240.0095  322.8137 H   0  0  0  0  0  0  0  0  0  0  0  0  # atno 9137 bound_to 9125
  114.6638  238.2889  324.1480 H   0  0  0  0  0  0  0  0  0  0  0  0  # atno 9145 bound_to 9136
  122.6816  240.6180  326.4904 H   0  0  0  0  0  0  0  0  0  0  0  0  # atno 9171 bound_to 9163
  123.1238  237.7352  328.9005 H   0  0  0  0  0  0  0  0  0  0  0  0  # atno 9197 bound_to 9193
  117.9493  238.2084  331.5091 H   0  0  0  0  0  0  0  0  0  0  0  0  # atno 9249 bound_to 9240
  117.3411  237.0739  329.8579 H   0  0  0  0  0  0  0  0  0  0  0  0  # atno 9277 bound_to 9269
  105.0959  238.8974  333.7796 H   0  0  0  0  0  0  0  0  0  0  0  0  # atno 9549 bound_to 9544
  126.3190  238.5511  325.7664 H   0  0  0  0  0  0  0  0  0  0  0  0  # atno 11113 bound_to 11106
  113.3488  258.4608  323.3915 H   0  0  0  0  0  0  0  0  0  0  0  0  # atno 12891 bound_to 12882
  109.8117  257.1407  326.0564 H   0  0  0  0  0  0  0  0  0  0  0  0  # atno 12927 bound_to 12915
  111.0742  252.7318  330.7458 H   0  0  0  0  0  0  0  0  0  0  0  0  # atno 12935 bound_to 12926
  107.4293  255.6364  323.1486 H   0  0  0  0  0  0  0  0  0  0  0  0  # atno 12963 bound_to 12954
  118.8796  243.1700  319.9761 LP  0  0  0  0  0  0  0  0  0  0  0  0  # atno 13521 bound_to 8463
  117.8507  244.5298  319.6724 LP  0  0  0  0  0  0  0  0  0  0  0  0  # atno 13522 bound_to 8463
  115.1237  242.9313  320.0760 LP  0  0  0  0  0  0  0  0  0  0  0  0  # atno 13523 bound_to 8486
  114.4519  245.4486  318.9694 LP  0  0  0  0  0  0  0  0  0  0  0  0  # atno 13524 bound_to 8508
  117.1477  247.5663  319.7036 LP  0  0  0  0  0  0  0  0  0  0  0  0  # atno 13525 bound_to 9003
  116.2242  246.8720  318.4132 LP  0  0  0  0  0  0  0  0  0  0  0  0  # atno 13526 bound_to 9003
  120.8045  245.5936  318.6980 LP  0  0  0  0  0  0  0  0  0  0  0  0  # atno 13527 bound_to 9055
  122.7443  241.4499  319.2307 LP  0  0  0  0  0  0  0  0  0  0  0  0  # atno 13528 bound_to 9058
  121.5889  242.5243  318.5161 LP  0  0  0  0  0  0  0  0  0  0  0  0  # atno 13529 bound_to 9058
  123.5764  243.1525  320.7390 LP  0  0  0  0  0  0  0  0  0  0  0  0  # atno 13530 bound_to 9079
  122.8488  242.3784  324.7459 LP  0  0  0  0  0  0  0  0  0  0  0  0  # atno 13531 bound_to 9082
  121.7146  243.0462  323.6201 LP  0  0  0  0  0  0  0  0  0  0  0  0  # atno 13532 bound_to 9082
  123.0999  240.2703  323.5965 LP  0  0  0  0  0  0  0  0  0  0  0  0  # atno 13533 bound_to 9125
  123.9706  239.1038  325.1492 LP  0  0  0  0  0  0  0  0  0  0  0  0  # atno 13534 bound_to 9128
  124.0676  239.0358  326.8772 LP  0  0  0  0  0  0  0  0  0  0  0  0  # atno 13535 bound_to 9128
  115.0440  238.6997  322.6200 LP  0  0  0  0  0  0  0  0  0  0  0  0  # atno 13536 bound_to 9136
  114.8580  239.8566  323.7573 LP  0  0  0  0  0  0  0  0  0  0  0  0  # atno 13537 bound_to 9136
  121.0333  240.5070  327.0600 LP  0  0  0  0  0  0  0  0  0  0  0  0  # atno 13538 bound_to 9163
  119.9121  238.3896  328.2090 LP  0  0  0  0  0  0  0  0  0  0  0  0  # atno 13539 bound_to 9166
  119.8903  239.5301  329.5124 LP  0  0  0  0  0  0  0  0  0  0  0  0  # atno 13540 bound_to 9166
  119.0164  239.0306  330.3956 LP  0  0  0  0  0  0  0  0  0  0  0  0  # atno 13541 bound_to 9240
  124.5502  249.3921  328.8894 LP  0  0  0  0  0  0  0  0  0  0  0  0  # atno 13550 bound_to 3636
  119.6883  247.9036  317.3199 LP  0  0  0  0  0  0  0  0  0  0  0  0  # atno 13551 bound_to 9035
  121.2257  247.5800  317.7848 LP  0  0  0  0  0  0  0  0  0  0  0  0  # atno 13552 bound_to 9038
  122.4946  246.4492  318.1184 LP  0  0  0  0  0  0  0  0  0  0  0  0  # atno 13553 bound_to 9038
  121.2655  237.2362  319.8369 LP  0  0  0  0  0  0  0  0  0  0  0  0  # atno 13554 bound_to 8408
  120.0405  238.2817  320.4744 LP  0  0  0  0  0  0  0  0  0  0  0  0  # atno 13555 bound_to 8408
  115.9671  238.8896  318.4382 LP  0  0  0  0  0  0  0  0  0  0  0  0  # atno 13556 bound_to 8426
  115.8686  240.6168  318.5230 LP  0  0  0  0  0  0  0  0  0  0  0  0  # atno 13557 bound_to 8426
  121.8891  238.6363  329.7494 LP  0  0  0  0  0  0  0  0  0  0  0  0  # atno 13558 bound_to 9193
  124.9758  247.2579  319.9276 LP  0  0  0  0  0  0  0  0  0  0  0  0  # atno 13559 bound_to 4929
  126.2533  246.4880  319.2629 LP  0  0  0  0  0  0  0  0  0  0  0  0  # atno 13560 bound_to 4929
  120.1116  244.0946  315.6079 LP  0  0  0  0  0  0  0  0  0  0  0  0  # atno 13561 bound_to 9040
  120.7691  245.4108  316.3163 LP  0  0  0  0  0  0  0  0  0  0  0  0  # atno 13562 bound_to 9040
  112.5852  245.4430  318.3611 LP  0  0  0  0  0  0  0  0  0  0  0  0  # atno 13563 bound_to 8489
  113.2448  243.9046  317.9155 LP  0  0  0  0  0  0  0  0  0  0  0  0  # atno 13564 bound_to 8489
  114.4955  248.9323  319.1022 LP  0  0  0  0  0  0  0  0  0  0  0  0  # atno 13565 bound_to 8511
  113.4321  249.0677  317.7418 LP  0  0  0  0  0  0  0  0  0  0  0  0  # atno 13566 bound_to 8511
  115.7346  249.8416  316.1169 LP  0  0  0  0  0  0  0  0  0  0  0  0  # atno 13567 bound_to 9000
  111.0490  247.0907  319.2959 LP  0  0  0  0  0  0  0  0  0  0  0  0  # atno 13568 bound_to 8539
  119.1757  250.0018  332.2265 LP  0  0  0  0  0  0  0  0  0  0  0  0  # atno 13573 bound_to 3546
  118.8568  249.6244  330.5664 LP  0  0  0  0  0  0  0  0  0  0  0  0  # atno 13574 bound_to 3546
  110.4555  246.4489  319.6244 LP  0  0  0  0  0  0  0  0  0  0  0  0  # atno 13575 bound_to 5587
  109.9195  246.4806  321.2711 LP  0  0  0  0  0  0  0  0  0  0  0  0  # atno 13576 bound_to 5587
  120.7416  252.6767  330.1266 LP  0  0  0  0  0  0  0  0  0  0  0  0  # atno 13577 bound_to 3586
  122.3111  247.2715  316.1589 LP  0  0  0  0  0  0  0  0  0  0  0  0  # atno 13578 bound_to 4945
  119.7272  249.4169  316.0416 LP  0  0  0  0  0  0  0  0  0  0  0  0  # atno 13579 bound_to 4948
  120.4908  247.8635  315.9774 LP  0  0  0  0  0  0  0  0  0  0  0  0  # atno 13580 bound_to 4948
  112.0592  252.3914  329.4957 LP  0  0  0  0  0  0  0  0  0  0  0  0  # atno 13581 bound_to 12926
  110.7908  251.4180  329.8279 LP  0  0  0  0  0  0  0  0  0  0  0  0  # atno 13582 bound_to 12926
  110.4950  250.0479  319.3591 LP  0  0  0  0  0  0  0  0  0  0  0  0  # atno 13583 bound_to 8563
  110.6026  251.7542  319.5534 LP  0  0  0  0  0  0  0  0  0  0  0  0  # atno 13584 bound_to 8591
  106.0461  243.6057  321.5497 LP  0  0  0  0  0  0  0  0  0  0  0  0  # atno 13585 bound_to 5589
  107.0277  243.7502  322.8467 LP  0  0  0  0  0  0  0  0  0  0  0  0  # atno 13586 bound_to 5589
  107.7395  253.4774  320.3468 LP  0  0  0  0  0  0  0  0  0  0  0  0  # atno 13587 bound_to 8566
  107.3480  252.2458  321.4999 LP  0  0  0  0  0  0  0  0  0  0  0  0  # atno 13588 bound_to 8566
  109.4809  255.9945  322.7173 LP  0  0  0  0  0  0  0  0  0  0  0  0  # atno 13589 bound_to 12885
  111.2092  255.9634  322.6074 LP  0  0  0  0  0  0  0  0  0  0  0  0  # atno 13590 bound_to 12885
  110.3100  256.6935  324.4412 LP  0  0  0  0  0  0  0  0  0  0  0  0  # atno 13591 bound_to 12915
  106.4315  255.4831  324.5770 LP  0  0  0  0  0  0  0  0  0  0  0  0  # atno 13593 bound_to 12954
  103.9364  253.4925  322.7910 LP  0  0  0  0  0  0  0  0  0  0  0  0  # atno 13594 bound_to 12957
  104.9970  253.9496  324.0818 LP  0  0  0  0  0  0  0  0  0  0  0  0  # atno 13595 bound_to 12957
  111.5406  255.3591  320.7529 LP  0  0  0  0  0  0  0  0  0  0  0  0  # atno 13596 bound_to 8625
  106.8139  258.2909  324.6874 LP  0  0  0  0  0  0  0  0  0  0  0  0  # atno 13597 bound_to 12918
  108.0898  258.2048  323.5193 LP  0  0  0  0  0  0  0  0  0  0  0  0  # atno 13598 bound_to 12918
  109.5336  250.9359  316.7938 LP  0  0  0  0  0  0  0  0  0  0  0  0  # atno 13601 bound_to 8542
  108.6144  249.4890  316.5451 LP  0  0  0  0  0  0  0  0  0  0  0  0  # atno 13602 bound_to 8542
  111.2048  254.6277  318.0108 LP  0  0  0  0  0  0  0  0  0  0  0  0  # atno 13603 bound_to 8594
  109.6813  253.8416  318.2578 LP  0  0  0  0  0  0  0  0  0  0  0  0  # atno 13604 bound_to 8594
  112.7496  256.8729  322.9696 LP  0  0  0  0  0  0  0  0  0  0  0  0  # atno 13605 bound_to 12882
  102.3256  241.7887  326.3846 LP  0  0  0  0  0  0  0  0  0  0  0  0  # atno 13616 bound_to 6182
  102.6514  241.6353  324.6904 LP  0  0  0  0  0  0  0  0  0  0  0  0  # atno 13617 bound_to 6182
  110.1953  237.5168  333.2529 LP  0  0  0  0  0  0  0  0  0  0  0  0  # atno 13618 bound_to 9359
  110.1909  236.2396  332.0829 LP  0  0  0  0  0  0  0  0  0  0  0  0  # atno 13619 bound_to 9359
  104.4265  239.9600  334.8145 LP  0  0  0  0  0  0  0  0  0  0  0  0  # atno 13622 bound_to 9544
  104.2398  240.1560  333.2041 LP  0  0  0  0  0  0  0  0  0  0  0  0  # atno 13623 bound_to 9544

> <Gold.Score>
     Fitness  S(hb_ext) S(vdw_ext)  S(hb_int)    S(int)      intcor
     49.64       2.22      37.05       0.00      -3.53      -0.76

> <Gold.Goldscore.Fitness>
49.6372

> <Gold.Goldscore.Internal.Vdw>
-3.2724

> <Gold.Goldscore.Internal.Torsion>
-1.0172

> <Gold.Goldscore.External.Vdw>
37.0499

> <Gold.Goldscore.Internal.HBond>
0.0000

> <Gold.Goldscore.External.HBond>
2.2247

> <Gold.Goldscore.Internal.Correction>
-0.7585

> <Gold.Goldscore.Hbonds>
donor molecule, donor type, donor heavy atom, donor atom, acceptor molecule, acceptor atom, score
      P1  H  8508  8524       L1    11  0.11
      P1  H  9079  9093       L1    17  0.92
      L1  H     8    22       P1  9082  0.08

> <Gold.Goldscore.Internal.Vdw.Weighted>
-3.2724

> <Gold.Goldscore.Internal.Torsion.Weighted>
-1.0172

> <Gold.Goldscore.External.Vdw.Weighted>
50.9437

> <Gold.Goldscore.Internal.HBond.Weighted>
0.0000

> <Gold.Goldscore.External.HBond.Weighted>
2.2247

> <Gold.Goldscore.Internal.Correction.Weighted>
-0.7585

> <Gold.Rescore>
     Score     S(PLP)   S(hbond)     S(cho)   S(metal)  DE(clash)   DE(tors)     intcor
     31.12     -28.94       1.98       0.00       0.00       1.38       1.19       ----

> <Gold.PLP.Fitness>
31.1249

> <Gold.PLP.PLP>
-28.9427

> <Gold.PLP.part.hbond>
-4.6883

> <Gold.PLP.part.metal>
0.0000

> <Gold.PLP.part.buried>
17.1357

> <Gold.PLP.part.nonpolar>
-46.2967

> <Gold.PLP.part.repulsive>
2.9515

> <Gold.PLP.ligand.clash>
1.3805

> <Gold.PLP.ligand.torsion>
1.1936

> <Gold.PLP.Chemscore.Hbond>
1.9833

> <Gold.PLP.Chemscore.CHOScore>
0.0000

> <Gold.PLP.Chemscore.Metal>
0.0000

> <Gold.Chemscore.Hbonds>
donor molecule, donor type, donor heavy atom, donor atom, acceptor molecule, acceptor atom, score
      L1  H     8    22       P1  9082  0.99
      P1  H  9055  9059       L1    17  0.02
      P1  H  9079  9093       L1    17  0.78

> <Gold.PLP.Chemscore.Internal.Correction>
   9.000000E+99

