#       Name:                00000001
#       Creating user name   hitesit
#       Creation time:       Thu Mar  2 16:48:39 2023


#       File generated by GOLD software.
#

@<TRIPOS>MOLECULE
00000001|prep_VS_2|mol2|1|dock5
    43    46     1
SMALL
USER_CHARGES


@<TRIPOS>ATOM
      1 C1         -39.8092 -40.8582   3.9166 C.2            1 noname            -0.0111
      2 C2         -38.5301 -41.0253   4.1951 C.2            1 noname            -0.0624
      3 N1         -37.6871 -41.4957   3.1962 N.am           1 noname             0.0259
      4 C3         -38.0728 -41.2471   1.8133 C.3            1 noname             0.1489
      5 C4         -39.5473 -41.6129   1.6255 C.2            1 noname             0.1550
      6 N2         -40.3386 -41.2821   2.6863 N.am           1 noname            -0.1166
      7 O1         -39.9560 -42.2048   0.6441 O.2            1 noname            -0.2620
      8 C5         -38.0251 -39.7403   1.4817 C.ar           1 noname             0.0167
      9 C6         -36.8630 -38.9971   1.6234 C.ar           1 noname            -0.0133
     10 C7         -36.8995 -37.6510   1.3027 C.ar           1 noname            -0.0379
     11 C8         -38.0762 -37.0891   0.8550 C.ar           1 noname            -0.0260
     12 C9         -39.1815 -37.9037   0.7439 C.ar           1 noname             0.0003
     13 N3         -39.1732 -39.2085   1.0473 N.ar           1 noname            -0.2412
     14 C10        -41.7831 -41.3461   2.5858 C.ar           1 noname            -0.0140
     15 C11        -42.4403 -41.2232   1.3641 C.ar           1 noname            -0.0201
     16 C12        -43.8193 -41.3057   1.2835 C.ar           1 noname            -0.0181
     17 C13        -44.5530 -41.4926   2.4336 C.ar           1 noname            -0.0097
     18 C14        -43.9341 -41.5994   3.6589 C.ar           1 noname            -0.0181
     19 C15        -42.5541 -41.5278   3.7307 C.ar           1 noname            -0.0201
     20 C16        -36.6384 -42.3690   3.3283 C.2            1 noname             0.0697
     21 O2         -36.3300 -42.8978   4.3968 O.2            1 noname            -0.2900
     22 C17        -37.0608 -42.0787   1.0028 C.3            1 noname            -0.0112
     23 C18        -36.3519 -42.9662   1.9890 C.3            1 noname             0.0244
     24 Cl1        -46.2884 -41.5945   2.3370 Cl             1 noname            -0.0849
     25 H1         -40.1092 -37.4646   0.3917 H              1 noname             0.0003
     26 H2         -41.8723 -41.0544   0.4561 H              1 noname            -0.0201
     27 H3         -44.3177 -41.2222   0.3233 H              1 noname            -0.0181
     28 H4         -44.5229 -41.7395   4.5595 H              1 noname            -0.0181
     29 H5         -42.0745 -41.6189   4.6995 H              1 noname            -0.0201
     30 H6         -35.9474 -39.4595   1.9771 H              1 noname            -0.0133
     31 H7         -36.0073 -37.0417   1.4031 H              1 noname            -0.0379
     32 H8         -38.1300 -36.0364   0.5976 H              1 noname            -0.0260
     33 H9         -40.4621 -40.3862   4.6492 H              1 noname            -0.0111
     34 H10        -38.1435 -40.7991   5.1877 H              1 noname            -0.0624
     35 H11        -36.3474 -41.4232   0.5056 H              1 noname            -0.0112
     36 H12        -37.5793 -42.6817   0.2588 H              1 noname            -0.0112
     37 H13        -36.7375 -43.9831   1.9338 H              1 noname             0.0244
     38 H14        -35.2804 -42.9732   1.7952 H              1 noname             0.0244
     39 ****       -39.3197 -42.4718  -0.0797 LP             1 noname             0.0000
     40 ****       -40.9280 -42.4244   0.5614 LP             1 noname             0.0000
     41 ****       -39.9977 -39.7663   0.9521 LP             1 noname             0.0000
     42 ****       -36.8547 -42.6968   5.2240 LP             1 noname             0.0000
     43 ****       -35.5548 -43.5282   4.4372 LP             1 noname             0.0000
@<TRIPOS>BOND
    1    1    2 2     
    2    6    1 1     
    3    2    3 1     
    4    3    4 1     
    5    3   20 am    
    6    4    5 1     
    7    4    8 1     
    8    4   22 1     
    9    5    6 am    
   10    5    7 2     
   11   14    6 1     
   12    8    9 ar    
   13   13    8 ar    
   14    9   10 ar    
   15   10   11 ar    
   16   11   12 ar    
   17   12   13 ar    
   18   14   15 ar    
   19   19   14 ar    
   20   15   16 ar    
   21   16   17 ar    
   22   17   18 ar    
   23   17   24 1     
   24   18   19 ar    
   25   20   21 2     
   26   23   20 1     
   27   22   23 1     
   28   12   25 1     
   29   15   26 1     
   30   16   27 1     
   31   18   28 1     
   32   19   29 1     
   33    9   30 1     
   34   10   31 1     
   35   11   32 1     
   36    1   33 1     
   37    2   34 1     
   38   22   35 1     
   39   22   36 1     
   40   23   37 1     
   41   23   38 1     
   42    7   39 1     
   43    7   40 1     
   44   13   41 1     
   45   21   42 1     
   46   21   43 1     
@<TRIPOS>SUBSTRUCTURE
      1 noname         1
@<TRIPOS>SET
LONE_PAIRS      STATIC     ATOMS    <user>   **** ""
5 39 40 41 42 43
ATOM$BLUE        STATIC     ATOMS    COLORGROUP SYSTEM
5 39 40 41 42 43
@<TRIPOS>COMMENT
> <Gold.Version>
2022.3.0

> <Gold.Id.Protein>
unknown|6c5f_clean|pdb

> <Gold.Protein.ActiveResidues>
 LEU49   SER50   GLN58   ILE95   LEU96   ILE97   ARG98   PRO1    PHE2    LEU3   
 LEU30   LYS32   PRO33   ASP35   ARG36   VAL37   ASN38   ILE61   SER62   SER63  
 ILE64   GLY65   VAL66   VAL67   PHE100  LEU102  GLU103  SER104  TRP105  GLN106 
 ILE107  GLY108  LYS109  ILE110  THR112  VAL113  PRO1    GLN58   PHE2    LEU96  
 LEU30   LYS32   PRO33   PHE2    PRO1    PRO101  LEU102  GLU103  VAL37   ASN38  
 LEU49   SER50   ILE61   SER62   SER63   ILE64   ILE64   GLY65   VAL66   VAL67  
 PRO33   ARG36   VAL37   PRO1    SER104  TRP105  GLN106  ILE107  GLY108  LYS109 
 ILE110  PRO1    PHE2    LEU3    ILE110  VAL113  LEU96   ILE97   ARG98   PHE2   
 PRO1   

> <Gold.Score>
     Score     S(PLP)   S(hbond)     S(cho)   S(metal)  DE(clash)   DE(tors)     intcor
     52.03     -52.11       0.00       0.00       0.00       0.00       0.31       0.54

> <Gold.PLP.Fitness>
52.0333

> <Gold.PLP.PLP>
-52.1138

> <Gold.PLP.part.hbond>
0.0000

> <Gold.PLP.part.metal>
0.0000

> <Gold.PLP.part.buried>
0.3083

> <Gold.PLP.part.nonpolar>
-52.3719

> <Gold.PLP.part.repulsive>
0.1808

> <Gold.PLP.ligand.clash>
0.0000

> <Gold.PLP.ligand.torsion>
0.3085

> <Gold.PLP.Chemscore.Hbond>
0.0000

> <Gold.PLP.Chemscore.CHOScore>
0.0000

> <Gold.PLP.Chemscore.Metal>
0.0000

> <Gold.PLP.Chemscore.Internal.Correction>
0.5365

> <Gold.PLP.Reference.RMSD>
4.4065

> <Gold.Rescore>
     Score         DG    S(hbond)    S(metal)    S(lipo)     H(rot)  DE(clash)    DE(int)     intcor
     20.43     -25.55       0.00        0.00     193.40       1.00       2.09       3.03       ----

> <Gold.Chemscore.Fitness>
20.4335

> <Gold.Chemscore.DG>
-25.5473

> <Gold.Chemscore.ZeroCoef>
-5.4800

> <Gold.Chemscore.Hbond>
0.0000

> <Gold.Chemscore.Metal>
0.0000

> <Gold.Chemscore.Lipo>
193.3960

> <Gold.Chemscore.Internal_Hbond>
0.0000

> <Gold.Chemscore.DEClash>
2.0877

> <Gold.Chemscore.DEInternal>
3.0262

> <Gold.Chemscore.Rot>
1.0000

> <Gold.Chemscore.Internal.Correction>
   9.000000E+99

> <Gold.Chemscore.Reference.RMSD>
0.0000

> <Gold.Chemscore.Hbond.Weighted>
-0.0000

> <Gold.Chemscore.Metal.Weighted>
-0.0000

> <Gold.Chemscore.Lipo.Weighted>
-22.6273

> <Gold.Chemscore.Internal_Hbond.Weighted>
0.0000

> <Gold.Chemscore.DEClash.Weighted>
2.0877

> <Gold.Chemscore.DEInternal.Weighted>
3.0262

> <Gold.Chemscore.Rot.Weighted>
2.5600

> <Gold.Chemscore.Internal.Correction.Weighted>
   9.000000E+99

> <Gold.Reference.RMSD>
4.4065

