#       Name:                00000001
#       Creating user name   hitesit
#       Creation time:       Thu Mar  2 16:48:40 2023


#       File generated by GOLD software.
#

@<TRIPOS>MOLECULE
00000001|prep_VS_2|mol2|1|dock9
    43    46     1
SMALL
USER_CHARGES


@<TRIPOS>ATOM
      1 C1         -39.8661 -40.9996   4.0478 C.2            1 noname            -0.0111
      2 C2         -38.5800 -41.2032   4.2620 C.2            1 noname            -0.0624
      3 N1         -37.8046 -41.7103   3.2270 N.am           1 noname             0.0259
      4 C3         -38.2539 -41.4651   1.8628 C.3            1 noname             0.1489
      5 C4         -39.7466 -41.7872   1.7559 C.2            1 noname             0.1550
      6 N2         -40.4714 -41.4204   2.8519 N.am           1 noname            -0.1166
      7 O1         -40.2235 -42.3769   0.8044 O.2            1 noname            -0.2620
      8 C5         -38.1779 -39.9642   1.5103 C.ar           1 noname             0.0167
      9 C6         -39.0016 -39.3963   0.5502 C.ar           1 noname            -0.0133
     10 C7         -38.8754 -38.0420   0.2924 C.ar           1 noname            -0.0379
     11 C8         -37.9452 -37.2999   0.9888 C.ar           1 noname            -0.0260
     12 C9         -37.1702 -37.9475   1.9257 C.ar           1 noname             0.0003
     13 N3         -37.2722 -39.2559   2.1944 N.ar           1 noname            -0.2412
     14 C10        -41.9203 -41.4407   2.8269 C.ar           1 noname            -0.0140
     15 C11        -42.6789 -40.4216   3.3974 C.ar           1 noname            -0.0201
     16 C12        -44.0617 -40.4471   3.3479 C.ar           1 noname            -0.0181
     17 C13        -44.6962 -41.5081   2.7416 C.ar           1 noname            -0.0097
     18 C14        -43.9749 -42.5402   2.1845 C.ar           1 noname            -0.0181
     19 C15        -42.5923 -42.5024   2.2272 C.ar           1 noname            -0.0201
     20 C16        -36.7774 -42.6141   3.3157 C.2            1 noname             0.0697
     21 O2         -36.4301 -43.1404   4.3734 O.2            1 noname            -0.2900
     22 C17        -37.3111 -42.3364   1.0116 C.3            1 noname            -0.0112
     23 C18        -36.5792 -43.2345   1.9710 C.3            1 noname             0.0244
     24 Cl1        -46.4357 -41.5455   2.6792 Cl             1 noname            -0.0849
     25 H1         -36.4374 -37.3663   2.4756 H              1 noname             0.0003
     26 H2         -42.1886 -39.5930   3.8958 H              1 noname            -0.0201
     27 H3         -44.6403 -39.6396   3.7842 H              1 noname            -0.0181
     28 H4         -44.4858 -43.3747   1.7155 H              1 noname            -0.0181
     29 H5         -42.0319 -43.3169   1.7806 H              1 noname            -0.0201
     30 H6         -39.7274 -39.9987   0.0140 H              1 noname            -0.0133
     31 H7         -39.5047 -37.5675  -0.4533 H              1 noname            -0.0379
     32 H8         -37.8273 -36.2372   0.8046 H              1 noname            -0.0260
     33 H9         -40.4654 -40.4996   4.8071 H              1 noname            -0.0111
     34 H10        -38.1356 -40.9781   5.2305 H              1 noname            -0.0624
     35 H11        -36.6049 -41.7088   0.4701 H              1 noname            -0.0112
     36 H12        -37.8856 -42.9312   0.3030 H              1 noname            -0.0112
     37 H13        -36.9978 -44.2396   1.9485 H              1 noname             0.0244
     38 H14        -35.5199 -43.2768   1.7223 H              1 noname             0.0244
     39 ****       -39.6341 -42.6713   0.0521 LP             1 noname             0.0000
     40 ****       -41.2048 -42.5671   0.7747 LP             1 noname             0.0000
     41 ****       -36.6908 -39.6888   2.8833 LP             1 noname             0.0000
     42 ****       -36.9048 -42.9142   5.2240 LP             1 noname             0.0000
     43 ****       -35.6733 -43.7940   4.3817 LP             1 noname             0.0000
@<TRIPOS>BOND
    1    1    2 2     
    2    6    1 1     
    3    2    3 1     
    4    3    4 1     
    5    3   20 am    
    6    4    5 1     
    7    4    8 1     
    8    4   22 1     
    9    5    6 am    
   10    5    7 2     
   11   14    6 1     
   12    8    9 ar    
   13   13    8 ar    
   14    9   10 ar    
   15   10   11 ar    
   16   11   12 ar    
   17   12   13 ar    
   18   14   15 ar    
   19   19   14 ar    
   20   15   16 ar    
   21   16   17 ar    
   22   17   18 ar    
   23   17   24 1     
   24   18   19 ar    
   25   20   21 2     
   26   23   20 1     
   27   22   23 1     
   28   12   25 1     
   29   15   26 1     
   30   16   27 1     
   31   18   28 1     
   32   19   29 1     
   33    9   30 1     
   34   10   31 1     
   35   11   32 1     
   36    1   33 1     
   37    2   34 1     
   38   22   35 1     
   39   22   36 1     
   40   23   37 1     
   41   23   38 1     
   42    7   39 1     
   43    7   40 1     
   44   13   41 1     
   45   21   42 1     
   46   21   43 1     
@<TRIPOS>SUBSTRUCTURE
      1 noname         1
@<TRIPOS>SET
LONE_PAIRS      STATIC     ATOMS    <user>   **** ""
5 39 40 41 42 43
ATOM$BLUE        STATIC     ATOMS    COLORGROUP SYSTEM
5 39 40 41 42 43
@<TRIPOS>COMMENT
> <Gold.Version>
2022.3.0

> <Gold.Id.Protein>
unknown|6c5f_clean|pdb

> <Gold.Protein.ActiveResidues>
 LEU49   SER50   GLN58   ILE95   LEU96   ILE97   ARG98   PRO1    PHE2    LEU3   
 LEU30   LYS32   PRO33   ASP35   ARG36   VAL37   ASN38   ILE61   SER62   SER63  
 ILE64   GLY65   VAL66   VAL67   PHE100  LEU102  GLU103  SER104  TRP105  GLN106 
 ILE107  GLY108  LYS109  ILE110  THR112  VAL113  PRO1    GLN58   PHE2    LEU96  
 LEU30   LYS32   PRO33   PHE2    PRO1    PRO101  LEU102  GLU103  VAL37   ASN38  
 LEU49   SER50   ILE61   SER62   SER63   ILE64   ILE64   GLY65   VAL66   VAL67  
 PRO33   ARG36   VAL37   PRO1    SER104  TRP105  GLN106  ILE107  GLY108  LYS109 
 ILE110  PRO1    PHE2    LEU3    ILE110  VAL113  LEU96   ILE97   ARG98   PHE2   
 PRO1   

> <Gold.Score>
     Score     S(PLP)   S(hbond)     S(cho)   S(metal)  DE(clash)   DE(tors)     intcor
     51.59     -48.60       0.00       1.97       0.00       0.00       1.73       0.54

> <Gold.PLP.Fitness>
51.5858

> <Gold.PLP.PLP>
-48.5976

> <Gold.PLP.part.hbond>
0.0000

> <Gold.PLP.part.metal>
0.0000

> <Gold.PLP.part.buried>
-0.5459

> <Gold.PLP.part.nonpolar>
-48.0502

> <Gold.PLP.part.repulsive>
0.3622

> <Gold.PLP.ligand.clash>
0.0000

> <Gold.PLP.ligand.torsion>
1.7340

> <Gold.PLP.Chemscore.Hbond>
0.0000

> <Gold.PLP.Chemscore.CHOScore>
1.9732

> <Gold.PLP.Chemscore.Metal>
0.0000

> <Gold.Chemscore.Hbonds>
donor molecule, donor type, donor heavy atom, donor atom, acceptor molecule, acceptor atom, score
      L1  C    12    25       P1  2116  0.98
      L1  C    12    25       P1  2115  1.00

> <Gold.PLP.Chemscore.Internal.Correction>
0.5365

> <Gold.PLP.Reference.RMSD>
4.3730

> <Gold.Rescore>
     Score         DG    S(hbond)    S(metal)    S(lipo)     H(rot)  DE(clash)    DE(int)     intcor
     20.20     -24.41       0.00        0.00     183.64       1.00       1.01       3.19       ----

> <Gold.Chemscore.Fitness>
20.2034

> <Gold.Chemscore.DG>
-24.4057

> <Gold.Chemscore.ZeroCoef>
-5.4800

> <Gold.Chemscore.Hbond>
0.0000

> <Gold.Chemscore.Metal>
0.0000

> <Gold.Chemscore.Lipo>
183.6381

> <Gold.Chemscore.Internal_Hbond>
0.0000

> <Gold.Chemscore.DEClash>
1.0083

> <Gold.Chemscore.DEInternal>
3.1940

> <Gold.Chemscore.Rot>
1.0000

> <Gold.Chemscore.Internal.Correction>
   9.000000E+99

> <Gold.Chemscore.Reference.RMSD>
0.0000

> <Gold.Chemscore.Hbond.Weighted>
-0.0000

> <Gold.Chemscore.Metal.Weighted>
-0.0000

> <Gold.Chemscore.Lipo.Weighted>
-21.4857

> <Gold.Chemscore.Internal_Hbond.Weighted>
0.0000

> <Gold.Chemscore.DEClash.Weighted>
1.0083

> <Gold.Chemscore.DEInternal.Weighted>
3.1940

> <Gold.Chemscore.Rot.Weighted>
2.5600

> <Gold.Chemscore.Internal.Correction.Weighted>
   9.000000E+99

> <Gold.Reference.RMSD>
4.3730

