#       Name:                00000001
#       Creating user name   hitesit
#       Creation time:       Mon Feb 27 15:35:04 2023


#       File generated by GOLD software.
#

@<TRIPOS>MOLECULE
00000001|prep_VS_2|mol2|1|dock4
    43    46     1
SMALL
USER_CHARGES


@<TRIPOS>ATOM
      1 C1         -41.5124 -40.6130  -0.5375 C.2            1 noname            -0.0111
      2 C2         -40.6193 -39.9184  -1.2425 C.2            1 noname            -0.0624
      3 N1         -39.6982 -39.1046  -0.6281 N.am           1 noname             0.0259
      4 C3         -39.5025 -39.1680   0.8334 C.3            1 noname             0.1489
      5 C4         -40.7213 -39.7257   1.5741 C.2            1 noname             0.1550
      6 N2         -41.6096 -40.5147   0.8384 N.am           1 noname            -0.1166
      7 O1         -40.8506 -39.4650   2.7547 O.2            1 noname            -0.2620
      8 C5         -38.3245 -40.1083   1.1382 C.ar           1 noname             0.0167
      9 C6         -37.5533 -40.6645   0.1288 C.ar           1 noname            -0.0133
     10 C7         -36.5076 -41.4994   0.4837 C.ar           1 noname            -0.0379
     11 C8         -36.2613 -41.7539   1.8162 C.ar           1 noname            -0.0260
     12 C9         -37.0782 -41.1571   2.7512 C.ar           1 noname             0.0003
     13 N3         -38.0960 -40.3454   2.4347 N.ar           1 noname            -0.2412
     14 C10        -42.6999 -41.2299   1.4713 C.ar           1 noname            -0.0140
     15 C11        -43.9944 -41.1974   0.9591 C.ar           1 noname            -0.0201
     16 C12        -45.0201 -41.9015   1.5650 C.ar           1 noname            -0.0181
     17 C13        -44.7584 -42.6297   2.7039 C.ar           1 noname            -0.0097
     18 C14        -43.4930 -42.6672   3.2454 C.ar           1 noname            -0.0181
     19 C15        -42.4696 -41.9701   2.6276 C.ar           1 noname            -0.0201
     20 C16        -38.8359 -38.1944  -1.2056 C.2            1 noname             0.0697
     21 O2         -38.7274 -37.9756  -2.4043 O.2            1 noname            -0.2900
     22 C17        -39.1184 -37.6939   1.0649 C.3            1 noname            -0.0112
     23 C18        -38.1035 -37.5366  -0.0633 C.3            1 noname             0.0244
     24 Cl1        -46.0465 -43.5152   3.4709 Cl             1 noname            -0.0849
     25 H1         -36.8869 -41.3552   3.8007 H              1 noname             0.0003
     26 H2         -37.7641 -40.4504  -0.9137 H              1 noname            -0.0133
     27 H3         -38.6945 -37.5047   2.0588 H              1 noname            -0.0112
     28 H4         -39.9816 -37.0325   0.9196 H              1 noname            -0.0112
     29 H5         -37.8746 -36.4827  -0.2635 H              1 noname             0.0244
     30 H6         -37.1607 -38.0528   0.1551 H              1 noname             0.0244
     31 H7         -42.2003 -41.2521  -1.0804 H              1 noname            -0.0111
     32 H8         -40.6328 -39.9826  -2.3255 H              1 noname            -0.0624
     33 H9         -44.2146 -40.6096   0.0751 H              1 noname            -0.0201
     34 H10        -46.0214 -41.8787   1.1474 H              1 noname            -0.0181
     35 H11        -43.2999 -43.2388   4.1473 H              1 noname            -0.0181
     36 H12        -41.4745 -42.0101   3.0578 H              1 noname            -0.0201
     37 H13        -35.8856 -41.9509  -0.2822 H              1 noname            -0.0379
     38 H14        -35.4479 -42.4050   2.1194 H              1 noname            -0.0260
     39 ****       -40.1699 -38.8986   3.2191 LP             1 noname             0.0000
     40 ****       -41.6377 -39.8171   3.2611 LP             1 noname             0.0000
     41 ****       -38.6659 -39.9308   3.1441 LP             1 noname             0.0000
     42 ****       -39.2939 -38.4779  -3.0575 LP             1 noname             0.0000
     43 ****       -38.0722 -37.2944  -2.7309 LP             1 noname             0.0000
@<TRIPOS>BOND
    1    1    2 2     
    2    6    1 1     
    3    2    3 1     
    4    3    4 1     
    5    3   20 am    
    6    4    5 1     
    7    4    8 1     
    8    4   22 1     
    9    5    6 am    
   10    5    7 2     
   11   14    6 1     
   12    8    9 ar    
   13   13    8 ar    
   14    9   10 ar    
   15   10   11 ar    
   16   11   12 ar    
   17   12   13 ar    
   18   14   15 ar    
   19   19   14 ar    
   20   15   16 ar    
   21   16   17 ar    
   22   17   18 ar    
   23   17   24 1     
   24   18   19 ar    
   25   20   21 2     
   26   23   20 1     
   27   22   23 1     
   28   12   25 1     
   29    9   26 1     
   30   22   27 1     
   31   22   28 1     
   32   23   29 1     
   33   23   30 1     
   34    1   31 1     
   35    2   32 1     
   36   15   33 1     
   37   16   34 1     
   38   18   35 1     
   39   19   36 1     
   40   10   37 1     
   41   11   38 1     
   42    7   39 1     
   43    7   40 1     
   44   13   41 1     
   45   21   42 1     
   46   21   43 1     
@<TRIPOS>SUBSTRUCTURE
      1 noname         1
@<TRIPOS>SET
LONE_PAIRS      STATIC     ATOMS    <user>   **** ""
5 39 40 41 42 43
ATOM$BLUE        STATIC     ATOMS    COLORGROUP SYSTEM
5 39 40 41 42 43
@<TRIPOS>COMMENT
> <Gold.Version>
2022.3.0

> <Gold.Id.Protein>
unknown|6c5f_clean|pdb

> <Gold.Protein.ActiveResidues>
 LEU49   SER50   GLN58   ILE95   LEU96   ILE97   ARG98   PRO1    PHE2    LEU3   
 LEU30   LYS32   PRO33   ASP35   ARG36   VAL37   ASN38   ILE61   SER62   SER63  
 ILE64   GLY65   VAL66   VAL67   PHE100  LEU102  GLU103  SER104  TRP105  GLN106 
 ILE107  GLY108  LYS109  ILE110  THR112  VAL113  PHE2    ILE61   SER62   SER63  
 ILE64   PHE2    PRO1    PHE2    PRO1    PHE2    LEU3    LEU96   ILE97   ARG98  
 PHE2    ARG36   VAL37   ASN38   PRO1    PRO1    VAL113  PHE2    LEU30   LYS32  
 PRO33   GLN106  ILE107  GLY108  LYS109  ILE110  ILE64   GLY65   VAL66   VAL67  
 GLN58   PRO1    PRO101  LEU102  GLU103  SER104  TRP105  PHE2    LEU49   SER50  
 PHE2   

> <Gold.Score>
     Fitness  S(hb_ext) S(vdw_ext)  S(hb_int)    S(int)      intcor
     45.12       0.00      33.93       0.00      -1.54      -1.12

> <Gold.Goldscore.Fitness>
45.1160

> <Gold.Goldscore.Internal.Vdw>
0.9867

> <Gold.Goldscore.Internal.Torsion>
-3.6387

> <Gold.Goldscore.External.Vdw>
33.9295

> <Gold.Goldscore.Internal.HBond>
0.0000

> <Gold.Goldscore.External.HBond>
0.0000

> <Gold.Goldscore.Internal.Correction>
-1.1150

> <Gold.Goldscore.Reference.RMSD>
4.2605

> <Gold.Goldscore.Internal.Vdw.Weighted>
0.9867

> <Gold.Goldscore.Internal.Torsion.Weighted>
-3.6387

> <Gold.Goldscore.External.Vdw.Weighted>
46.6530

> <Gold.Goldscore.Internal.HBond.Weighted>
0.0000

> <Gold.Goldscore.External.HBond.Weighted>
0.0000

> <Gold.Goldscore.Internal.Correction.Weighted>
-1.1150

> <Gold.Rescore>
     Score         DG    S(hbond)    S(metal)    S(lipo)     H(rot)  DE(clash)    DE(int)     intcor
     14.98     -21.88       0.00        0.00     162.03       1.00       3.71       3.19       ----

> <Gold.Chemscore.Fitness>
14.9759

> <Gold.Chemscore.DG>
-21.8772

> <Gold.Chemscore.ZeroCoef>
-5.4800

> <Gold.Chemscore.Hbond>
0.0000

> <Gold.Chemscore.Metal>
0.0000

> <Gold.Chemscore.Lipo>
162.0272

> <Gold.Chemscore.Internal_Hbond>
0.0000

> <Gold.Chemscore.DEClash>
3.7089

> <Gold.Chemscore.DEInternal>
3.1923

> <Gold.Chemscore.Rot>
1.0000

> <Gold.Chemscore.Internal.Correction>
   9.000000E+99

> <Gold.Chemscore.Reference.RMSD>
0.0000

> <Gold.Chemscore.Hbond.Weighted>
-0.0000

> <Gold.Chemscore.Metal.Weighted>
-0.0000

> <Gold.Chemscore.Lipo.Weighted>
-18.9572

> <Gold.Chemscore.Internal_Hbond.Weighted>
0.0000

> <Gold.Chemscore.DEClash.Weighted>
3.7089

> <Gold.Chemscore.DEInternal.Weighted>
3.1923

> <Gold.Chemscore.Rot.Weighted>
2.5600

> <Gold.Chemscore.Internal.Correction.Weighted>
   9.000000E+99

> <Gold.Reference.RMSD>
4.2605

