#       Name:                00000001
#       Creating user name   hitesit
#       Creation time:       Mon Feb 27 15:34:59 2023


#       File generated by GOLD software.
#

@<TRIPOS>MOLECULE
00000001
    43    46     1
SMALL
USER_CHARGES


@<TRIPOS>ATOM
      1 C1          -0.8009   1.8285  -0.0147 C.2            1 noname            -0.0111
      2 C2          -1.8445   1.2782   0.6061 C.2            1 noname            -0.0624
      3 N1          -2.0873  -0.0726   0.5384 N.am           1 noname             0.0259
      4 C3          -1.0673  -0.9887  -0.0080 C.3            1 noname             0.1489
      5 C4          -0.0795  -0.2891  -0.9461 C.2            1 noname             0.1550
      6 N2           0.0612   1.0944  -0.8085 N.am           1 noname            -0.1166
      7 O1           0.5335  -0.9649  -1.7498 O.2            1 noname            -0.2620
      8 C5          -0.2455  -1.5701   1.1545 C.ar           1 noname             0.0167
      9 C6          -0.0945  -0.8910   2.3541 C.ar           1 noname            -0.0133
     10 C7           0.6583  -1.4818   3.3545 C.ar           1 noname            -0.0379
     11 C8           1.2320  -2.7163   3.1363 C.ar           1 noname            -0.0260
     12 C9           1.0281  -3.3182   1.9141 C.ar           1 noname             0.0003
     13 N3           0.3043  -2.7687   0.9297 N.ar           1 noname            -0.2412
     14 C10          1.0838   1.8328  -1.5225 C.ar           1 noname            -0.0140
     15 C11          2.3167   1.2652  -1.8341 C.ar           1 noname            -0.0201
     16 C12          3.2749   1.9780  -2.5331 C.ar           1 noname            -0.0181
     17 C13          3.0105   3.2760  -2.9087 C.ar           1 noname            -0.0097
     18 C14          1.8082   3.8718  -2.5997 C.ar           1 noname            -0.0181
     19 C15          0.8501   3.1492  -1.9107 C.ar           1 noname            -0.0201
     20 C16         -3.2014  -0.7673   0.9647 C.2            1 noname             0.0697
     21 O2          -4.1779  -0.2800   1.5174 O.2            1 noname            -0.2900
     22 C17         -2.0197  -2.0428  -0.6044 C.3            1 noname            -0.0112
     23 C18         -2.9614  -2.2067   0.5847 C.3            1 noname             0.0244
     24 Cl1          4.2142   4.1774  -3.7862 Cl             1 noname            -0.0849
     25 H1           1.4781  -4.2899   1.7392 H              1 noname             0.0003
     26 H2          -0.5552   0.0796   2.5050 H              1 noname            -0.0133
     27 H3          -1.5154  -2.9743  -0.8896 H              1 noname            -0.0112
     28 H4          -2.5489  -1.6476  -1.4804 H              1 noname            -0.0112
     29 H5          -3.8861  -2.7265   0.3055 H              1 noname             0.0244
     30 H6          -2.4947  -2.7630   1.4068 H              1 noname             0.0244
     31 H7          -0.6532   2.8976   0.0931 H              1 noname            -0.0111
     32 H8          -2.5270   1.9136   1.1607 H              1 noname            -0.0624
     33 H9           2.5421   0.2511  -1.5238 H              1 noname            -0.0201
     34 H10          4.2262   1.5189  -2.7815 H              1 noname            -0.0181
     35 H11          1.6135   4.8977  -2.8947 H              1 noname            -0.0181
     36 H12         -0.0966   3.6245  -1.6767 H              1 noname            -0.0201
     37 H13          0.7960  -0.9762   4.3046 H              1 noname            -0.0379
     38 H14          1.8265  -3.1996   3.9047 H              1 noname            -0.0260
     39 ****         0.3867  -1.9534  -1.7870 LP             1 noname             0.0000
     40 ****         1.1844  -0.5322  -2.3736 LP             1 noname             0.0000
     41 ****         0.1792  -3.2388   0.0560 LP             1 noname             0.0000
     42 ****        -4.2130   0.7035   1.6950 LP             1 noname             0.0000
     43 ****        -4.9411  -0.8651   1.7916 LP             1 noname             0.0000
@<TRIPOS>BOND
    1    1    2 2     
    2    6    1 1     
    3    2    3 1     
    4    3    4 1     
    5    3   20 am    
    6    4    5 1     
    7    4    8 1     
    8    4   22 1     
    9    5    6 am    
   10    5    7 2     
   11   14    6 1     
   12    8    9 ar    
   13   13    8 ar    
   14    9   10 ar    
   15   10   11 ar    
   16   11   12 ar    
   17   12   13 ar    
   18   14   15 ar    
   19   19   14 ar    
   20   15   16 ar    
   21   16   17 ar    
   22   17   18 ar    
   23   17   24 1     
   24   18   19 ar    
   25   20   21 2     
   26   23   20 1     
   27   22   23 1     
   28   12   25 1     
   29    9   26 1     
   30   22   27 1     
   31   22   28 1     
   32   23   29 1     
   33   23   30 1     
   34    1   31 1     
   35    2   32 1     
   36   15   33 1     
   37   16   34 1     
   38   18   35 1     
   39   19   36 1     
   40   10   37 1     
   41   11   38 1     
   42    7   39 1     
   43    7   40 1     
   44   13   41 1     
   45   21   42 1     
   46   21   43 1     
@<TRIPOS>SUBSTRUCTURE
      1 noname         1
@<TRIPOS>SET
LONE_PAIRS      STATIC     ATOMS    <user>   **** ""
5 39 40 41 42 43
ATOM$BLUE        STATIC     ATOMS    COLORGROUP SYSTEM
5 39 40 41 42 43
