#       Name:                plp ligand
#       Creating user name   hitesit
#       Creation time:       Thu Mar  2 16:48:37 2023


#       File generated by GOLD software.
#

@<TRIPOS>MOLECULE
plp ligand
    43    46     1
SMALL
USER_CHARGES


@<TRIPOS>ATOM
      1 C1          -0.4929   1.5996   0.5815 NONPOLAR       1 noname            -0.0111
      2 C2          -1.5736   1.1390   1.1827 NONPOLAR       1 noname            -0.0624
      3 N1          -2.0977  -0.0791   0.7690 NONPOLAR       1 noname             0.0259
      4 C3          -1.1866  -1.0311   0.1473 NONPOLAR       1 noname             0.1489
      5 C4          -0.3439  -0.3101  -0.9079 NONPOLAR       1 noname             0.1550
      6 N2           0.0340   0.9501  -0.5473 NONPOLAR       1 noname            -0.1166
      7 O1          -0.0947  -0.7990  -1.9939 ACCEPTOR       1 noname            -0.2620
      8 C5          -0.1415  -1.5475   1.1591 NONPOLAR       1 noname             0.0167
      9 C6          -0.2308  -1.2605   2.5128 NONPOLAR       1 noname            -0.0133
     10 C7           0.7441  -1.7626   3.3577 NONPOLAR       1 noname            -0.0379
     11 C8           1.7673  -2.5272   2.8387 NONPOLAR       1 noname            -0.0260
     12 C9           1.7754  -2.7626   1.4814 NONPOLAR       1 noname             0.0003
     13 N3           0.8448  -2.2890   0.6422 ACCEPTOR       1 noname            -0.2412
     14 C10          1.0177   1.6819  -1.3202 NONPOLAR       1 noname            -0.0140
     15 C11          2.2489   2.0489  -0.7826 NONPOLAR       1 noname            -0.0201
     16 C12          3.1845   2.7309  -1.5406 NONPOLAR       1 noname            -0.0181
     17 C13          2.8835   3.0685  -2.8411 NONPOLAR       1 noname            -0.0097
     18 C14          1.6679   2.7362  -3.3959 NONPOLAR       1 noname            -0.0181
     19 C15          0.7417   2.0439  -2.6359 NONPOLAR       1 noname            -0.0201
     20 C16         -3.4191  -0.4286   0.6611 NONPOLAR       1 noname             0.0697
     21 O2          -4.3449   0.3500   0.8916 ACCEPTOR       1 noname            -0.2900
     22 C17         -2.1232  -2.1369  -0.3748 NONPOLAR       1 noname            -0.0112
     23 C18         -3.5228  -1.5966  -0.2649 NONPOLAR       1 noname             0.0244
     24 Cl1          4.0567   3.9288  -3.7976 NONPOLAR       1 noname            -0.0849
     25 H1           2.5792  -3.3641   1.0698                1 noname             0.0003
     26 H2           2.4863   1.8063   0.2471                1 noname            -0.0201
     27 H3           4.1454   2.9986  -1.1136                1 noname            -0.0181
     28 H4           1.4389   3.0136  -4.4196                1 noname            -0.0181
     29 H5          -0.2112   1.7809  -3.0829                1 noname            -0.0201
     30 H6          -1.0449  -0.6570   2.9004                1 noname            -0.0133
     31 H7           0.7032  -1.5557   4.4220                1 noname            -0.0379
     32 H8           2.5431  -2.9317   3.4804                1 noname            -0.0260
     33 H9          -0.0038   2.4938   0.9648                1 noname            -0.0111
     34 H10         -2.0448   1.7024   1.9868                1 noname            -0.0624
     35 H11         -2.0182  -3.0360   0.2305                1 noname            -0.0112
     36 H12         -1.8898  -2.3688  -1.4129                1 noname            -0.0112
     37 H13         -3.8876  -1.2793  -1.2407                1 noname             0.0244
     38 H14         -4.1924  -2.3510   0.1453                1 noname             0.0244
     39 ****        -0.4447  -1.7065  -2.2259                1 noname             0.0000
     40 ****         0.4602  -0.2932  -2.6545                1 noname             0.0000
     41 ****         0.8860  -2.4832  -0.3379                1 noname             0.0000
     42 ****        -4.1497   1.2895   1.1731                1 noname             0.0000
     43 ****        -5.2918   0.0428   0.7973                1 noname             0.0000
@<TRIPOS>BOND
    1    1    2 2     
    2    6    1 1     
    3    2    3 1     
    4    3    4 1     
    5    3   20 am    
    6    4    5 1     
    7    4    8 1     
    8    4   22 1     
    9    5    6 am    
   10    5    7 2     
   11   14    6 1     
   12    8    9 ar    
   13   13    8 ar    
   14    9   10 ar    
   15   10   11 ar    
   16   11   12 ar    
   17   12   13 ar    
   18   14   15 ar    
   19   19   14 ar    
   20   15   16 ar    
   21   16   17 ar    
   22   17   18 ar    
   23   17   24 1     
   24   18   19 ar    
   25   20   21 2     
   26   23   20 1     
   27   22   23 1     
   28   12   25 1     
   29   15   26 1     
   30   16   27 1     
   31   18   28 1     
   32   19   29 1     
   33    9   30 1     
   34   10   31 1     
   35   11   32 1     
   36    1   33 1     
   37    2   34 1     
   38   22   35 1     
   39   22   36 1     
   40   23   37 1     
   41   23   38 1     
   42    7   39 1     
   43    7   40 1     
   44   13   41 1     
   45   21   42 1     
   46   21   43 1     
@<TRIPOS>SUBSTRUCTURE
      1 noname         1
@<TRIPOS>SET
LONE_PAIRS      STATIC     ATOMS    <user>   **** ""
5 39 40 41 42 43
DONOR_HYDROGENS      STATIC     ATOMS    <user>   **** ""
0
ATOM$BLUE        STATIC     ATOMS    COLORGROUP SYSTEM
5 39 40 41 42 43
ATOM$RED        STATIC     ATOMS    COLORGROUP SYSTEM
0
