#       Name:                00000001
#       Creating user name   hitesit
#       Creation time:       Thu Mar  2 16:48:39 2023


#       File generated by GOLD software.
#

@<TRIPOS>MOLECULE
00000001|prep_VS_2|mol2|1|dock7
    43    46     1
SMALL
USER_CHARGES


@<TRIPOS>ATOM
      1 C1         -39.7049 -40.9200   3.8518 C.2            1 noname            -0.0111
      2 C2         -38.4215 -41.0862   4.1100 C.2            1 noname            -0.0624
      3 N1         -37.5876 -41.5217   3.0880 N.am           1 noname             0.0259
      4 C3         -37.9916 -41.2361   1.7176 C.3            1 noname             0.1489
      5 C4         -39.4658 -41.6068   1.5369 C.2            1 noname             0.1550
      6 N2         -40.2464 -41.3121   2.6161 N.am           1 noname            -0.1166
      7 O1         -39.8824 -42.1730   0.5437 O.2            1 noname            -0.2620
      8 C5         -37.9580 -39.7201   1.4290 C.ar           1 noname             0.0167
      9 C6         -36.8066 -38.9678   1.6058 C.ar           1 noname            -0.0133
     10 C7         -36.8553 -37.6137   1.3226 C.ar           1 noname            -0.0379
     11 C8         -38.0332 -37.0531   0.8764 C.ar           1 noname            -0.0260
     12 C9         -39.1273 -37.8770   0.7287 C.ar           1 noname             0.0003
     13 N3         -39.1071 -39.1897   0.9954 N.ar           1 noname            -0.2412
     14 C10        -41.6915 -41.3832   2.5311 C.ar           1 noname            -0.0140
     15 C11        -42.3625 -41.2597   1.3170 C.ar           1 noname            -0.0201
     16 C12        -43.7419 -41.3491   1.2510 C.ar           1 noname            -0.0181
     17 C13        -44.4621 -41.5437   2.4083 C.ar           1 noname            -0.0097
     18 C14        -43.8295 -41.6514   3.6265 C.ar           1 noname            -0.0181
     19 C15        -42.4491 -41.5728   3.6836 C.ar           1 noname            -0.0201
     20 C16        -36.5315 -42.3911   3.1823 C.2            1 noname             0.0697
     21 O2         -36.2067 -42.9482   4.2314 O.2            1 noname            -0.2900
     22 C17        -36.9840 -42.0370   0.8713 C.3            1 noname            -0.0112
     23 C18        -36.2573 -42.9475   1.8230 C.3            1 noname             0.0244
     24 Cl1        -46.1979 -41.6543   2.3302 Cl             1 noname            -0.0849
     25 H1         -40.0558 -37.4390   0.3775 H              1 noname             0.0003
     26 H2         -41.8054 -41.0849   0.4035 H              1 noname            -0.0201
     27 H3         -44.2512 -41.2650   0.2966 H              1 noname            -0.0181
     28 H4         -44.4077 -41.7976   4.5329 H              1 noname            -0.0181
     29 H5         -41.9585 -41.6647   4.6469 H              1 noname            -0.0201
     30 H6         -35.8898 -39.4293   1.9577 H              1 noname            -0.0133
     31 H7         -35.9718 -36.9971   1.4511 H              1 noname            -0.0379
     32 H8         -38.0965 -35.9942   0.6480 H              1 noname            -0.0260
     33 H9         -40.3520 -40.4738   4.6054 H              1 noname            -0.0111
     34 H10        -38.0244 -40.8859   5.1041 H              1 noname            -0.0624
     35 H11        -36.2810 -41.3625   0.3848 H              1 noname            -0.0112
     36 H12        -37.5075 -42.6220   0.1166 H              1 noname            -0.0112
     37 H13        -36.6368 -43.9651   1.7431 H              1 noname             0.0244
     38 H14        -35.1882 -42.9414   1.6163 H              1 noname             0.0244
     39 ****       -39.2532 -42.4146  -0.1950 LP             1 noname             0.0000
     40 ****       -40.8539 -42.3969   0.4663 LP             1 noname             0.0000
     41 ****       -39.9236 -39.7541   0.8745 LP             1 noname             0.0000
     42 ****       -36.7226 -42.7747   5.0702 LP             1 noname             0.0000
     43 ****       -35.4269 -43.5741   4.2444 LP             1 noname             0.0000
@<TRIPOS>BOND
    1    1    2 2     
    2    6    1 1     
    3    2    3 1     
    4    3    4 1     
    5    3   20 am    
    6    4    5 1     
    7    4    8 1     
    8    4   22 1     
    9    5    6 am    
   10    5    7 2     
   11   14    6 1     
   12    8    9 ar    
   13   13    8 ar    
   14    9   10 ar    
   15   10   11 ar    
   16   11   12 ar    
   17   12   13 ar    
   18   14   15 ar    
   19   19   14 ar    
   20   15   16 ar    
   21   16   17 ar    
   22   17   18 ar    
   23   17   24 1     
   24   18   19 ar    
   25   20   21 2     
   26   23   20 1     
   27   22   23 1     
   28   12   25 1     
   29   15   26 1     
   30   16   27 1     
   31   18   28 1     
   32   19   29 1     
   33    9   30 1     
   34   10   31 1     
   35   11   32 1     
   36    1   33 1     
   37    2   34 1     
   38   22   35 1     
   39   22   36 1     
   40   23   37 1     
   41   23   38 1     
   42    7   39 1     
   43    7   40 1     
   44   13   41 1     
   45   21   42 1     
   46   21   43 1     
@<TRIPOS>SUBSTRUCTURE
      1 noname         1
@<TRIPOS>SET
LONE_PAIRS      STATIC     ATOMS    <user>   **** ""
5 39 40 41 42 43
ATOM$BLUE        STATIC     ATOMS    COLORGROUP SYSTEM
5 39 40 41 42 43
@<TRIPOS>COMMENT
> <Gold.Version>
2022.3.0

> <Gold.Id.Protein>
unknown|6c5f_clean|pdb

> <Gold.Protein.ActiveResidues>
 LEU49   SER50   GLN58   ILE95   LEU96   ILE97   ARG98   PRO1    PHE2    LEU3   
 LEU30   LYS32   PRO33   ASP35   ARG36   VAL37   ASN38   ILE61   SER62   SER63  
 ILE64   GLY65   VAL66   VAL67   PHE100  LEU102  GLU103  SER104  TRP105  GLN106 
 ILE107  GLY108  LYS109  ILE110  THR112  VAL113  PRO1    GLN58   PHE2    LEU96  
 LEU30   LYS32   PRO33   PHE2    PRO1    PRO101  LEU102  GLU103  VAL37   ASN38  
 LEU49   SER50   ILE61   SER62   SER63   ILE64   ILE64   GLY65   VAL66   VAL67  
 PRO33   ARG36   VAL37   PRO1    SER104  TRP105  GLN106  ILE107  GLY108  LYS109 
 ILE110  PRO1    PHE2    LEU3    ILE110  VAL113  LEU96   ILE97   ARG98   PHE2   
 PRO1   

> <Gold.Score>
     Score     S(PLP)   S(hbond)     S(cho)   S(metal)  DE(clash)   DE(tors)     intcor
     52.15     -52.21       0.00       0.00       0.00       0.00       0.30       0.54

> <Gold.PLP.Fitness>
52.1507

> <Gold.PLP.PLP>
-52.2128

> <Gold.PLP.part.hbond>
0.0000

> <Gold.PLP.part.metal>
0.0000

> <Gold.PLP.part.buried>
0.5688

> <Gold.PLP.part.nonpolar>
-53.2964

> <Gold.PLP.part.repulsive>
0.1857

> <Gold.PLP.ligand.clash>
0.0000

> <Gold.PLP.ligand.torsion>
0.2993

> <Gold.PLP.Chemscore.Hbond>
0.0000

> <Gold.PLP.Chemscore.CHOScore>
0.0000

> <Gold.PLP.Chemscore.Metal>
0.0000

> <Gold.PLP.Chemscore.Internal.Correction>
0.5365

> <Gold.PLP.Reference.RMSD>
4.4199

> <Gold.Rescore>
     Score         DG    S(hbond)    S(metal)    S(lipo)     H(rot)  DE(clash)    DE(int)     intcor
     21.28     -25.93       0.00        0.00     196.66       1.00       1.57       3.08       ----

> <Gold.Chemscore.Fitness>
21.2788

> <Gold.Chemscore.DG>
-25.9298

> <Gold.Chemscore.ZeroCoef>
-5.4800

> <Gold.Chemscore.Hbond>
0.0000

> <Gold.Chemscore.Metal>
0.0000

> <Gold.Chemscore.Lipo>
196.6647

> <Gold.Chemscore.Internal_Hbond>
0.0000

> <Gold.Chemscore.DEClash>
1.5745

> <Gold.Chemscore.DEInternal>
3.0764

> <Gold.Chemscore.Rot>
1.0000

> <Gold.Chemscore.Internal.Correction>
   9.000000E+99

> <Gold.Chemscore.Reference.RMSD>
0.0000

> <Gold.Chemscore.Hbond.Weighted>
-0.0000

> <Gold.Chemscore.Metal.Weighted>
-0.0000

> <Gold.Chemscore.Lipo.Weighted>
-23.0098

> <Gold.Chemscore.Internal_Hbond.Weighted>
0.0000

> <Gold.Chemscore.DEClash.Weighted>
1.5745

> <Gold.Chemscore.DEInternal.Weighted>
3.0764

> <Gold.Chemscore.Rot.Weighted>
2.5600

> <Gold.Chemscore.Internal.Correction.Weighted>
   9.000000E+99

> <Gold.Reference.RMSD>
4.4199

#       Name:                00000001
#       Creating user name   hitesit
#       Creation time:       Thu Mar  2 16:48:39 2023


#       File generated by GOLD software.
#

@<TRIPOS>MOLECULE
00000001|prep_VS_2|mol2|1|dock5
    43    46     1
SMALL
USER_CHARGES


@<TRIPOS>ATOM
      1 C1         -39.8092 -40.8582   3.9166 C.2            1 noname            -0.0111
      2 C2         -38.5301 -41.0253   4.1951 C.2            1 noname            -0.0624
      3 N1         -37.6871 -41.4957   3.1962 N.am           1 noname             0.0259
      4 C3         -38.0728 -41.2471   1.8133 C.3            1 noname             0.1489
      5 C4         -39.5473 -41.6129   1.6255 C.2            1 noname             0.1550
      6 N2         -40.3386 -41.2821   2.6863 N.am           1 noname            -0.1166
      7 O1         -39.9560 -42.2048   0.6441 O.2            1 noname            -0.2620
      8 C5         -38.0251 -39.7403   1.4817 C.ar           1 noname             0.0167
      9 C6         -36.8630 -38.9971   1.6234 C.ar           1 noname            -0.0133
     10 C7         -36.8995 -37.6510   1.3027 C.ar           1 noname            -0.0379
     11 C8         -38.0762 -37.0891   0.8550 C.ar           1 noname            -0.0260
     12 C9         -39.1815 -37.9037   0.7439 C.ar           1 noname             0.0003
     13 N3         -39.1732 -39.2085   1.0473 N.ar           1 noname            -0.2412
     14 C10        -41.7831 -41.3461   2.5858 C.ar           1 noname            -0.0140
     15 C11        -42.4403 -41.2232   1.3641 C.ar           1 noname            -0.0201
     16 C12        -43.8193 -41.3057   1.2835 C.ar           1 noname            -0.0181
     17 C13        -44.5530 -41.4926   2.4336 C.ar           1 noname            -0.0097
     18 C14        -43.9341 -41.5994   3.6589 C.ar           1 noname            -0.0181
     19 C15        -42.5541 -41.5278   3.7307 C.ar           1 noname            -0.0201
     20 C16        -36.6384 -42.3690   3.3283 C.2            1 noname             0.0697
     21 O2         -36.3300 -42.8978   4.3968 O.2            1 noname            -0.2900
     22 C17        -37.0608 -42.0787   1.0028 C.3            1 noname            -0.0112
     23 C18        -36.3519 -42.9662   1.9890 C.3            1 noname             0.0244
     24 Cl1        -46.2884 -41.5945   2.3370 Cl             1 noname            -0.0849
     25 H1         -40.1092 -37.4646   0.3917 H              1 noname             0.0003
     26 H2         -41.8723 -41.0544   0.4561 H              1 noname            -0.0201
     27 H3         -44.3177 -41.2222   0.3233 H              1 noname            -0.0181
     28 H4         -44.5229 -41.7395   4.5595 H              1 noname            -0.0181
     29 H5         -42.0745 -41.6189   4.6995 H              1 noname            -0.0201
     30 H6         -35.9474 -39.4595   1.9771 H              1 noname            -0.0133
     31 H7         -36.0073 -37.0417   1.4031 H              1 noname            -0.0379
     32 H8         -38.1300 -36.0364   0.5976 H              1 noname            -0.0260
     33 H9         -40.4621 -40.3862   4.6492 H              1 noname            -0.0111
     34 H10        -38.1435 -40.7991   5.1877 H              1 noname            -0.0624
     35 H11        -36.3474 -41.4232   0.5056 H              1 noname            -0.0112
     36 H12        -37.5793 -42.6817   0.2588 H              1 noname            -0.0112
     37 H13        -36.7375 -43.9831   1.9338 H              1 noname             0.0244
     38 H14        -35.2804 -42.9732   1.7952 H              1 noname             0.0244
     39 ****       -39.3197 -42.4718  -0.0797 LP             1 noname             0.0000
     40 ****       -40.9280 -42.4244   0.5614 LP             1 noname             0.0000
     41 ****       -39.9977 -39.7663   0.9521 LP             1 noname             0.0000
     42 ****       -36.8547 -42.6968   5.2240 LP             1 noname             0.0000
     43 ****       -35.5548 -43.5282   4.4372 LP             1 noname             0.0000
@<TRIPOS>BOND
    1    1    2 2     
    2    6    1 1     
    3    2    3 1     
    4    3    4 1     
    5    3   20 am    
    6    4    5 1     
    7    4    8 1     
    8    4   22 1     
    9    5    6 am    
   10    5    7 2     
   11   14    6 1     
   12    8    9 ar    
   13   13    8 ar    
   14    9   10 ar    
   15   10   11 ar    
   16   11   12 ar    
   17   12   13 ar    
   18   14   15 ar    
   19   19   14 ar    
   20   15   16 ar    
   21   16   17 ar    
   22   17   18 ar    
   23   17   24 1     
   24   18   19 ar    
   25   20   21 2     
   26   23   20 1     
   27   22   23 1     
   28   12   25 1     
   29   15   26 1     
   30   16   27 1     
   31   18   28 1     
   32   19   29 1     
   33    9   30 1     
   34   10   31 1     
   35   11   32 1     
   36    1   33 1     
   37    2   34 1     
   38   22   35 1     
   39   22   36 1     
   40   23   37 1     
   41   23   38 1     
   42    7   39 1     
   43    7   40 1     
   44   13   41 1     
   45   21   42 1     
   46   21   43 1     
@<TRIPOS>SUBSTRUCTURE
      1 noname         1
@<TRIPOS>SET
LONE_PAIRS      STATIC     ATOMS    <user>   **** ""
5 39 40 41 42 43
ATOM$BLUE        STATIC     ATOMS    COLORGROUP SYSTEM
5 39 40 41 42 43
@<TRIPOS>COMMENT
> <Gold.Version>
2022.3.0

> <Gold.Id.Protein>
unknown|6c5f_clean|pdb

> <Gold.Protein.ActiveResidues>
 LEU49   SER50   GLN58   ILE95   LEU96   ILE97   ARG98   PRO1    PHE2    LEU3   
 LEU30   LYS32   PRO33   ASP35   ARG36   VAL37   ASN38   ILE61   SER62   SER63  
 ILE64   GLY65   VAL66   VAL67   PHE100  LEU102  GLU103  SER104  TRP105  GLN106 
 ILE107  GLY108  LYS109  ILE110  THR112  VAL113  PRO1    GLN58   PHE2    LEU96  
 LEU30   LYS32   PRO33   PHE2    PRO1    PRO101  LEU102  GLU103  VAL37   ASN38  
 LEU49   SER50   ILE61   SER62   SER63   ILE64   ILE64   GLY65   VAL66   VAL67  
 PRO33   ARG36   VAL37   PRO1    SER104  TRP105  GLN106  ILE107  GLY108  LYS109 
 ILE110  PRO1    PHE2    LEU3    ILE110  VAL113  LEU96   ILE97   ARG98   PHE2   
 PRO1   

> <Gold.Score>
     Score     S(PLP)   S(hbond)     S(cho)   S(metal)  DE(clash)   DE(tors)     intcor
     52.03     -52.11       0.00       0.00       0.00       0.00       0.31       0.54

> <Gold.PLP.Fitness>
52.0333

> <Gold.PLP.PLP>
-52.1138

> <Gold.PLP.part.hbond>
0.0000

> <Gold.PLP.part.metal>
0.0000

> <Gold.PLP.part.buried>
0.3083

> <Gold.PLP.part.nonpolar>
-52.3719

> <Gold.PLP.part.repulsive>
0.1808

> <Gold.PLP.ligand.clash>
0.0000

> <Gold.PLP.ligand.torsion>
0.3085

> <Gold.PLP.Chemscore.Hbond>
0.0000

> <Gold.PLP.Chemscore.CHOScore>
0.0000

> <Gold.PLP.Chemscore.Metal>
0.0000

> <Gold.PLP.Chemscore.Internal.Correction>
0.5365

> <Gold.PLP.Reference.RMSD>
4.4065

> <Gold.Rescore>
     Score         DG    S(hbond)    S(metal)    S(lipo)     H(rot)  DE(clash)    DE(int)     intcor
     20.43     -25.55       0.00        0.00     193.40       1.00       2.09       3.03       ----

> <Gold.Chemscore.Fitness>
20.4335

> <Gold.Chemscore.DG>
-25.5473

> <Gold.Chemscore.ZeroCoef>
-5.4800

> <Gold.Chemscore.Hbond>
0.0000

> <Gold.Chemscore.Metal>
0.0000

> <Gold.Chemscore.Lipo>
193.3960

> <Gold.Chemscore.Internal_Hbond>
0.0000

> <Gold.Chemscore.DEClash>
2.0877

> <Gold.Chemscore.DEInternal>
3.0262

> <Gold.Chemscore.Rot>
1.0000

> <Gold.Chemscore.Internal.Correction>
   9.000000E+99

> <Gold.Chemscore.Reference.RMSD>
0.0000

> <Gold.Chemscore.Hbond.Weighted>
-0.0000

> <Gold.Chemscore.Metal.Weighted>
-0.0000

> <Gold.Chemscore.Lipo.Weighted>
-22.6273

> <Gold.Chemscore.Internal_Hbond.Weighted>
0.0000

> <Gold.Chemscore.DEClash.Weighted>
2.0877

> <Gold.Chemscore.DEInternal.Weighted>
3.0262

> <Gold.Chemscore.Rot.Weighted>
2.5600

> <Gold.Chemscore.Internal.Correction.Weighted>
   9.000000E+99

> <Gold.Reference.RMSD>
4.4065

#       Name:                00000001
#       Creating user name   hitesit
#       Creation time:       Thu Mar  2 16:48:38 2023


#       File generated by GOLD software.
#

@<TRIPOS>MOLECULE
00000001|prep_VS_2|mol2|1|dock3
    43    46     1
SMALL
USER_CHARGES


@<TRIPOS>ATOM
      1 C1         -39.9641 -41.0060   3.9162 C.2            1 noname            -0.0111
      2 C2         -38.6830 -41.1931   4.1720 C.2            1 noname            -0.0624
      3 N1         -37.8645 -41.6727   3.1572 N.am           1 noname             0.0259
      4 C3         -38.2703 -41.4139   1.7820 C.3            1 noname             0.1489
      5 C4         -39.7531 -41.7572   1.6187 C.2            1 noname             0.1550
      6 N2         -40.5210 -41.4181   2.6940 N.am           1 noname            -0.1166
      7 O1         -40.1875 -42.3398   0.6427 O.2            1 noname            -0.2620
      8 C5         -38.2058 -39.9070   1.4541 C.ar           1 noname             0.0167
      9 C6         -39.0373 -39.3289   0.5068 C.ar           1 noname            -0.0133
     10 C7         -38.9213 -37.9698   0.2710 C.ar           1 noname            -0.0379
     11 C8         -37.9934 -37.2329   0.9759 C.ar           1 noname            -0.0260
     12 C9         -37.2102 -37.8906   1.8988 C.ar           1 noname             0.0003
     13 N3         -37.3022 -39.2040   2.1462 N.ar           1 noname            -0.2412
     14 C10        -41.9677 -41.4602   2.6184 C.ar           1 noname            -0.0140
     15 C11        -42.7553 -41.6937   3.7430 C.ar           1 noname            -0.0201
     16 C12        -44.1363 -41.7117   3.6567 C.ar           1 noname            -0.0181
     17 C13        -44.7390 -41.5149   2.4344 C.ar           1 noname            -0.0097
     18 C14        -43.9878 -41.2998   1.3007 C.ar           1 noname            -0.0181
     19 C15        -42.6077 -41.2714   1.3965 C.ar           1 noname            -0.0201
     20 C16        -36.8268 -42.5619   3.2685 C.2            1 noname             0.0697
     21 O2         -36.5079 -43.0987   4.3299 O.2            1 noname            -0.2900
     22 C17        -37.2850 -42.2579   0.9515 C.3            1 noname            -0.0112
     23 C18        -36.5725 -43.1591   1.9227 C.3            1 noname             0.0244
     24 Cl1        -46.4762 -41.5393   2.3207 Cl             1 noname            -0.0849
     25 H1         -36.4790 -37.3135   2.4553 H              1 noname             0.0003
     26 H2         -42.2890 -41.8710   4.7057 H              1 noname            -0.0201
     27 H3         -44.7383 -41.8810   4.5433 H              1 noname            -0.0181
     28 H4         -44.4734 -41.1530   0.3416 H              1 noname            -0.0181
     29 H5         -42.0238 -41.0954   0.4992 H              1 noname            -0.0201
     30 H6         -39.7612 -39.9273  -0.0364 H              1 noname            -0.0133
     31 H7         -39.5569 -37.4873  -0.4642 H              1 noname            -0.0379
     32 H8         -37.8834 -36.1665   0.8088 H              1 noname            -0.0260
     33 H9         -40.5970 -40.5267   4.6614 H              1 noname            -0.0111
     34 H10        -38.2759 -40.9758   5.1584 H              1 noname            -0.0624
     35 H11        -36.5706 -41.6116   0.4440 H              1 noname            -0.0112
     36 H12        -37.8253 -42.8508   0.2149 H              1 noname            -0.0112
     37 H13        -36.9742 -44.1700   1.8712 H              1 noname             0.0244
     38 H14        -35.5047 -43.1814   1.7103 H              1 noname             0.0244
     39 ****       -39.5679 -42.6138  -0.0928 LP             1 noname             0.0000
     40 ****       -41.1640 -42.5445   0.5762 LP             1 noname             0.0000
     41 ****       -36.7151 -39.6442   2.8255 LP             1 noname             0.0000
     42 ****       -37.0152 -42.8926   5.1667 LP             1 noname             0.0000
     43 ****       -35.7416 -43.7407   4.3551 LP             1 noname             0.0000
@<TRIPOS>BOND
    1    1    2 2     
    2    6    1 1     
    3    2    3 1     
    4    3    4 1     
    5    3   20 am    
    6    4    5 1     
    7    4    8 1     
    8    4   22 1     
    9    5    6 am    
   10    5    7 2     
   11   14    6 1     
   12    8    9 ar    
   13   13    8 ar    
   14    9   10 ar    
   15   10   11 ar    
   16   11   12 ar    
   17   12   13 ar    
   18   14   15 ar    
   19   19   14 ar    
   20   15   16 ar    
   21   16   17 ar    
   22   17   18 ar    
   23   17   24 1     
   24   18   19 ar    
   25   20   21 2     
   26   23   20 1     
   27   22   23 1     
   28   12   25 1     
   29   15   26 1     
   30   16   27 1     
   31   18   28 1     
   32   19   29 1     
   33    9   30 1     
   34   10   31 1     
   35   11   32 1     
   36    1   33 1     
   37    2   34 1     
   38   22   35 1     
   39   22   36 1     
   40   23   37 1     
   41   23   38 1     
   42    7   39 1     
   43    7   40 1     
   44   13   41 1     
   45   21   42 1     
   46   21   43 1     
@<TRIPOS>SUBSTRUCTURE
      1 noname         1
@<TRIPOS>SET
LONE_PAIRS      STATIC     ATOMS    <user>   **** ""
5 39 40 41 42 43
ATOM$BLUE        STATIC     ATOMS    COLORGROUP SYSTEM
5 39 40 41 42 43
@<TRIPOS>COMMENT
> <Gold.Version>
2022.3.0

> <Gold.Id.Protein>
unknown|6c5f_clean|pdb

> <Gold.Protein.ActiveResidues>
 LEU49   SER50   GLN58   ILE95   LEU96   ILE97   ARG98   PRO1    PHE2    LEU3   
 LEU30   LYS32   PRO33   ASP35   ARG36   VAL37   ASN38   ILE61   SER62   SER63  
 ILE64   GLY65   VAL66   VAL67   PHE100  LEU102  GLU103  SER104  TRP105  GLN106 
 ILE107  GLY108  LYS109  ILE110  THR112  VAL113  PRO1    GLN58   PHE2    LEU96  
 LEU30   LYS32   PRO33   PHE2    PRO1    PRO101  LEU102  GLU103  VAL37   ASN38  
 LEU49   SER50   ILE61   SER62   SER63   ILE64   ILE64   GLY65   VAL66   VAL67  
 PRO33   ARG36   VAL37   PRO1    SER104  TRP105  GLN106  ILE107  GLY108  LYS109 
 ILE110  PRO1    PHE2    LEU3    ILE110  VAL113  LEU96   ILE97   ARG98   PHE2   
 PRO1   

> <Gold.Score>
     Score     S(PLP)   S(hbond)     S(cho)   S(metal)  DE(clash)   DE(tors)     intcor
     51.84     -48.16       0.00       2.00       0.00       0.00       1.43       0.56

> <Gold.PLP.Fitness>
51.8437

> <Gold.PLP.PLP>
-48.1558

> <Gold.PLP.part.hbond>
0.0000

> <Gold.PLP.part.metal>
0.0000

> <Gold.PLP.part.buried>
0.0421

> <Gold.PLP.part.nonpolar>
-49.0096

> <Gold.PLP.part.repulsive>
0.3664

> <Gold.PLP.ligand.clash>
0.0000

> <Gold.PLP.ligand.torsion>
1.4347

> <Gold.PLP.Chemscore.Hbond>
0.0000

> <Gold.PLP.Chemscore.CHOScore>
1.9979

> <Gold.PLP.Chemscore.Metal>
0.0000

> <Gold.Chemscore.Hbonds>
donor molecule, donor type, donor heavy atom, donor atom, acceptor molecule, acceptor atom, score
      L1  C    12    25       P1  2116  1.00
      L1  C    12    25       P1  2115  1.00

> <Gold.PLP.Chemscore.Internal.Correction>
0.5636

> <Gold.PLP.Reference.RMSD>
4.3344

> <Gold.Rescore>
     Score         DG    S(hbond)    S(metal)    S(lipo)     H(rot)  DE(clash)    DE(int)     intcor
     21.45     -24.77       0.00        0.00     186.77       1.00       0.44       2.89       ----

> <Gold.Chemscore.Fitness>
21.4460

> <Gold.Chemscore.DG>
-24.7717

> <Gold.Chemscore.ZeroCoef>
-5.4800

> <Gold.Chemscore.Hbond>
0.0000

> <Gold.Chemscore.Metal>
0.0000

> <Gold.Chemscore.Lipo>
186.7663

> <Gold.Chemscore.Internal_Hbond>
0.0000

> <Gold.Chemscore.DEClash>
0.4399

> <Gold.Chemscore.DEInternal>
2.8857

> <Gold.Chemscore.Rot>
1.0000

> <Gold.Chemscore.Internal.Correction>
   9.000000E+99

> <Gold.Chemscore.Reference.RMSD>
0.0000

> <Gold.Chemscore.Hbond.Weighted>
-0.0000

> <Gold.Chemscore.Metal.Weighted>
-0.0000

> <Gold.Chemscore.Lipo.Weighted>
-21.8517

> <Gold.Chemscore.Internal_Hbond.Weighted>
0.0000

> <Gold.Chemscore.DEClash.Weighted>
0.4399

> <Gold.Chemscore.DEInternal.Weighted>
2.8857

> <Gold.Chemscore.Rot.Weighted>
2.5600

> <Gold.Chemscore.Internal.Correction.Weighted>
   9.000000E+99

> <Gold.Reference.RMSD>
4.3344

#       Name:                00000001
#       Creating user name   hitesit
#       Creation time:       Thu Mar  2 16:48:38 2023


#       File generated by GOLD software.
#

@<TRIPOS>MOLECULE
00000001|prep_VS_2|mol2|1|dock4
    43    46     1
SMALL
USER_CHARGES


@<TRIPOS>ATOM
      1 C1         -39.9214 -41.0170   3.9232 C.2            1 noname            -0.0111
      2 C2         -38.6413 -41.1950   4.1899 C.2            1 noname            -0.0624
      3 N1         -37.8111 -41.6706   3.1828 N.am           1 noname             0.0259
      4 C3         -38.2071 -41.4167   1.8038 C.3            1 noname             0.1489
      5 C4         -39.6862 -41.7702   1.6287 C.2            1 noname             0.1550
      6 N2         -40.4653 -41.4347   2.6971 N.am           1 noname            -0.1166
      7 O1         -40.1085 -42.3572   0.6501 O.2            1 noname            -0.2620
      8 C5         -38.1502 -39.9098   1.4741 C.ar           1 noname             0.0167
      9 C6         -38.9985 -39.3332   0.5410 C.ar           1 noname            -0.0133
     10 C7         -38.8882 -37.9741   0.3025 C.ar           1 noname            -0.0379
     11 C8         -37.9492 -37.2357   0.9910 C.ar           1 noname            -0.0260
     12 C9         -37.1495 -37.8920   1.9007 C.ar           1 noname             0.0003
     13 N3         -37.2357 -39.2053   2.1503 N.ar           1 noname            -0.2412
     14 C10        -41.9110 -41.4867   2.6095 C.ar           1 noname            -0.0140
     15 C11        -42.7045 -41.7612   3.7206 C.ar           1 noname            -0.0201
     16 C12        -44.0847 -41.7883   3.6234 C.ar           1 noname            -0.0181
     17 C13        -44.6804 -41.5593   2.4034 C.ar           1 noname            -0.0097
     18 C14        -43.9229 -41.3032   1.2823 C.ar           1 noname            -0.0181
     19 C15        -42.5438 -41.2660   1.3892 C.ar           1 noname            -0.0201
     20 C16        -36.7684 -42.5526   3.3041 C.2            1 noname             0.0697
     21 O2         -36.4547 -43.0856   4.3690 O.2            1 noname            -0.2900
     22 C17        -37.2093 -42.2552   0.9829 C.3            1 noname            -0.0112
     23 C18        -36.4988 -43.1500   1.9614 C.3            1 noname             0.0244
     24 Cl1        -46.4164 -41.5948   2.2761 Cl             1 noname            -0.0849
     25 H1         -36.4096 -37.3137   2.4444 H              1 noname             0.0003
     26 H2         -42.2437 -41.9640   4.6808 H              1 noname            -0.0201
     27 H3         -44.6916 -41.9898   4.5000 H              1 noname            -0.0181
     28 H4         -44.4030 -41.1311   0.3246 H              1 noname            -0.0181
     29 H5         -41.9551 -41.0576   0.5021 H              1 noname            -0.0201
     30 H6         -39.7309 -39.9328   0.0105 H              1 noname            -0.0133
     31 H7         -39.5368 -37.4927  -0.4219 H              1 noname            -0.0379
     32 H8         -37.8434 -36.1692   0.8215 H              1 noname            -0.0260
     33 H9         -40.5638 -40.5409   4.6624 H              1 noname            -0.0111
     34 H10        -38.2439 -40.9735   5.1794 H              1 noname            -0.0624
     35 H11        -36.4950 -41.6047   0.4804 H              1 noname            -0.0112
     36 H12        -37.7394 -42.8528   0.2428 H              1 noname            -0.0112
     37 H13        -36.8932 -44.1637   1.9081 H              1 noname             0.0244
     38 H14        -35.4292 -43.1654   1.7579 H              1 noname             0.0244
     39 ****       -39.4809 -42.6281  -0.0798 LP             1 noname             0.0000
     40 ****       -41.0830 -42.5687   0.5758 LP             1 noname             0.0000
     41 ****       -36.6365 -39.6444   2.8197 LP             1 noname             0.0000
     42 ****       -36.9703 -42.8817   5.2012 LP             1 noname             0.0000
     43 ****       -35.6844 -43.7224   4.4015 LP             1 noname             0.0000
@<TRIPOS>BOND
    1    1    2 2     
    2    6    1 1     
    3    2    3 1     
    4    3    4 1     
    5    3   20 am    
    6    4    5 1     
    7    4    8 1     
    8    4   22 1     
    9    5    6 am    
   10    5    7 2     
   11   14    6 1     
   12    8    9 ar    
   13   13    8 ar    
   14    9   10 ar    
   15   10   11 ar    
   16   11   12 ar    
   17   12   13 ar    
   18   14   15 ar    
   19   19   14 ar    
   20   15   16 ar    
   21   16   17 ar    
   22   17   18 ar    
   23   17   24 1     
   24   18   19 ar    
   25   20   21 2     
   26   23   20 1     
   27   22   23 1     
   28   12   25 1     
   29   15   26 1     
   30   16   27 1     
   31   18   28 1     
   32   19   29 1     
   33    9   30 1     
   34   10   31 1     
   35   11   32 1     
   36    1   33 1     
   37    2   34 1     
   38   22   35 1     
   39   22   36 1     
   40   23   37 1     
   41   23   38 1     
   42    7   39 1     
   43    7   40 1     
   44   13   41 1     
   45   21   42 1     
   46   21   43 1     
@<TRIPOS>SUBSTRUCTURE
      1 noname         1
@<TRIPOS>SET
LONE_PAIRS      STATIC     ATOMS    <user>   **** ""
5 39 40 41 42 43
ATOM$BLUE        STATIC     ATOMS    COLORGROUP SYSTEM
5 39 40 41 42 43
@<TRIPOS>COMMENT
> <Gold.Version>
2022.3.0

> <Gold.Id.Protein>
unknown|6c5f_clean|pdb

> <Gold.Protein.ActiveResidues>
 LEU49   SER50   GLN58   ILE95   LEU96   ILE97   ARG98   PRO1    PHE2    LEU3   
 LEU30   LYS32   PRO33   ASP35   ARG36   VAL37   ASN38   ILE61   SER62   SER63  
 ILE64   GLY65   VAL66   VAL67   PHE100  LEU102  GLU103  SER104  TRP105  GLN106 
 ILE107  GLY108  LYS109  ILE110  THR112  VAL113  PRO1    GLN58   PHE2    LEU96  
 LEU30   LYS32   PRO33   PHE2    PRO1    PRO101  LEU102  GLU103  VAL37   ASN38  
 LEU49   SER50   ILE61   SER62   SER63   ILE64   ILE64   GLY65   VAL66   VAL67  
 PRO33   ARG36   VAL37   PRO1    SER104  TRP105  GLN106  ILE107  GLY108  LYS109 
 ILE110  PRO1    PHE2    LEU3    ILE110  VAL113  LEU96   ILE97   ARG98   PHE2   
 PRO1   

> <Gold.Score>
     Score     S(PLP)   S(hbond)     S(cho)   S(metal)  DE(clash)   DE(tors)     intcor
     51.83     -48.37       0.00       1.95       0.00       0.00       1.48       0.56

> <Gold.PLP.Fitness>
51.8292

> <Gold.PLP.PLP>
-48.3653

> <Gold.PLP.part.hbond>
0.0000

> <Gold.PLP.part.metal>
0.0000

> <Gold.PLP.part.buried>
0.0217

> <Gold.PLP.part.nonpolar>
-48.9854

> <Gold.PLP.part.repulsive>
0.3764

> <Gold.PLP.ligand.clash>
0.0000

> <Gold.PLP.ligand.torsion>
1.4777

> <Gold.PLP.Chemscore.Hbond>
0.0000

> <Gold.PLP.Chemscore.CHOScore>
1.9519

> <Gold.PLP.Chemscore.Metal>
0.0000

> <Gold.Chemscore.Hbonds>
donor molecule, donor type, donor heavy atom, donor atom, acceptor molecule, acceptor atom, score
      L1  C    12    25       P1  2116  0.95
      L1  C    12    25       P1  2115  1.00

> <Gold.PLP.Chemscore.Internal.Correction>
0.5636

> <Gold.PLP.Reference.RMSD>
4.3472

> <Gold.Rescore>
     Score         DG    S(hbond)    S(metal)    S(lipo)     H(rot)  DE(clash)    DE(int)     intcor
     21.61     -24.70       0.00        0.00     186.20       1.00       0.28       2.81       ----

> <Gold.Chemscore.Fitness>
21.6102

> <Gold.Chemscore.DG>
-24.7049

> <Gold.Chemscore.ZeroCoef>
-5.4800

> <Gold.Chemscore.Hbond>
0.0000

> <Gold.Chemscore.Metal>
0.0000

> <Gold.Chemscore.Lipo>
186.1957

> <Gold.Chemscore.Internal_Hbond>
0.0000

> <Gold.Chemscore.DEClash>
0.2846

> <Gold.Chemscore.DEInternal>
2.8100

> <Gold.Chemscore.Rot>
1.0000

> <Gold.Chemscore.Internal.Correction>
   9.000000E+99

> <Gold.Chemscore.Reference.RMSD>
0.0000

> <Gold.Chemscore.Hbond.Weighted>
-0.0000

> <Gold.Chemscore.Metal.Weighted>
-0.0000

> <Gold.Chemscore.Lipo.Weighted>
-21.7849

> <Gold.Chemscore.Internal_Hbond.Weighted>
0.0000

> <Gold.Chemscore.DEClash.Weighted>
0.2846

> <Gold.Chemscore.DEInternal.Weighted>
2.8100

> <Gold.Chemscore.Rot.Weighted>
2.5600

> <Gold.Chemscore.Internal.Correction.Weighted>
   9.000000E+99

> <Gold.Reference.RMSD>
4.3472

#       Name:                00000001
#       Creating user name   hitesit
#       Creation time:       Thu Mar  2 16:48:38 2023


#       File generated by GOLD software.
#

@<TRIPOS>MOLECULE
00000001|prep_VS_2|mol2|1|dock2
    43    46     1
SMALL
USER_CHARGES


@<TRIPOS>ATOM
      1 C1         -39.8815 -41.0025   3.9195 C.2            1 noname            -0.0111
      2 C2         -38.6010 -41.1770   4.1866 C.2            1 noname            -0.0624
      3 N1         -37.7690 -41.6486   3.1792 N.am           1 noname             0.0259
      4 C3         -38.1650 -41.3939   1.8004 C.3            1 noname             0.1489
      5 C4         -39.6430 -41.7517   1.6240 C.2            1 noname             0.1550
      6 N2         -40.4236 -41.4200   2.6925 N.am           1 noname            -0.1166
      7 O1         -40.0630 -42.3385   0.6444 O.2            1 noname            -0.2620
      8 C5         -38.1125 -39.8864   1.4729 C.ar           1 noname             0.0167
      9 C6         -38.9577 -39.3122   0.5355 C.ar           1 noname            -0.0133
     10 C7         -38.8517 -37.9523   0.2993 C.ar           1 noname            -0.0379
     11 C8         -37.9199 -37.2109   0.9943 C.ar           1 noname            -0.0260
     12 C9         -37.1228 -37.8650   1.9078 C.ar           1 noname             0.0003
     13 N3         -37.2049 -39.1789   2.1553 N.ar           1 noname            -0.2412
     14 C10        -41.8691 -41.4762   2.6041 C.ar           1 noname            -0.0140
     15 C11        -42.6624 -41.7525   3.7149 C.ar           1 noname            -0.0201
     16 C12        -44.0425 -41.7836   3.6171 C.ar           1 noname            -0.0181
     17 C13        -44.6381 -41.5569   2.3965 C.ar           1 noname            -0.0097
     18 C14        -43.8808 -41.2993   1.2758 C.ar           1 noname            -0.0181
     19 C15        -42.5019 -41.2580   1.3834 C.ar           1 noname            -0.0201
     20 C16        -36.7236 -42.5277   3.2997 C.2            1 noname             0.0697
     21 O2         -36.4089 -43.0613   4.3639 O.2            1 noname            -0.2900
     22 C17        -37.1643 -42.2282   0.9787 C.3            1 noname            -0.0112
     23 C18        -36.4516 -43.1223   1.9562 C.3            1 noname             0.0244
     24 Cl1        -46.3740 -41.5976   2.2683 Cl             1 noname            -0.0849
     25 H1         -36.3885 -37.2843   2.4565 H              1 noname             0.0003
     26 H2         -42.2015 -41.9535   4.6755 H              1 noname            -0.0201
     27 H3         -44.6493 -41.9864   4.4934 H              1 noname            -0.0181
     28 H4         -44.3608 -41.1291   0.3177 H              1 noname            -0.0181
     29 H5         -41.9132 -41.0484   0.4965 H              1 noname            -0.0201
     30 H6         -39.6845 -39.9141  -0.0000 H              1 noname            -0.0133
     31 H7         -39.4981 -37.4727  -0.4283 H              1 noname            -0.0379
     32 H8         -37.8176 -36.1438   0.8267 H              1 noname            -0.0260
     33 H9         -40.5257 -40.5293   4.6590 H              1 noname            -0.0111
     34 H10        -38.2048 -40.9558   5.1766 H              1 noname            -0.0624
     35 H11        -36.4518 -41.5749   0.4775 H              1 noname            -0.0112
     36 H12        -37.6922 -42.8263   0.2374 H              1 noname            -0.0112
     37 H13        -36.8429 -44.1371   1.9013 H              1 noname             0.0244
     38 H14        -35.3819 -43.1342   1.7533 H              1 noname             0.0244
     39 ****       -39.4343 -42.6065  -0.0857 LP             1 noname             0.0000
     40 ****       -41.0369 -42.5528   0.5692 LP             1 noname             0.0000
     41 ****       -36.6078 -39.6164   2.8276 LP             1 noname             0.0000
     42 ****       -36.9255 -42.8601   5.1962 LP             1 noname             0.0000
     43 ****       -35.6366 -43.6958   4.3959 LP             1 noname             0.0000
@<TRIPOS>BOND
    1    1    2 2     
    2    6    1 1     
    3    2    3 1     
    4    3    4 1     
    5    3   20 am    
    6    4    5 1     
    7    4    8 1     
    8    4   22 1     
    9    5    6 am    
   10    5    7 2     
   11   14    6 1     
   12    8    9 ar    
   13   13    8 ar    
   14    9   10 ar    
   15   10   11 ar    
   16   11   12 ar    
   17   12   13 ar    
   18   14   15 ar    
   19   19   14 ar    
   20   15   16 ar    
   21   16   17 ar    
   22   17   18 ar    
   23   17   24 1     
   24   18   19 ar    
   25   20   21 2     
   26   23   20 1     
   27   22   23 1     
   28   12   25 1     
   29   15   26 1     
   30   16   27 1     
   31   18   28 1     
   32   19   29 1     
   33    9   30 1     
   34   10   31 1     
   35   11   32 1     
   36    1   33 1     
   37    2   34 1     
   38   22   35 1     
   39   22   36 1     
   40   23   37 1     
   41   23   38 1     
   42    7   39 1     
   43    7   40 1     
   44   13   41 1     
   45   21   42 1     
   46   21   43 1     
@<TRIPOS>SUBSTRUCTURE
      1 noname         1
@<TRIPOS>SET
LONE_PAIRS      STATIC     ATOMS    <user>   **** ""
5 39 40 41 42 43
ATOM$BLUE        STATIC     ATOMS    COLORGROUP SYSTEM
5 39 40 41 42 43
@<TRIPOS>COMMENT
> <Gold.Version>
2022.3.0

> <Gold.Id.Protein>
unknown|6c5f_clean|pdb

> <Gold.Protein.ActiveResidues>
 LEU49   SER50   GLN58   ILE95   LEU96   ILE97   ARG98   PRO1    PHE2    LEU3   
 LEU30   LYS32   PRO33   ASP35   ARG36   VAL37   ASN38   ILE61   SER62   SER63  
 ILE64   GLY65   VAL66   VAL67   PHE100  LEU102  GLU103  SER104  TRP105  GLN106 
 ILE107  GLY108  LYS109  ILE110  THR112  VAL113  PRO1    GLN58   PHE2    LEU96  
 LEU30   LYS32   PRO33   PHE2    PRO1    PRO101  LEU102  GLU103  VAL37   ASN38  
 LEU49   SER50   ILE61   SER62   SER63   ILE64   ILE64   GLY65   VAL66   VAL67  
 PRO33   ARG36   VAL37   PRO1    SER104  TRP105  GLN106  ILE107  GLY108  LYS109 
 ILE110  PRO1    PHE2    LEU3    ILE110  VAL113  LEU96   ILE97   ARG98   PHE2   
 PRO1   

> <Gold.Score>
     Score     S(PLP)   S(hbond)     S(cho)   S(metal)  DE(clash)   DE(tors)     intcor
     51.83     -48.37       0.00       1.95       0.00       0.00       1.48       0.56

> <Gold.PLP.Fitness>
51.8251

> <Gold.PLP.PLP>
-48.3704

> <Gold.PLP.part.hbond>
0.0000

> <Gold.PLP.part.metal>
0.0000

> <Gold.PLP.part.buried>
0.3004

> <Gold.PLP.part.nonpolar>
-49.2595

> <Gold.PLP.part.repulsive>
0.3842

> <Gold.PLP.ligand.clash>
0.0000

> <Gold.PLP.ligand.torsion>
1.4759

> <Gold.PLP.Chemscore.Hbond>
0.0000

> <Gold.PLP.Chemscore.CHOScore>
1.9476

> <Gold.PLP.Chemscore.Metal>
0.0000

> <Gold.Chemscore.Hbonds>
donor molecule, donor type, donor heavy atom, donor atom, acceptor molecule, acceptor atom, score
      L1  C    12    25       P1  2116  0.95
      L1  C    12    25       P1  2115  1.00

> <Gold.PLP.Chemscore.Internal.Correction>
0.5636

> <Gold.PLP.Reference.RMSD>
4.3521

> <Gold.Rescore>
     Score         DG    S(hbond)    S(metal)    S(lipo)     H(rot)  DE(clash)    DE(int)     intcor
     21.45     -24.59       0.00        0.00     185.20       1.00       0.20       2.94       ----

> <Gold.Chemscore.Fitness>
21.4527

> <Gold.Chemscore.DG>
-24.5889

> <Gold.Chemscore.ZeroCoef>
-5.4800

> <Gold.Chemscore.Hbond>
0.0000

> <Gold.Chemscore.Metal>
0.0000

> <Gold.Chemscore.Lipo>
185.2045

> <Gold.Chemscore.Internal_Hbond>
0.0000

> <Gold.Chemscore.DEClash>
0.2001

> <Gold.Chemscore.DEInternal>
2.9361

> <Gold.Chemscore.Rot>
1.0000

> <Gold.Chemscore.Internal.Correction>
   9.000000E+99

> <Gold.Chemscore.Reference.RMSD>
0.0000

> <Gold.Chemscore.Hbond.Weighted>
-0.0000

> <Gold.Chemscore.Metal.Weighted>
-0.0000

> <Gold.Chemscore.Lipo.Weighted>
-21.6689

> <Gold.Chemscore.Internal_Hbond.Weighted>
0.0000

> <Gold.Chemscore.DEClash.Weighted>
0.2001

> <Gold.Chemscore.DEInternal.Weighted>
2.9361

> <Gold.Chemscore.Rot.Weighted>
2.5600

> <Gold.Chemscore.Internal.Correction.Weighted>
   9.000000E+99

> <Gold.Reference.RMSD>
4.3521

#       Name:                00000001
#       Creating user name   hitesit
#       Creation time:       Thu Mar  2 16:48:40 2023


#       File generated by GOLD software.
#

@<TRIPOS>MOLECULE
00000001|prep_VS_2|mol2|1|dock8
    43    46     1
SMALL
USER_CHARGES


@<TRIPOS>ATOM
      1 C1         -40.1146 -41.0384   3.7876 C.2            1 noname            -0.0111
      2 C2         -38.8301 -41.2460   4.0072 C.2            1 noname            -0.0624
      3 N1         -38.0354 -41.6774   2.9526 N.am           1 noname             0.0259
      4 C3         -38.4668 -41.3454   1.6011 C.3            1 noname             0.1489
      5 C4         -39.9550 -41.6710   1.4505 C.2            1 noname             0.1550
      6 N2         -40.6988 -41.3834   2.5573 N.am           1 noname            -0.1166
      7 O1         -40.4129 -42.1997   0.4549 O.2            1 noname            -0.2620
      8 C5         -38.3984 -39.8239   1.3501 C.ar           1 noname             0.0167
      9 C6         -39.2712 -39.1866   0.4812 C.ar           1 noname            -0.0133
     10 C7         -39.1485 -37.8182   0.3115 C.ar           1 noname            -0.0379
     11 C8         -38.1736 -37.1308   1.0028 C.ar           1 noname            -0.0260
     12 C9         -37.3515 -37.8458   1.8458 C.ar           1 noname             0.0003
     13 N3         -37.4490 -39.1693   2.0282 N.ar           1 noname            -0.2412
     14 C10        -42.1470 -41.4129   2.5091 C.ar           1 noname            -0.0140
     15 C11        -42.8457 -41.2373   1.3173 C.ar           1 noname            -0.0201
     16 C12        -44.2283 -41.2874   1.2858 C.ar           1 noname            -0.0181
     17 C13        -44.9232 -41.4948   2.4563 C.ar           1 noname            -0.0097
     18 C14        -44.2623 -41.6536   3.6538 C.ar           1 noname            -0.0181
     19 C15        -42.8793 -41.6141   3.6759 C.ar           1 noname            -0.0201
     20 C16        -37.0020 -42.5773   2.9967 C.2            1 noname             0.0697
     21 O2         -36.6656 -43.1701   4.0223 O.2            1 noname            -0.2900
     22 C17        -37.5043 -42.1512   0.7083 C.3            1 noname            -0.0112
     23 C18        -36.7788 -43.1055   1.6170 C.3            1 noname             0.0244
     24 Cl1        -46.6629 -41.5561   2.4218 Cl             1 noname            -0.0849
     25 H1         -36.5834 -37.3077   2.3915 H              1 noname             0.0003
     26 H2         -42.3079 -41.0521   0.3943 H              1 noname            -0.0201
     27 H3         -44.7597 -41.1628   0.3481 H              1 noname            -0.0181
     28 H4         -44.8207 -41.8094   4.5710 H              1 noname            -0.0181
     29 H5         -42.3666 -41.7462   4.6228 H              1 noname            -0.0201
     30 H6         -40.0317 -39.7468  -0.0527 H              1 noname            -0.0133
     31 H7         -39.8156 -37.2898  -0.3616 H              1 noname            -0.0379
     32 H8         -38.0575 -36.0583   0.8864 H              1 noname            -0.0260
     33 H9         -40.7292 -40.5945   4.5692 H              1 noname            -0.0111
     34 H10        -38.4018 -41.0825   4.9950 H              1 noname            -0.0624
     35 H11        -36.7957 -41.4837   0.2204 H              1 noname            -0.0112
     36 H12        -38.0633 -42.7019  -0.0467 H              1 noname            -0.0112
     37 H13        -37.1884 -44.1100   1.5216 H              1 noname             0.0244
     38 H14        -35.7157 -43.1232   1.3820 H              1 noname             0.0244
     39 ****       -39.8101 -42.4391  -0.3063 LP             1 noname             0.0000
     40 ****       -41.3920 -42.3950   0.3978 LP             1 noname             0.0000
     41 ****       -36.8326 -39.6519   2.6505 LP             1 noname             0.0000
     42 ****       -37.1545 -43.0045   4.8788 LP             1 noname             0.0000
     43 ****       -35.9035 -43.8172   3.9987 LP             1 noname             0.0000
@<TRIPOS>BOND
    1    1    2 2     
    2    6    1 1     
    3    2    3 1     
    4    3    4 1     
    5    3   20 am    
    6    4    5 1     
    7    4    8 1     
    8    4   22 1     
    9    5    6 am    
   10    5    7 2     
   11   14    6 1     
   12    8    9 ar    
   13   13    8 ar    
   14    9   10 ar    
   15   10   11 ar    
   16   11   12 ar    
   17   12   13 ar    
   18   14   15 ar    
   19   19   14 ar    
   20   15   16 ar    
   21   16   17 ar    
   22   17   18 ar    
   23   17   24 1     
   24   18   19 ar    
   25   20   21 2     
   26   23   20 1     
   27   22   23 1     
   28   12   25 1     
   29   15   26 1     
   30   16   27 1     
   31   18   28 1     
   32   19   29 1     
   33    9   30 1     
   34   10   31 1     
   35   11   32 1     
   36    1   33 1     
   37    2   34 1     
   38   22   35 1     
   39   22   36 1     
   40   23   37 1     
   41   23   38 1     
   42    7   39 1     
   43    7   40 1     
   44   13   41 1     
   45   21   42 1     
   46   21   43 1     
@<TRIPOS>SUBSTRUCTURE
      1 noname         1
@<TRIPOS>SET
LONE_PAIRS      STATIC     ATOMS    <user>   **** ""
5 39 40 41 42 43
ATOM$BLUE        STATIC     ATOMS    COLORGROUP SYSTEM
5 39 40 41 42 43
@<TRIPOS>COMMENT
> <Gold.Version>
2022.3.0

> <Gold.Id.Protein>
unknown|6c5f_clean|pdb

> <Gold.Protein.ActiveResidues>
 LEU49   SER50   GLN58   ILE95   LEU96   ILE97   ARG98   PRO1    PHE2    LEU3   
 LEU30   LYS32   PRO33   ASP35   ARG36   VAL37   ASN38   ILE61   SER62   SER63  
 ILE64   GLY65   VAL66   VAL67   PHE100  LEU102  GLU103  SER104  TRP105  GLN106 
 ILE107  GLY108  LYS109  ILE110  THR112  VAL113  PRO1    GLN58   PHE2    LEU96  
 LEU30   LYS32   PRO33   PHE2    PRO1    PRO101  LEU102  GLU103  VAL37   ASN38  
 LEU49   SER50   ILE61   SER62   SER63   ILE64   ILE64   GLY65   VAL66   VAL67  
 PRO33   ARG36   VAL37   PRO1    SER104  TRP105  GLN106  ILE107  GLY108  LYS109 
 ILE110  PRO1    PHE2    LEU3    ILE110  VAL113  LEU96   ILE97   ARG98   PHE2   
 PRO1   

> <Gold.Score>
     Score     S(PLP)   S(hbond)     S(cho)   S(metal)  DE(clash)   DE(tors)     intcor
     51.79     -47.96       0.00       2.00       0.00       0.00       1.35       0.54

> <Gold.PLP.Fitness>
51.7865

> <Gold.PLP.PLP>
-47.9560

> <Gold.PLP.part.hbond>
0.0000

> <Gold.PLP.part.metal>
0.0000

> <Gold.PLP.part.buried>
-0.5892

> <Gold.PLP.part.nonpolar>
-48.4197

> <Gold.PLP.part.repulsive>
0.3381

> <Gold.PLP.ligand.clash>
0.0000

> <Gold.PLP.ligand.torsion>
1.3527

> <Gold.PLP.Chemscore.Hbond>
0.0000

> <Gold.PLP.Chemscore.CHOScore>
1.9998

> <Gold.PLP.Chemscore.Metal>
0.0000

> <Gold.Chemscore.Hbonds>
donor molecule, donor type, donor heavy atom, donor atom, acceptor molecule, acceptor atom, score
      L1  C    12    25       P1  2116  1.00
      L1  C    12    25       P1  2115  1.00

> <Gold.PLP.Chemscore.Internal.Correction>
0.5365

> <Gold.PLP.Reference.RMSD>
4.4894

> <Gold.Rescore>
     Score         DG    S(hbond)    S(metal)    S(lipo)     H(rot)  DE(clash)    DE(int)     intcor
     22.15     -24.97       0.00        0.00     188.45       1.00       0.23       2.59       ----

> <Gold.Chemscore.Fitness>
22.1476

> <Gold.Chemscore.DG>
-24.9687

> <Gold.Chemscore.ZeroCoef>
-5.4800

> <Gold.Chemscore.Hbond>
0.0000

> <Gold.Chemscore.Metal>
0.0000

> <Gold.Chemscore.Lipo>
188.4507

> <Gold.Chemscore.Internal_Hbond>
0.0000

> <Gold.Chemscore.DEClash>
0.2290

> <Gold.Chemscore.DEInternal>
2.5921

> <Gold.Chemscore.Rot>
1.0000

> <Gold.Chemscore.Internal.Correction>
   9.000000E+99

> <Gold.Chemscore.Reference.RMSD>
0.0000

> <Gold.Chemscore.Hbond.Weighted>
-0.0000

> <Gold.Chemscore.Metal.Weighted>
-0.0000

> <Gold.Chemscore.Lipo.Weighted>
-22.0487

> <Gold.Chemscore.Internal_Hbond.Weighted>
0.0000

> <Gold.Chemscore.DEClash.Weighted>
0.2290

> <Gold.Chemscore.DEInternal.Weighted>
2.5921

> <Gold.Chemscore.Rot.Weighted>
2.5600

> <Gold.Chemscore.Internal.Correction.Weighted>
   9.000000E+99

> <Gold.Reference.RMSD>
4.4894

#       Name:                00000001
#       Creating user name   hitesit
#       Creation time:       Thu Mar  2 16:48:37 2023


#       File generated by GOLD software.
#

@<TRIPOS>MOLECULE
00000001|prep_VS_2|mol2|1|dock1
    43    46     1
SMALL
USER_CHARGES


@<TRIPOS>ATOM
      1 C1         -40.1283 -41.0706   3.8002 C.2            1 noname            -0.0111
      2 C2         -38.8434 -41.2775   4.0188 C.2            1 noname            -0.0624
      3 N1         -38.0466 -41.6948   2.9603 N.am           1 noname             0.0259
      4 C3         -38.4774 -41.3486   1.6121 C.3            1 noname             0.1489
      5 C4         -39.9646 -41.6763   1.4563 C.2            1 noname             0.1550
      6 N2         -40.7102 -41.4031   2.5655 N.am           1 noname            -0.1166
      7 O1         -40.4201 -42.1948   0.4543 O.2            1 noname            -0.2620
      8 C5         -38.4127 -39.8242   1.3785 C.ar           1 noname             0.0167
      9 C6         -39.2914 -39.1781   0.5221 C.ar           1 noname            -0.0133
     10 C7         -39.1717 -37.8076   0.3676 C.ar           1 noname            -0.0379
     11 C8         -38.1938 -37.1268   1.0613 C.ar           1 noname            -0.0260
     12 C9         -37.3659 -37.8503   1.8912 C.ar           1 noname             0.0003
     13 N3         -37.4604 -39.1761   2.0588 N.ar           1 noname            -0.2412
     14 C10        -42.1583 -41.4358   2.5155 C.ar           1 noname            -0.0140
     15 C11        -42.8573 -41.2141   1.3315 C.ar           1 noname            -0.0201
     16 C12        -44.2397 -41.2679   1.2974 C.ar           1 noname            -0.0181
     17 C13        -44.9342 -41.5254   2.4580 C.ar           1 noname            -0.0097
     18 C14        -44.2732 -41.7307   3.6483 C.ar           1 noname            -0.0181
     19 C15        -42.8903 -41.6872   3.6727 C.ar           1 noname            -0.0201
     20 C16        -37.0108 -42.5925   2.9952 C.2            1 noname             0.0697
     21 O2         -36.6739 -43.1961   4.0144 O.2            1 noname            -0.2900
     22 C17        -37.5119 -42.1417   0.7113 C.3            1 noname            -0.0112
     23 C18        -36.7849 -43.1044   1.6098 C.3            1 noname             0.0244
     24 Cl1        -46.6737 -41.5914   2.4202 Cl             1 noname            -0.0849
     25 H1         -36.5954 -37.3175   2.4387 H              1 noname             0.0003
     26 H2         -42.3198 -40.9894   0.4171 H              1 noname            -0.0201
     27 H3         -44.7712 -41.1069   0.3652 H              1 noname            -0.0181
     28 H4         -44.8312 -41.9259   4.5582 H              1 noname            -0.0181
     29 H5         -42.3774 -41.8560   4.6137 H              1 noname            -0.0201
     30 H6         -40.0541 -39.7332  -0.0139 H              1 noname            -0.0133
     31 H7         -39.8434 -37.2725  -0.2955 H              1 noname            -0.0379
     32 H8         -38.0800 -36.0529   0.9568 H              1 noname            -0.0260
     33 H9         -40.7448 -40.6372   4.5862 H              1 noname            -0.0111
     34 H10        -38.4165 -41.1240   5.0089 H              1 noname            -0.0624
     35 H11        -36.8045 -41.4669   0.2317 H              1 noname            -0.0112
     36 H12        -38.0687 -42.6852  -0.0506 H              1 noname            -0.0112
     37 H13        -37.1918 -44.1088   1.5026 H              1 noname             0.0244
     38 H14        -35.7215 -43.1167   1.3758 H              1 noname             0.0244
     39 ****       -39.8159 -42.4239  -0.3089 LP             1 noname             0.0000
     40 ****       -41.3986 -42.3919   0.3939 LP             1 noname             0.0000
     41 ****       -36.8398 -39.6649   2.6718 LP             1 noname             0.0000
     42 ****       -37.1642 -43.0415   4.8721 LP             1 noname             0.0000
     43 ****       -35.9101 -43.8408   3.9842 LP             1 noname             0.0000
@<TRIPOS>BOND
    1    1    2 2     
    2    6    1 1     
    3    2    3 1     
    4    3    4 1     
    5    3   20 am    
    6    4    5 1     
    7    4    8 1     
    8    4   22 1     
    9    5    6 am    
   10    5    7 2     
   11   14    6 1     
   12    8    9 ar    
   13   13    8 ar    
   14    9   10 ar    
   15   10   11 ar    
   16   11   12 ar    
   17   12   13 ar    
   18   14   15 ar    
   19   19   14 ar    
   20   15   16 ar    
   21   16   17 ar    
   22   17   18 ar    
   23   17   24 1     
   24   18   19 ar    
   25   20   21 2     
   26   23   20 1     
   27   22   23 1     
   28   12   25 1     
   29   15   26 1     
   30   16   27 1     
   31   18   28 1     
   32   19   29 1     
   33    9   30 1     
   34   10   31 1     
   35   11   32 1     
   36    1   33 1     
   37    2   34 1     
   38   22   35 1     
   39   22   36 1     
   40   23   37 1     
   41   23   38 1     
   42    7   39 1     
   43    7   40 1     
   44   13   41 1     
   45   21   42 1     
   46   21   43 1     
@<TRIPOS>SUBSTRUCTURE
      1 noname         1
@<TRIPOS>SET
LONE_PAIRS      STATIC     ATOMS    <user>   **** ""
5 39 40 41 42 43
ATOM$BLUE        STATIC     ATOMS    COLORGROUP SYSTEM
5 39 40 41 42 43
@<TRIPOS>COMMENT
> <Gold.Version>
2022.3.0

> <Gold.Id.Protein>
unknown|6c5f_clean|pdb

> <Gold.Protein.ActiveResidues>
 LEU49   SER50   GLN58   ILE95   LEU96   ILE97   ARG98   PRO1    PHE2    LEU3   
 LEU30   LYS32   PRO33   ASP35   ARG36   VAL37   ASN38   ILE61   SER62   SER63  
 ILE64   GLY65   VAL66   VAL67   PHE100  LEU102  GLU103  SER104  TRP105  GLN106 
 ILE107  GLY108  LYS109  ILE110  THR112  VAL113  PRO1    GLN58   PHE2    LEU96  
 LEU30   LYS32   PRO33   PHE2    PRO1    PRO101  LEU102  GLU103  VAL37   ASN38  
 LEU49   SER50   ILE61   SER62   SER63   ILE64   ILE64   GLY65   VAL66   VAL67  
 PRO33   ARG36   VAL37   PRO1    SER104  TRP105  GLN106  ILE107  GLY108  LYS109 
 ILE110  PRO1    PHE2    LEU3    ILE110  VAL113  LEU96   ILE97   ARG98   PHE2   
 PRO1   

> <Gold.Score>
     Score     S(PLP)   S(hbond)     S(cho)   S(metal)  DE(clash)   DE(tors)     intcor
     51.70     -47.91       0.00       2.00       0.00       0.00       1.38       0.56

> <Gold.PLP.Fitness>
51.7017

> <Gold.PLP.PLP>
-47.9078

> <Gold.PLP.part.hbond>
0.0000

> <Gold.PLP.part.metal>
0.0000

> <Gold.PLP.part.buried>
-0.6849

> <Gold.PLP.part.nonpolar>
-48.2757

> <Gold.PLP.part.repulsive>
0.3350

> <Gold.PLP.ligand.clash>
0.0000

> <Gold.PLP.ligand.torsion>
1.3842

> <Gold.PLP.Chemscore.Hbond>
0.0000

> <Gold.PLP.Chemscore.CHOScore>
1.9996

> <Gold.PLP.Chemscore.Metal>
0.0000

> <Gold.Chemscore.Hbonds>
donor molecule, donor type, donor heavy atom, donor atom, acceptor molecule, acceptor atom, score
      L1  C    12    25       P1  2116  1.00
      L1  C    12    25       P1  2115  1.00

> <Gold.PLP.Chemscore.Internal.Correction>
0.5636

> <Gold.PLP.Reference.RMSD>
4.4927

> <Gold.Rescore>
     Score         DG    S(hbond)    S(metal)    S(lipo)     H(rot)  DE(clash)    DE(int)     intcor
     20.79     -24.75       0.00        0.00     186.57       1.00       1.22       2.74       ----

> <Gold.Chemscore.Fitness>
20.7865

> <Gold.Chemscore.DG>
-24.7484

> <Gold.Chemscore.ZeroCoef>
-5.4800

> <Gold.Chemscore.Hbond>
0.0000

> <Gold.Chemscore.Metal>
0.0000

> <Gold.Chemscore.Lipo>
186.5675

> <Gold.Chemscore.Internal_Hbond>
0.0000

> <Gold.Chemscore.DEClash>
1.2185

> <Gold.Chemscore.DEInternal>
2.7434

> <Gold.Chemscore.Rot>
1.0000

> <Gold.Chemscore.Internal.Correction>
   9.000000E+99

> <Gold.Chemscore.Reference.RMSD>
0.0000

> <Gold.Chemscore.Hbond.Weighted>
-0.0000

> <Gold.Chemscore.Metal.Weighted>
-0.0000

> <Gold.Chemscore.Lipo.Weighted>
-21.8284

> <Gold.Chemscore.Internal_Hbond.Weighted>
0.0000

> <Gold.Chemscore.DEClash.Weighted>
1.2185

> <Gold.Chemscore.DEInternal.Weighted>
2.7434

> <Gold.Chemscore.Rot.Weighted>
2.5600

> <Gold.Chemscore.Internal.Correction.Weighted>
   9.000000E+99

> <Gold.Reference.RMSD>
4.4927

#       Name:                00000001
#       Creating user name   hitesit
#       Creation time:       Thu Mar  2 16:48:39 2023


#       File generated by GOLD software.
#

@<TRIPOS>MOLECULE
00000001|prep_VS_2|mol2|1|dock6
    43    46     1
SMALL
USER_CHARGES


@<TRIPOS>ATOM
      1 C1         -39.7972 -40.8546   3.9846 C.2            1 noname            -0.0111
      2 C2         -38.5046 -41.0041   4.2046 C.2            1 noname            -0.0624
      3 N1         -37.7113 -41.5194   3.1874 N.am           1 noname             0.0259
      4 C3         -38.1687 -41.3390   1.8158 C.3            1 noname             0.1489
      5 C4         -39.6488 -41.7181   1.7219 C.2            1 noname             0.1550
      6 N2         -40.3866 -41.3390   2.8049 N.am           1 noname            -0.1166
      7 O1         -40.1039 -42.3579   0.7924 O.2            1 noname            -0.2620
      8 C5         -38.1465 -39.8498   1.4103 C.ar           1 noname             0.0167
      9 C6         -38.9680 -39.3524   0.4100 C.ar           1 noname            -0.0133
     10 C7         -38.8921 -38.0041   0.1057 C.ar           1 noname            -0.0379
     11 C8         -38.0125 -37.1983   0.7970 C.ar           1 noname            -0.0260
     12 C9         -37.2357 -37.7782   1.7759 C.ar           1 noname             0.0003
     13 N3         -37.2896 -39.0793   2.0900 N.ar           1 noname            -0.2412
     14 C10        -41.8339 -41.4123   2.7821 C.ar           1 noname            -0.0140
     15 C11        -42.5059 -42.4779   2.1883 C.ar           1 noname            -0.0201
     16 C12        -43.8882 -42.5417   2.1921 C.ar           1 noname            -0.0181
     17 C13        -44.6096 -41.5244   2.7756 C.ar           1 noname            -0.0097
     18 C14        -43.9752 -40.4482   3.3547 C.ar           1 noname            -0.0181
     19 C15        -42.5925 -40.3967   3.3577 C.ar           1 noname            -0.0201
     20 C16        -36.6523 -42.3820   3.3071 C.2            1 noname             0.0697
     21 O2         -36.2865 -42.8577   4.3824 O.2            1 noname            -0.2900
     22 C17        -37.1949 -42.2055   0.9951 C.3            1 noname            -0.0112
     23 C18        -36.4314 -43.0422   1.9850 C.3            1 noname             0.0244
     24 Cl1        -46.3490 -41.5994   2.7804 Cl             1 noname            -0.0849
     25 H1         -36.5425 -37.1467   2.3219 H              1 noname             0.0003
     26 H2         -41.9468 -43.2728   1.7076 H              1 noname            -0.0201
     27 H3         -44.3988 -43.3846   1.7381 H              1 noname            -0.0181
     28 H4         -44.5541 -39.6487   3.8054 H              1 noname            -0.0181
     29 H5         -42.1008 -39.5480   3.8215 H              1 noname            -0.0201
     30 H6         -39.6536 -40.0042  -0.1214 H              1 noname            -0.0133
     31 H7         -39.5210 -37.5839  -0.6722 H              1 noname            -0.0379
     32 H8         -37.9345 -36.1388   0.5767 H              1 noname            -0.0260
     33 H9         -40.4143 -40.3499   4.7263 H              1 noname            -0.0111
     34 H10        -38.0689 -40.7291   5.1640 H              1 noname            -0.0624
     35 H11        -36.5116 -41.5725   0.4311 H              1 noname            -0.0112
     36 H12        -37.7475 -42.8453   0.3087 H              1 noname            -0.0112
     37 H13        -36.8136 -44.0618   1.9986 H              1 noname             0.0244
     38 H14        -35.3712 -43.0551   1.7369 H              1 noname             0.0244
     39 ****       -39.5041 -42.6574   0.0504 LP             1 noname             0.0000
     40 ****       -41.0777 -42.5843   0.7704 LP             1 noname             0.0000
     41 ****       -36.7088 -39.4619   2.8085 LP             1 noname             0.0000
     42 ****       -36.7693 -42.6187   5.2249 LP             1 noname             0.0000
     43 ****       -35.5067 -43.4830   4.4132 LP             1 noname             0.0000
@<TRIPOS>BOND
    1    1    2 2     
    2    6    1 1     
    3    2    3 1     
    4    3    4 1     
    5    3   20 am    
    6    4    5 1     
    7    4    8 1     
    8    4   22 1     
    9    5    6 am    
   10    5    7 2     
   11   14    6 1     
   12    8    9 ar    
   13   13    8 ar    
   14    9   10 ar    
   15   10   11 ar    
   16   11   12 ar    
   17   12   13 ar    
   18   14   15 ar    
   19   19   14 ar    
   20   15   16 ar    
   21   16   17 ar    
   22   17   18 ar    
   23   17   24 1     
   24   18   19 ar    
   25   20   21 2     
   26   23   20 1     
   27   22   23 1     
   28   12   25 1     
   29   15   26 1     
   30   16   27 1     
   31   18   28 1     
   32   19   29 1     
   33    9   30 1     
   34   10   31 1     
   35   11   32 1     
   36    1   33 1     
   37    2   34 1     
   38   22   35 1     
   39   22   36 1     
   40   23   37 1     
   41   23   38 1     
   42    7   39 1     
   43    7   40 1     
   44   13   41 1     
   45   21   42 1     
   46   21   43 1     
@<TRIPOS>SUBSTRUCTURE
      1 noname         1
@<TRIPOS>SET
LONE_PAIRS      STATIC     ATOMS    <user>   **** ""
5 39 40 41 42 43
ATOM$BLUE        STATIC     ATOMS    COLORGROUP SYSTEM
5 39 40 41 42 43
@<TRIPOS>COMMENT
> <Gold.Version>
2022.3.0

> <Gold.Id.Protein>
unknown|6c5f_clean|pdb

> <Gold.Protein.ActiveResidues>
 LEU49   SER50   GLN58   ILE95   LEU96   ILE97   ARG98   PRO1    PHE2    LEU3   
 LEU30   LYS32   PRO33   ASP35   ARG36   VAL37   ASN38   ILE61   SER62   SER63  
 ILE64   GLY65   VAL66   VAL67   PHE100  LEU102  GLU103  SER104  TRP105  GLN106 
 ILE107  GLY108  LYS109  ILE110  THR112  VAL113  PRO1    GLN58   PHE2    LEU96  
 LEU30   LYS32   PRO33   PHE2    PRO1    PRO101  LEU102  GLU103  VAL37   ASN38  
 LEU49   SER50   ILE61   SER62   SER63   ILE64   ILE64   GLY65   VAL66   VAL67  
 PRO33   ARG36   VAL37   PRO1    SER104  TRP105  GLN106  ILE107  GLY108  LYS109 
 ILE110  PRO1    PHE2    LEU3    ILE110  VAL113  LEU96   ILE97   ARG98   PHE2   
 PRO1   

> <Gold.Score>
     Score     S(PLP)   S(hbond)     S(cho)   S(metal)  DE(clash)   DE(tors)     intcor
     51.70     -48.45       0.00       2.00       0.00       0.00       1.65       0.54

> <Gold.PLP.Fitness>
51.6957

> <Gold.PLP.PLP>
-48.4539

> <Gold.PLP.part.hbond>
0.0000

> <Gold.PLP.part.metal>
0.0000

> <Gold.PLP.part.buried>
-1.0215

> <Gold.PLP.part.nonpolar>
-47.2347

> <Gold.PLP.part.repulsive>
0.3916

> <Gold.PLP.ligand.clash>
0.0000

> <Gold.PLP.ligand.torsion>
1.6473

> <Gold.PLP.Chemscore.Hbond>
0.0000

> <Gold.PLP.Chemscore.CHOScore>
2.0000

> <Gold.PLP.Chemscore.Metal>
0.0000

> <Gold.Chemscore.Hbonds>
donor molecule, donor type, donor heavy atom, donor atom, acceptor molecule, acceptor atom, score
      L1  C    12    25       P1  2116  1.00
      L1  C    12    25       P1  2115  1.00

> <Gold.PLP.Chemscore.Internal.Correction>
0.5365

> <Gold.PLP.Reference.RMSD>
4.4991

> <Gold.Rescore>
     Score         DG    S(hbond)    S(metal)    S(lipo)     H(rot)  DE(clash)    DE(int)     intcor
     20.73     -24.55       0.00        0.00     184.90       1.00       0.93       2.89       ----

> <Gold.Chemscore.Fitness>
20.7316

> <Gold.Chemscore.DG>
-24.5531

> <Gold.Chemscore.ZeroCoef>
-5.4800

> <Gold.Chemscore.Hbond>
0.0000

> <Gold.Chemscore.Metal>
0.0000

> <Gold.Chemscore.Lipo>
184.8984

> <Gold.Chemscore.Internal_Hbond>
0.0000

> <Gold.Chemscore.DEClash>
0.9301

> <Gold.Chemscore.DEInternal>
2.8914

> <Gold.Chemscore.Rot>
1.0000

> <Gold.Chemscore.Internal.Correction>
   9.000000E+99

> <Gold.Chemscore.Reference.RMSD>
0.0000

> <Gold.Chemscore.Hbond.Weighted>
-0.0000

> <Gold.Chemscore.Metal.Weighted>
-0.0000

> <Gold.Chemscore.Lipo.Weighted>
-21.6331

> <Gold.Chemscore.Internal_Hbond.Weighted>
0.0000

> <Gold.Chemscore.DEClash.Weighted>
0.9301

> <Gold.Chemscore.DEInternal.Weighted>
2.8914

> <Gold.Chemscore.Rot.Weighted>
2.5600

> <Gold.Chemscore.Internal.Correction.Weighted>
   9.000000E+99

> <Gold.Reference.RMSD>
4.4991

#       Name:                00000001
#       Creating user name   hitesit
#       Creation time:       Thu Mar  2 16:48:40 2023


#       File generated by GOLD software.
#

@<TRIPOS>MOLECULE
00000001|prep_VS_2|mol2|1|dock9
    43    46     1
SMALL
USER_CHARGES


@<TRIPOS>ATOM
      1 C1         -39.8661 -40.9996   4.0478 C.2            1 noname            -0.0111
      2 C2         -38.5800 -41.2032   4.2620 C.2            1 noname            -0.0624
      3 N1         -37.8046 -41.7103   3.2270 N.am           1 noname             0.0259
      4 C3         -38.2539 -41.4651   1.8628 C.3            1 noname             0.1489
      5 C4         -39.7466 -41.7872   1.7559 C.2            1 noname             0.1550
      6 N2         -40.4714 -41.4204   2.8519 N.am           1 noname            -0.1166
      7 O1         -40.2235 -42.3769   0.8044 O.2            1 noname            -0.2620
      8 C5         -38.1779 -39.9642   1.5103 C.ar           1 noname             0.0167
      9 C6         -39.0016 -39.3963   0.5502 C.ar           1 noname            -0.0133
     10 C7         -38.8754 -38.0420   0.2924 C.ar           1 noname            -0.0379
     11 C8         -37.9452 -37.2999   0.9888 C.ar           1 noname            -0.0260
     12 C9         -37.1702 -37.9475   1.9257 C.ar           1 noname             0.0003
     13 N3         -37.2722 -39.2559   2.1944 N.ar           1 noname            -0.2412
     14 C10        -41.9203 -41.4407   2.8269 C.ar           1 noname            -0.0140
     15 C11        -42.6789 -40.4216   3.3974 C.ar           1 noname            -0.0201
     16 C12        -44.0617 -40.4471   3.3479 C.ar           1 noname            -0.0181
     17 C13        -44.6962 -41.5081   2.7416 C.ar           1 noname            -0.0097
     18 C14        -43.9749 -42.5402   2.1845 C.ar           1 noname            -0.0181
     19 C15        -42.5923 -42.5024   2.2272 C.ar           1 noname            -0.0201
     20 C16        -36.7774 -42.6141   3.3157 C.2            1 noname             0.0697
     21 O2         -36.4301 -43.1404   4.3734 O.2            1 noname            -0.2900
     22 C17        -37.3111 -42.3364   1.0116 C.3            1 noname            -0.0112
     23 C18        -36.5792 -43.2345   1.9710 C.3            1 noname             0.0244
     24 Cl1        -46.4357 -41.5455   2.6792 Cl             1 noname            -0.0849
     25 H1         -36.4374 -37.3663   2.4756 H              1 noname             0.0003
     26 H2         -42.1886 -39.5930   3.8958 H              1 noname            -0.0201
     27 H3         -44.6403 -39.6396   3.7842 H              1 noname            -0.0181
     28 H4         -44.4858 -43.3747   1.7155 H              1 noname            -0.0181
     29 H5         -42.0319 -43.3169   1.7806 H              1 noname            -0.0201
     30 H6         -39.7274 -39.9987   0.0140 H              1 noname            -0.0133
     31 H7         -39.5047 -37.5675  -0.4533 H              1 noname            -0.0379
     32 H8         -37.8273 -36.2372   0.8046 H              1 noname            -0.0260
     33 H9         -40.4654 -40.4996   4.8071 H              1 noname            -0.0111
     34 H10        -38.1356 -40.9781   5.2305 H              1 noname            -0.0624
     35 H11        -36.6049 -41.7088   0.4701 H              1 noname            -0.0112
     36 H12        -37.8856 -42.9312   0.3030 H              1 noname            -0.0112
     37 H13        -36.9978 -44.2396   1.9485 H              1 noname             0.0244
     38 H14        -35.5199 -43.2768   1.7223 H              1 noname             0.0244
     39 ****       -39.6341 -42.6713   0.0521 LP             1 noname             0.0000
     40 ****       -41.2048 -42.5671   0.7747 LP             1 noname             0.0000
     41 ****       -36.6908 -39.6888   2.8833 LP             1 noname             0.0000
     42 ****       -36.9048 -42.9142   5.2240 LP             1 noname             0.0000
     43 ****       -35.6733 -43.7940   4.3817 LP             1 noname             0.0000
@<TRIPOS>BOND
    1    1    2 2     
    2    6    1 1     
    3    2    3 1     
    4    3    4 1     
    5    3   20 am    
    6    4    5 1     
    7    4    8 1     
    8    4   22 1     
    9    5    6 am    
   10    5    7 2     
   11   14    6 1     
   12    8    9 ar    
   13   13    8 ar    
   14    9   10 ar    
   15   10   11 ar    
   16   11   12 ar    
   17   12   13 ar    
   18   14   15 ar    
   19   19   14 ar    
   20   15   16 ar    
   21   16   17 ar    
   22   17   18 ar    
   23   17   24 1     
   24   18   19 ar    
   25   20   21 2     
   26   23   20 1     
   27   22   23 1     
   28   12   25 1     
   29   15   26 1     
   30   16   27 1     
   31   18   28 1     
   32   19   29 1     
   33    9   30 1     
   34   10   31 1     
   35   11   32 1     
   36    1   33 1     
   37    2   34 1     
   38   22   35 1     
   39   22   36 1     
   40   23   37 1     
   41   23   38 1     
   42    7   39 1     
   43    7   40 1     
   44   13   41 1     
   45   21   42 1     
   46   21   43 1     
@<TRIPOS>SUBSTRUCTURE
      1 noname         1
@<TRIPOS>SET
LONE_PAIRS      STATIC     ATOMS    <user>   **** ""
5 39 40 41 42 43
ATOM$BLUE        STATIC     ATOMS    COLORGROUP SYSTEM
5 39 40 41 42 43
@<TRIPOS>COMMENT
> <Gold.Version>
2022.3.0

> <Gold.Id.Protein>
unknown|6c5f_clean|pdb

> <Gold.Protein.ActiveResidues>
 LEU49   SER50   GLN58   ILE95   LEU96   ILE97   ARG98   PRO1    PHE2    LEU3   
 LEU30   LYS32   PRO33   ASP35   ARG36   VAL37   ASN38   ILE61   SER62   SER63  
 ILE64   GLY65   VAL66   VAL67   PHE100  LEU102  GLU103  SER104  TRP105  GLN106 
 ILE107  GLY108  LYS109  ILE110  THR112  VAL113  PRO1    GLN58   PHE2    LEU96  
 LEU30   LYS32   PRO33   PHE2    PRO1    PRO101  LEU102  GLU103  VAL37   ASN38  
 LEU49   SER50   ILE61   SER62   SER63   ILE64   ILE64   GLY65   VAL66   VAL67  
 PRO33   ARG36   VAL37   PRO1    SER104  TRP105  GLN106  ILE107  GLY108  LYS109 
 ILE110  PRO1    PHE2    LEU3    ILE110  VAL113  LEU96   ILE97   ARG98   PHE2   
 PRO1   

> <Gold.Score>
     Score     S(PLP)   S(hbond)     S(cho)   S(metal)  DE(clash)   DE(tors)     intcor
     51.59     -48.60       0.00       1.97       0.00       0.00       1.73       0.54

> <Gold.PLP.Fitness>
51.5858

> <Gold.PLP.PLP>
-48.5976

> <Gold.PLP.part.hbond>
0.0000

> <Gold.PLP.part.metal>
0.0000

> <Gold.PLP.part.buried>
-0.5459

> <Gold.PLP.part.nonpolar>
-48.0502

> <Gold.PLP.part.repulsive>
0.3622

> <Gold.PLP.ligand.clash>
0.0000

> <Gold.PLP.ligand.torsion>
1.7340

> <Gold.PLP.Chemscore.Hbond>
0.0000

> <Gold.PLP.Chemscore.CHOScore>
1.9732

> <Gold.PLP.Chemscore.Metal>
0.0000

> <Gold.Chemscore.Hbonds>
donor molecule, donor type, donor heavy atom, donor atom, acceptor molecule, acceptor atom, score
      L1  C    12    25       P1  2116  0.98
      L1  C    12    25       P1  2115  1.00

> <Gold.PLP.Chemscore.Internal.Correction>
0.5365

> <Gold.PLP.Reference.RMSD>
4.3730

> <Gold.Rescore>
     Score         DG    S(hbond)    S(metal)    S(lipo)     H(rot)  DE(clash)    DE(int)     intcor
     20.20     -24.41       0.00        0.00     183.64       1.00       1.01       3.19       ----

> <Gold.Chemscore.Fitness>
20.2034

> <Gold.Chemscore.DG>
-24.4057

> <Gold.Chemscore.ZeroCoef>
-5.4800

> <Gold.Chemscore.Hbond>
0.0000

> <Gold.Chemscore.Metal>
0.0000

> <Gold.Chemscore.Lipo>
183.6381

> <Gold.Chemscore.Internal_Hbond>
0.0000

> <Gold.Chemscore.DEClash>
1.0083

> <Gold.Chemscore.DEInternal>
3.1940

> <Gold.Chemscore.Rot>
1.0000

> <Gold.Chemscore.Internal.Correction>
   9.000000E+99

> <Gold.Chemscore.Reference.RMSD>
0.0000

> <Gold.Chemscore.Hbond.Weighted>
-0.0000

> <Gold.Chemscore.Metal.Weighted>
-0.0000

> <Gold.Chemscore.Lipo.Weighted>
-21.4857

> <Gold.Chemscore.Internal_Hbond.Weighted>
0.0000

> <Gold.Chemscore.DEClash.Weighted>
1.0083

> <Gold.Chemscore.DEInternal.Weighted>
3.1940

> <Gold.Chemscore.Rot.Weighted>
2.5600

> <Gold.Chemscore.Internal.Correction.Weighted>
   9.000000E+99

> <Gold.Reference.RMSD>
4.3730

#       Name:                00000001
#       Creating user name   hitesit
#       Creation time:       Thu Mar  2 16:48:40 2023


#       File generated by GOLD software.
#

@<TRIPOS>MOLECULE
00000001|prep_VS_2|mol2|1|dock10
    43    46     1
SMALL
USER_CHARGES


@<TRIPOS>ATOM
      1 C1         -39.8373 -41.0609   4.0188 C.2            1 noname            -0.0111
      2 C2         -38.5524 -41.2534   4.2501 C.2            1 noname            -0.0624
      3 N1         -37.7592 -41.7547   3.2259 N.am           1 noname             0.0259
      4 C3         -38.1924 -41.5143   1.8557 C.3            1 noname             0.1489
      5 C4         -39.6808 -41.8492   1.7293 C.2            1 noname             0.1550
      6 N2         -40.4231 -41.4878   2.8153 N.am           1 noname            -0.1166
      7 O1         -40.1400 -42.4436   0.7721 O.2            1 noname            -0.2620
      8 C5         -38.1245 -40.0131   1.5029 C.ar           1 noname             0.0167
      9 C6         -38.9447 -39.4517   0.5360 C.ar           1 noname            -0.0133
     10 C7         -38.8263 -38.0967   0.2785 C.ar           1 noname            -0.0379
     11 C8         -37.9071 -37.3475   0.9818 C.ar           1 noname            -0.0260
     12 C9         -37.1348 -37.9889   1.9251 C.ar           1 noname             0.0003
     13 N3         -37.2294 -39.2979   2.1937 N.ar           1 noname            -0.2412
     14 C10        -41.8714 -41.5204   2.7712 C.ar           1 noname            -0.0140
     15 C11        -42.6358 -41.7475   3.9129 C.ar           1 noname            -0.0201
     16 C12        -44.0185 -41.7565   3.8566 C.ar           1 noname            -0.0181
     17 C13        -44.6463 -41.5572   2.6474 C.ar           1 noname            -0.0097
     18 C14        -43.9185 -41.3484   1.4974 C.ar           1 noname            -0.0181
     19 C15        -42.5364 -41.3289   1.5632 C.ar           1 noname            -0.0201
     20 C16        -36.7256 -42.6496   3.3289 C.2            1 noname             0.0697
     21 O2         -36.3878 -43.1722   4.3916 O.2            1 noname            -0.2900
     22 C17        -37.2311 -42.3782   1.0178 C.3            1 noname            -0.0112
     23 C18        -36.5043 -43.2694   1.9875 C.3            1 noname             0.0244
     24 Cl1        -46.3857 -41.5702   2.5714 Cl             1 noname            -0.0849
     25 H1         -36.4105 -37.4021   2.4805 H              1 noname             0.0003
     26 H2         -42.1500 -41.9267   4.8654 H              1 noname            -0.0201
     27 H3         -44.6023 -41.9208   4.7563 H              1 noname            -0.0181
     28 H4         -44.4239 -41.1994   0.5488 H              1 noname            -0.0181
     29 H5         -41.9710 -41.1578   0.6532 H              1 noname            -0.0201
     30 H6         -39.6619 -40.0596  -0.0055 H              1 noname            -0.0133
     31 H7         -39.4531 -37.6270  -0.4724 H              1 noname            -0.0379
     32 H8         -37.7954 -36.2840   0.7979 H              1 noname            -0.0260
     33 H9         -40.4508 -40.5655   4.7697 H              1 noname            -0.0111
     34 H10        -38.1228 -41.0239   5.2242 H              1 noname            -0.0624
     35 H11        -36.5231 -41.7450   0.4851 H              1 noname            -0.0112
     36 H12        -37.7911 -42.9784   0.3022 H              1 noname            -0.0112
     37 H13        -36.9140 -44.2780   1.9604 H              1 noname             0.0244
     38 H14        -35.4415 -43.3028   1.7528 H              1 noname             0.0244
     39 ****       -39.5382 -42.7335   0.0279 LP             1 noname             0.0000
     40 ****       -41.1192 -42.6422   0.7296 LP             1 noname             0.0000
     41 ****       -36.6504 -39.7262   2.8875 LP             1 noname             0.0000
     42 ****       -36.8756 -42.9494   5.2356 LP             1 noname             0.0000
     43 ****       -35.6257 -43.8194   4.4105 LP             1 noname             0.0000
@<TRIPOS>BOND
    1    1    2 2     
    2    6    1 1     
    3    2    3 1     
    4    3    4 1     
    5    3   20 am    
    6    4    5 1     
    7    4    8 1     
    8    4   22 1     
    9    5    6 am    
   10    5    7 2     
   11   14    6 1     
   12    8    9 ar    
   13   13    8 ar    
   14    9   10 ar    
   15   10   11 ar    
   16   11   12 ar    
   17   12   13 ar    
   18   14   15 ar    
   19   19   14 ar    
   20   15   16 ar    
   21   16   17 ar    
   22   17   18 ar    
   23   17   24 1     
   24   18   19 ar    
   25   20   21 2     
   26   23   20 1     
   27   22   23 1     
   28   12   25 1     
   29   15   26 1     
   30   16   27 1     
   31   18   28 1     
   32   19   29 1     
   33    9   30 1     
   34   10   31 1     
   35   11   32 1     
   36    1   33 1     
   37    2   34 1     
   38   22   35 1     
   39   22   36 1     
   40   23   37 1     
   41   23   38 1     
   42    7   39 1     
   43    7   40 1     
   44   13   41 1     
   45   21   42 1     
   46   21   43 1     
@<TRIPOS>SUBSTRUCTURE
      1 noname         1
@<TRIPOS>SET
LONE_PAIRS      STATIC     ATOMS    <user>   **** ""
5 39 40 41 42 43
ATOM$BLUE        STATIC     ATOMS    COLORGROUP SYSTEM
5 39 40 41 42 43
@<TRIPOS>COMMENT
> <Gold.Version>
2022.3.0

> <Gold.Id.Protein>
unknown|6c5f_clean|pdb

> <Gold.Protein.ActiveResidues>
 LEU49   SER50   GLN58   ILE95   LEU96   ILE97   ARG98   PRO1    PHE2    LEU3   
 LEU30   LYS32   PRO33   ASP35   ARG36   VAL37   ASN38   ILE61   SER62   SER63  
 ILE64   GLY65   VAL66   VAL67   PHE100  LEU102  GLU103  SER104  TRP105  GLN106 
 ILE107  GLY108  LYS109  ILE110  THR112  VAL113  PRO1    GLN58   PHE2    LEU96  
 LEU30   LYS32   PRO33   PHE2    PRO1    PRO101  LEU102  GLU103  VAL37   ASN38  
 LEU49   SER50   ILE61   SER62   SER63   ILE64   ILE64   GLY65   VAL66   VAL67  
 PRO33   ARG36   VAL37   PRO1    SER104  TRP105  GLN106  ILE107  GLY108  LYS109 
 ILE110  PRO1    PHE2    LEU3    ILE110  VAL113  LEU96   ILE97   ARG98   PHE2   
 PRO1   

> <Gold.Score>
     Score     S(PLP)   S(hbond)     S(cho)   S(metal)  DE(clash)   DE(tors)     intcor
     51.47     -47.90       0.00       1.97       0.00       0.00       1.43       0.54

> <Gold.PLP.Fitness>
51.4690

> <Gold.PLP.PLP>
-47.8961

> <Gold.PLP.part.hbond>
0.0000

> <Gold.PLP.part.metal>
0.0000

> <Gold.PLP.part.buried>
-0.6757

> <Gold.PLP.part.nonpolar>
-47.6957

> <Gold.PLP.part.repulsive>
0.3659

> <Gold.PLP.ligand.clash>
0.0000

> <Gold.PLP.ligand.torsion>
1.4296

> <Gold.PLP.Chemscore.Hbond>
0.0000

> <Gold.PLP.Chemscore.CHOScore>
1.9652

> <Gold.PLP.Chemscore.Metal>
0.0000

> <Gold.Chemscore.Hbonds>
donor molecule, donor type, donor heavy atom, donor atom, acceptor molecule, acceptor atom, score
      L1  C    12    25       P1  2116  0.97
      L1  C    12    25       P1  2115  1.00

> <Gold.PLP.Chemscore.Internal.Correction>
0.5365

> <Gold.PLP.Reference.RMSD>
4.3665

> <Gold.Rescore>
     Score         DG    S(hbond)    S(metal)    S(lipo)     H(rot)  DE(clash)    DE(int)     intcor
     21.53     -24.68       0.00        0.00     185.99       1.00       0.33       2.83       ----

> <Gold.Chemscore.Fitness>
21.5264

> <Gold.Chemscore.DG>
-24.6812

> <Gold.Chemscore.ZeroCoef>
-5.4800

> <Gold.Chemscore.Hbond>
0.0000

> <Gold.Chemscore.Metal>
0.0000

> <Gold.Chemscore.Lipo>
185.9934

> <Gold.Chemscore.Internal_Hbond>
0.0000

> <Gold.Chemscore.DEClash>
0.3276

> <Gold.Chemscore.DEInternal>
2.8273

> <Gold.Chemscore.Rot>
1.0000

> <Gold.Chemscore.Internal.Correction>
   9.000000E+99

> <Gold.Chemscore.Reference.RMSD>
0.0000

> <Gold.Chemscore.Hbond.Weighted>
-0.0000

> <Gold.Chemscore.Metal.Weighted>
-0.0000

> <Gold.Chemscore.Lipo.Weighted>
-21.7612

> <Gold.Chemscore.Internal_Hbond.Weighted>
0.0000

> <Gold.Chemscore.DEClash.Weighted>
0.3276

> <Gold.Chemscore.DEInternal.Weighted>
2.8273

> <Gold.Chemscore.Rot.Weighted>
2.5600

> <Gold.Chemscore.Internal.Correction.Weighted>
   9.000000E+99

> <Gold.Reference.RMSD>
4.3665

