#       Name:                00000001
#       Creating user name   hitesit
#       Creation time:       Mon Feb 27 15:35:04 2023


#       File generated by GOLD software.
#

@<TRIPOS>MOLECULE
00000001|prep_VS_2|mol2|1|dock4
    43    46     1
SMALL
USER_CHARGES


@<TRIPOS>ATOM
      1 C1         -41.5124 -40.6130  -0.5375 C.2            1 noname            -0.0111
      2 C2         -40.6193 -39.9184  -1.2425 C.2            1 noname            -0.0624
      3 N1         -39.6982 -39.1046  -0.6281 N.am           1 noname             0.0259
      4 C3         -39.5025 -39.1680   0.8334 C.3            1 noname             0.1489
      5 C4         -40.7213 -39.7257   1.5741 C.2            1 noname             0.1550
      6 N2         -41.6096 -40.5147   0.8384 N.am           1 noname            -0.1166
      7 O1         -40.8506 -39.4650   2.7547 O.2            1 noname            -0.2620
      8 C5         -38.3245 -40.1083   1.1382 C.ar           1 noname             0.0167
      9 C6         -37.5533 -40.6645   0.1288 C.ar           1 noname            -0.0133
     10 C7         -36.5076 -41.4994   0.4837 C.ar           1 noname            -0.0379
     11 C8         -36.2613 -41.7539   1.8162 C.ar           1 noname            -0.0260
     12 C9         -37.0782 -41.1571   2.7512 C.ar           1 noname             0.0003
     13 N3         -38.0960 -40.3454   2.4347 N.ar           1 noname            -0.2412
     14 C10        -42.6999 -41.2299   1.4713 C.ar           1 noname            -0.0140
     15 C11        -43.9944 -41.1974   0.9591 C.ar           1 noname            -0.0201
     16 C12        -45.0201 -41.9015   1.5650 C.ar           1 noname            -0.0181
     17 C13        -44.7584 -42.6297   2.7039 C.ar           1 noname            -0.0097
     18 C14        -43.4930 -42.6672   3.2454 C.ar           1 noname            -0.0181
     19 C15        -42.4696 -41.9701   2.6276 C.ar           1 noname            -0.0201
     20 C16        -38.8359 -38.1944  -1.2056 C.2            1 noname             0.0697
     21 O2         -38.7274 -37.9756  -2.4043 O.2            1 noname            -0.2900
     22 C17        -39.1184 -37.6939   1.0649 C.3            1 noname            -0.0112
     23 C18        -38.1035 -37.5366  -0.0633 C.3            1 noname             0.0244
     24 Cl1        -46.0465 -43.5152   3.4709 Cl             1 noname            -0.0849
     25 H1         -36.8869 -41.3552   3.8007 H              1 noname             0.0003
     26 H2         -37.7641 -40.4504  -0.9137 H              1 noname            -0.0133
     27 H3         -38.6945 -37.5047   2.0588 H              1 noname            -0.0112
     28 H4         -39.9816 -37.0325   0.9196 H              1 noname            -0.0112
     29 H5         -37.8746 -36.4827  -0.2635 H              1 noname             0.0244
     30 H6         -37.1607 -38.0528   0.1551 H              1 noname             0.0244
     31 H7         -42.2003 -41.2521  -1.0804 H              1 noname            -0.0111
     32 H8         -40.6328 -39.9826  -2.3255 H              1 noname            -0.0624
     33 H9         -44.2146 -40.6096   0.0751 H              1 noname            -0.0201
     34 H10        -46.0214 -41.8787   1.1474 H              1 noname            -0.0181
     35 H11        -43.2999 -43.2388   4.1473 H              1 noname            -0.0181
     36 H12        -41.4745 -42.0101   3.0578 H              1 noname            -0.0201
     37 H13        -35.8856 -41.9509  -0.2822 H              1 noname            -0.0379
     38 H14        -35.4479 -42.4050   2.1194 H              1 noname            -0.0260
     39 ****       -40.1699 -38.8986   3.2191 LP             1 noname             0.0000
     40 ****       -41.6377 -39.8171   3.2611 LP             1 noname             0.0000
     41 ****       -38.6659 -39.9308   3.1441 LP             1 noname             0.0000
     42 ****       -39.2939 -38.4779  -3.0575 LP             1 noname             0.0000
     43 ****       -38.0722 -37.2944  -2.7309 LP             1 noname             0.0000
@<TRIPOS>BOND
    1    1    2 2     
    2    6    1 1     
    3    2    3 1     
    4    3    4 1     
    5    3   20 am    
    6    4    5 1     
    7    4    8 1     
    8    4   22 1     
    9    5    6 am    
   10    5    7 2     
   11   14    6 1     
   12    8    9 ar    
   13   13    8 ar    
   14    9   10 ar    
   15   10   11 ar    
   16   11   12 ar    
   17   12   13 ar    
   18   14   15 ar    
   19   19   14 ar    
   20   15   16 ar    
   21   16   17 ar    
   22   17   18 ar    
   23   17   24 1     
   24   18   19 ar    
   25   20   21 2     
   26   23   20 1     
   27   22   23 1     
   28   12   25 1     
   29    9   26 1     
   30   22   27 1     
   31   22   28 1     
   32   23   29 1     
   33   23   30 1     
   34    1   31 1     
   35    2   32 1     
   36   15   33 1     
   37   16   34 1     
   38   18   35 1     
   39   19   36 1     
   40   10   37 1     
   41   11   38 1     
   42    7   39 1     
   43    7   40 1     
   44   13   41 1     
   45   21   42 1     
   46   21   43 1     
@<TRIPOS>SUBSTRUCTURE
      1 noname         1
@<TRIPOS>SET
LONE_PAIRS      STATIC     ATOMS    <user>   **** ""
5 39 40 41 42 43
ATOM$BLUE        STATIC     ATOMS    COLORGROUP SYSTEM
5 39 40 41 42 43
@<TRIPOS>COMMENT
> <Gold.Version>
2022.3.0

> <Gold.Id.Protein>
unknown|6c5f_clean|pdb

> <Gold.Protein.ActiveResidues>
 LEU49   SER50   GLN58   ILE95   LEU96   ILE97   ARG98   PRO1    PHE2    LEU3   
 LEU30   LYS32   PRO33   ASP35   ARG36   VAL37   ASN38   ILE61   SER62   SER63  
 ILE64   GLY65   VAL66   VAL67   PHE100  LEU102  GLU103  SER104  TRP105  GLN106 
 ILE107  GLY108  LYS109  ILE110  THR112  VAL113  PHE2    ILE61   SER62   SER63  
 ILE64   PHE2    PRO1    PHE2    PRO1    PHE2    LEU3    LEU96   ILE97   ARG98  
 PHE2    ARG36   VAL37   ASN38   PRO1    PRO1    VAL113  PHE2    LEU30   LYS32  
 PRO33   GLN106  ILE107  GLY108  LYS109  ILE110  ILE64   GLY65   VAL66   VAL67  
 GLN58   PRO1    PRO101  LEU102  GLU103  SER104  TRP105  PHE2    LEU49   SER50  
 PHE2   

> <Gold.Score>
     Fitness  S(hb_ext) S(vdw_ext)  S(hb_int)    S(int)      intcor
     45.12       0.00      33.93       0.00      -1.54      -1.12

> <Gold.Goldscore.Fitness>
45.1160

> <Gold.Goldscore.Internal.Vdw>
0.9867

> <Gold.Goldscore.Internal.Torsion>
-3.6387

> <Gold.Goldscore.External.Vdw>
33.9295

> <Gold.Goldscore.Internal.HBond>
0.0000

> <Gold.Goldscore.External.HBond>
0.0000

> <Gold.Goldscore.Internal.Correction>
-1.1150

> <Gold.Goldscore.Reference.RMSD>
4.2605

> <Gold.Goldscore.Internal.Vdw.Weighted>
0.9867

> <Gold.Goldscore.Internal.Torsion.Weighted>
-3.6387

> <Gold.Goldscore.External.Vdw.Weighted>
46.6530

> <Gold.Goldscore.Internal.HBond.Weighted>
0.0000

> <Gold.Goldscore.External.HBond.Weighted>
0.0000

> <Gold.Goldscore.Internal.Correction.Weighted>
-1.1150

> <Gold.Rescore>
     Score         DG    S(hbond)    S(metal)    S(lipo)     H(rot)  DE(clash)    DE(int)     intcor
     14.98     -21.88       0.00        0.00     162.03       1.00       3.71       3.19       ----

> <Gold.Chemscore.Fitness>
14.9759

> <Gold.Chemscore.DG>
-21.8772

> <Gold.Chemscore.ZeroCoef>
-5.4800

> <Gold.Chemscore.Hbond>
0.0000

> <Gold.Chemscore.Metal>
0.0000

> <Gold.Chemscore.Lipo>
162.0272

> <Gold.Chemscore.Internal_Hbond>
0.0000

> <Gold.Chemscore.DEClash>
3.7089

> <Gold.Chemscore.DEInternal>
3.1923

> <Gold.Chemscore.Rot>
1.0000

> <Gold.Chemscore.Internal.Correction>
   9.000000E+99

> <Gold.Chemscore.Reference.RMSD>
0.0000

> <Gold.Chemscore.Hbond.Weighted>
-0.0000

> <Gold.Chemscore.Metal.Weighted>
-0.0000

> <Gold.Chemscore.Lipo.Weighted>
-18.9572

> <Gold.Chemscore.Internal_Hbond.Weighted>
0.0000

> <Gold.Chemscore.DEClash.Weighted>
3.7089

> <Gold.Chemscore.DEInternal.Weighted>
3.1923

> <Gold.Chemscore.Rot.Weighted>
2.5600

> <Gold.Chemscore.Internal.Correction.Weighted>
   9.000000E+99

> <Gold.Reference.RMSD>
4.2605

#       Name:                00000001
#       Creating user name   hitesit
#       Creation time:       Mon Feb 27 15:35:08 2023


#       File generated by GOLD software.
#

@<TRIPOS>MOLECULE
00000001|prep_VS_2|mol2|1|dock7
    43    46     1
SMALL
USER_CHARGES


@<TRIPOS>ATOM
      1 C1         -41.4766 -40.5171  -0.5591 C.2            1 noname            -0.0111
      2 C2         -40.5687 -39.8182  -1.2406 C.2            1 noname            -0.0624
      3 N1         -39.6390 -39.0350  -0.5999 N.am           1 noname             0.0259
      4 C3         -39.4532 -39.1394   0.8605 C.3            1 noname             0.1489
      5 C4         -40.6849 -39.6974   1.5794 C.2            1 noname             0.1550
      6 N2         -41.5807 -40.4531   0.8183 N.am           1 noname            -0.1166
      7 O1         -40.8174 -39.4655   2.7657 O.2            1 noname            -0.2620
      8 C5         -38.2916 -40.1055   1.1474 C.ar           1 noname             0.0167
      9 C6         -37.5059 -40.6261   0.1302 C.ar           1 noname            -0.0133
     10 C7         -36.4766 -41.4876   0.4691 C.ar           1 noname            -0.0379
     11 C8         -36.2601 -41.8024   1.7938 C.ar           1 noname            -0.0260
     12 C9         -37.0895 -41.2374   2.7375 C.ar           1 noname             0.0003
     13 N3         -38.0921 -40.4012   2.4366 N.ar           1 noname            -0.2412
     14 C10        -42.6856 -41.1676   1.4261 C.ar           1 noname            -0.0140
     15 C11        -43.9681 -41.1344   0.8843 C.ar           1 noname            -0.0201
     16 C12        -45.0078 -41.8378   1.4666 C.ar           1 noname            -0.0181
     17 C13        -44.7728 -42.5660   2.6112 C.ar           1 noname            -0.0097
     18 C14        -43.5201 -42.6043   3.1817 C.ar           1 noname            -0.0181
     19 C15        -42.4824 -41.9079   2.5875 C.ar           1 noname            -0.0201
     20 C16        -38.7594 -38.1236  -1.1485 C.2            1 noname             0.0697
     21 O2         -38.6402 -37.8753  -2.3404 O.2            1 noname            -0.2900
     22 C17        -39.0481 -37.6780   1.1326 C.3            1 noname            -0.0112
     23 C18        -38.0240 -37.5071   0.0147 C.3            1 noname             0.0244
     24 Cl1        -46.0786 -43.4506   3.3486 Cl             1 noname            -0.0849
     25 H1         -36.9217 -41.4830   3.7810 H              1 noname             0.0003
     26 H2         -37.6933 -40.3646  -0.9059 H              1 noname            -0.0133
     27 H3         -38.6274 -37.5214   2.1335 H              1 noname            -0.0112
     28 H4         -39.9001 -36.9998   0.9998 H              1 noname            -0.0112
     29 H5         -37.7777 -36.4520  -0.1565 H              1 noname             0.0244
     30 H6         -37.0906 -38.0434   0.2249 H              1 noname             0.0244
     31 H7         -42.1709 -41.1311  -1.1224 H              1 noname            -0.0111
     32 H8         -40.5765 -39.8540  -2.3250 H              1 noname            -0.0624
     33 H9         -44.1675 -40.5464  -0.0045 H              1 noname            -0.0201
     34 H10        -45.9992 -41.8144   1.0262 H              1 noname            -0.0181
     35 H11        -43.3481 -43.1759   4.0878 H              1 noname            -0.0181
     36 H12        -41.4974 -41.9484   3.0403 H              1 noname            -0.0201
     37 H13        -35.8440 -41.9125  -0.3033 H              1 noname            -0.0379
     38 H14        -35.4600 -42.4752   2.0844 H              1 noname            -0.0260
     39 ****       -40.1309 -38.9220   3.2486 LP             1 noname             0.0000
     40 ****       -41.6129 -39.8184   3.2583 LP             1 noname             0.0000
     41 ****       -38.6719 -40.0112   3.1520 LP             1 noname             0.0000
     42 ****       -39.2104 -38.3517  -3.0098 LP             1 noname             0.0000
     43 ****       -37.9727 -37.1961  -2.6454 LP             1 noname             0.0000
@<TRIPOS>BOND
    1    1    2 2     
    2    6    1 1     
    3    2    3 1     
    4    3    4 1     
    5    3   20 am    
    6    4    5 1     
    7    4    8 1     
    8    4   22 1     
    9    5    6 am    
   10    5    7 2     
   11   14    6 1     
   12    8    9 ar    
   13   13    8 ar    
   14    9   10 ar    
   15   10   11 ar    
   16   11   12 ar    
   17   12   13 ar    
   18   14   15 ar    
   19   19   14 ar    
   20   15   16 ar    
   21   16   17 ar    
   22   17   18 ar    
   23   17   24 1     
   24   18   19 ar    
   25   20   21 2     
   26   23   20 1     
   27   22   23 1     
   28   12   25 1     
   29    9   26 1     
   30   22   27 1     
   31   22   28 1     
   32   23   29 1     
   33   23   30 1     
   34    1   31 1     
   35    2   32 1     
   36   15   33 1     
   37   16   34 1     
   38   18   35 1     
   39   19   36 1     
   40   10   37 1     
   41   11   38 1     
   42    7   39 1     
   43    7   40 1     
   44   13   41 1     
   45   21   42 1     
   46   21   43 1     
@<TRIPOS>SUBSTRUCTURE
      1 noname         1
@<TRIPOS>SET
LONE_PAIRS      STATIC     ATOMS    <user>   **** ""
5 39 40 41 42 43
ATOM$BLUE        STATIC     ATOMS    COLORGROUP SYSTEM
5 39 40 41 42 43
@<TRIPOS>COMMENT
> <Gold.Version>
2022.3.0

> <Gold.Id.Protein>
unknown|6c5f_clean|pdb

> <Gold.Protein.ActiveResidues>
 LEU49   SER50   GLN58   ILE95   LEU96   ILE97   ARG98   PRO1    PHE2    LEU3   
 LEU30   LYS32   PRO33   ASP35   ARG36   VAL37   ASN38   ILE61   SER62   SER63  
 ILE64   GLY65   VAL66   VAL67   PHE100  LEU102  GLU103  SER104  TRP105  GLN106 
 ILE107  GLY108  LYS109  ILE110  THR112  VAL113  PHE2    ILE61   SER62   SER63  
 ILE64   PHE2    PRO1    PHE2    PRO1    PHE2    LEU3    LEU96   ILE97   ARG98  
 PHE2    ARG36   VAL37   ASN38   PRO1    PRO1    VAL113  PHE2    LEU30   LYS32  
 PRO33   GLN106  ILE107  GLY108  LYS109  ILE110  ILE64   GLY65   VAL66   VAL67  
 GLN58   PRO1    PRO101  LEU102  GLU103  SER104  TRP105  PHE2    LEU49   SER50  
 PHE2   

> <Gold.Score>
     Fitness  S(hb_ext) S(vdw_ext)  S(hb_int)    S(int)      intcor
     44.70       0.00      33.79       0.00      -1.77      -1.12

> <Gold.Goldscore.Fitness>
44.7005

> <Gold.Goldscore.Internal.Vdw>
0.5357

> <Gold.Goldscore.Internal.Torsion>
-3.4181

> <Gold.Goldscore.External.Vdw>
33.7948

> <Gold.Goldscore.Internal.HBond>
0.0000

> <Gold.Goldscore.External.HBond>
0.0000

> <Gold.Goldscore.Internal.Correction>
-1.1150

> <Gold.Goldscore.Reference.RMSD>
4.2608

> <Gold.Goldscore.Internal.Vdw.Weighted>
0.5357

> <Gold.Goldscore.Internal.Torsion.Weighted>
-3.4181

> <Gold.Goldscore.External.Vdw.Weighted>
46.4678

> <Gold.Goldscore.Internal.HBond.Weighted>
0.0000

> <Gold.Goldscore.External.HBond.Weighted>
0.0000

> <Gold.Goldscore.Internal.Correction.Weighted>
-1.1150

> <Gold.Rescore>
     Score         DG    S(hbond)    S(metal)    S(lipo)     H(rot)  DE(clash)    DE(int)     intcor
     14.85     -23.56       0.00        0.00     176.39       1.00       4.68       4.03       ----

> <Gold.Chemscore.Fitness>
14.8469

> <Gold.Chemscore.DG>
-23.5574

> <Gold.Chemscore.ZeroCoef>
-5.4800

> <Gold.Chemscore.Hbond>
0.0000

> <Gold.Chemscore.Metal>
0.0000

> <Gold.Chemscore.Lipo>
176.3881

> <Gold.Chemscore.Internal_Hbond>
0.0000

> <Gold.Chemscore.DEClash>
4.6791

> <Gold.Chemscore.DEInternal>
4.0314

> <Gold.Chemscore.Rot>
1.0000

> <Gold.Chemscore.Internal.Correction>
   9.000000E+99

> <Gold.Chemscore.Reference.RMSD>
0.0000

> <Gold.Chemscore.Hbond.Weighted>
-0.0000

> <Gold.Chemscore.Metal.Weighted>
-0.0000

> <Gold.Chemscore.Lipo.Weighted>
-20.6374

> <Gold.Chemscore.Internal_Hbond.Weighted>
0.0000

> <Gold.Chemscore.DEClash.Weighted>
4.6791

> <Gold.Chemscore.DEInternal.Weighted>
4.0314

> <Gold.Chemscore.Rot.Weighted>
2.5600

> <Gold.Chemscore.Internal.Correction.Weighted>
   9.000000E+99

> <Gold.Reference.RMSD>
4.2608

#       Name:                00000001
#       Creating user name   hitesit
#       Creation time:       Mon Feb 27 15:35:11 2023


#       File generated by GOLD software.
#

@<TRIPOS>MOLECULE
00000001|prep_VS_2|mol2|1|dock9
    43    46     1
SMALL
USER_CHARGES


@<TRIPOS>ATOM
      1 C1         -41.5930 -40.4891  -0.5195 C.2            1 noname            -0.0111
      2 C2         -40.6730 -39.8339  -1.2277 C.2            1 noname            -0.0624
      3 N1         -39.7260 -39.0470  -0.6175 N.am           1 noname             0.0259
      4 C3         -39.5385 -39.1021   0.8453 C.3            1 noname             0.1489
      5 C4         -40.7793 -39.6085   1.5864 C.2            1 noname             0.1550
      6 N2         -41.6922 -40.3730   0.8549 N.am           1 noname            -0.1166
      7 O1         -40.9041 -39.3311   2.7636 O.2            1 noname            -0.2620
      8 C5         -38.3959 -40.0804   1.1649 C.ar           1 noname             0.0167
      9 C6         -37.6234 -40.6532   0.1659 C.ar           1 noname            -0.0133
     10 C7         -36.6107 -41.5225   0.5340 C.ar           1 noname            -0.0379
     11 C8         -36.3974 -41.7936   1.8688 C.ar           1 noname            -0.0260
     12 C9         -37.2130 -41.1783   2.7929 C.ar           1 noname             0.0003
     13 N3         -38.1992 -40.3334   2.4637 N.ar           1 noname            -0.2412
     14 C10        -42.8097 -41.0424   1.4903 C.ar           1 noname            -0.0140
     15 C11        -42.6620 -41.7475   2.6820 C.ar           1 noname            -0.0201
     16 C12        -43.7435 -42.3650   3.2853 C.ar           1 noname            -0.0181
     17 C13        -44.9811 -42.2964   2.6857 C.ar           1 noname            -0.0097
     18 C14        -45.1562 -41.6225   1.4978 C.ar           1 noname            -0.0181
     19 C15        -44.0727 -40.9974   0.9062 C.ar           1 noname            -0.0201
     20 C16        -38.8296 -38.1741  -1.2006 C.2            1 noname             0.0697
     21 O2         -38.7085 -37.9718  -2.4010 O.2            1 noname            -0.2900
     22 C17        -39.1032 -37.6403   1.0634 C.3            1 noname            -0.0112
     23 C18        -38.0789 -37.5309  -0.0619 C.3            1 noname             0.0244
     24 Cl1        -46.3442 -43.0740   3.4400 Cl             1 noname            -0.0849
     25 H1         -37.0476 -41.3894   3.8443 H              1 noname             0.0003
     26 H2         -37.8080 -40.4256  -0.8787 H              1 noname            -0.0133
     27 H3         -38.6769 -37.4560   2.0571 H              1 noname            -0.0112
     28 H4         -39.9417 -36.9502   0.9075 H              1 noname            -0.0112
     29 H5         -37.8118 -36.4879  -0.2719 H              1 noname             0.0244
     30 H6         -37.1559 -38.0780   0.1659 H              1 noname             0.0244
     31 H7         -42.3010 -41.1090  -1.0588 H              1 noname            -0.0111
     32 H8         -40.6843 -39.9089  -2.3100 H              1 noname            -0.0624
     33 H9         -41.6873 -41.8251   3.1504 H              1 noname            -0.0201
     34 H10        -43.6172 -42.8995   4.2211 H              1 noname            -0.0181
     35 H11        -46.1348 -41.5809   1.0308 H              1 noname            -0.0181
     36 H12        -44.2210 -40.4637  -0.0266 H              1 noname            -0.0201
     37 H13        -35.9887 -41.9877  -0.2236 H              1 noname            -0.0379
     38 H14        -35.6103 -42.4716   2.1822 H              1 noname            -0.0260
     39 ****       -40.2055 -38.7844   3.2252 LP             1 noname             0.0000
     40 ****       -41.7052 -39.6497   3.2702 LP             1 noname             0.0000
     41 ****       -38.7693 -39.9062   3.1654 LP             1 noname             0.0000
     42 ****       -39.2899 -38.4605  -3.0515 LP             1 noname             0.0000
     43 ****       -38.0282 -37.3177  -2.7317 LP             1 noname             0.0000
@<TRIPOS>BOND
    1    1    2 2     
    2    6    1 1     
    3    2    3 1     
    4    3    4 1     
    5    3   20 am    
    6    4    5 1     
    7    4    8 1     
    8    4   22 1     
    9    5    6 am    
   10    5    7 2     
   11   14    6 1     
   12    8    9 ar    
   13   13    8 ar    
   14    9   10 ar    
   15   10   11 ar    
   16   11   12 ar    
   17   12   13 ar    
   18   14   15 ar    
   19   19   14 ar    
   20   15   16 ar    
   21   16   17 ar    
   22   17   18 ar    
   23   17   24 1     
   24   18   19 ar    
   25   20   21 2     
   26   23   20 1     
   27   22   23 1     
   28   12   25 1     
   29    9   26 1     
   30   22   27 1     
   31   22   28 1     
   32   23   29 1     
   33   23   30 1     
   34    1   31 1     
   35    2   32 1     
   36   15   33 1     
   37   16   34 1     
   38   18   35 1     
   39   19   36 1     
   40   10   37 1     
   41   11   38 1     
   42    7   39 1     
   43    7   40 1     
   44   13   41 1     
   45   21   42 1     
   46   21   43 1     
@<TRIPOS>SUBSTRUCTURE
      1 noname         1
@<TRIPOS>SET
LONE_PAIRS      STATIC     ATOMS    <user>   **** ""
5 39 40 41 42 43
ATOM$BLUE        STATIC     ATOMS    COLORGROUP SYSTEM
5 39 40 41 42 43
@<TRIPOS>COMMENT
> <Gold.Version>
2022.3.0

> <Gold.Id.Protein>
unknown|6c5f_clean|pdb

> <Gold.Protein.ActiveResidues>
 LEU49   SER50   GLN58   ILE95   LEU96   ILE97   ARG98   PRO1    PHE2    LEU3   
 LEU30   LYS32   PRO33   ASP35   ARG36   VAL37   ASN38   ILE61   SER62   SER63  
 ILE64   GLY65   VAL66   VAL67   PHE100  LEU102  GLU103  SER104  TRP105  GLN106 
 ILE107  GLY108  LYS109  ILE110  THR112  VAL113  PHE2    ILE61   SER62   SER63  
 ILE64   PHE2    PRO1    PHE2    PRO1    PHE2    LEU3    LEU96   ILE97   ARG98  
 PHE2    ARG36   VAL37   ASN38   PRO1    PRO1    VAL113  PHE2    LEU30   LYS32  
 PRO33   GLN106  ILE107  GLY108  LYS109  ILE110  ILE64   GLY65   VAL66   VAL67  
 GLN58   PRO1    PRO101  LEU102  GLU103  SER104  TRP105  PHE2    LEU49   SER50  
 PHE2   

> <Gold.Score>
     Fitness  S(hb_ext) S(vdw_ext)  S(hb_int)    S(int)      intcor
     44.58       0.00      33.99       0.00      -2.15      -1.12

> <Gold.Goldscore.Fitness>
44.5825

> <Gold.Goldscore.Internal.Vdw>
0.0704

> <Gold.Goldscore.Internal.Torsion>
-3.3362

> <Gold.Goldscore.External.Vdw>
33.9878

> <Gold.Goldscore.Internal.HBond>
0.0000

> <Gold.Goldscore.External.HBond>
0.0000

> <Gold.Goldscore.Internal.Correction>
-1.1150

> <Gold.Goldscore.Reference.RMSD>
4.0871

> <Gold.Goldscore.Internal.Vdw.Weighted>
0.0704

> <Gold.Goldscore.Internal.Torsion.Weighted>
-3.3362

> <Gold.Goldscore.External.Vdw.Weighted>
46.7332

> <Gold.Goldscore.Internal.HBond.Weighted>
0.0000

> <Gold.Goldscore.External.HBond.Weighted>
0.0000

> <Gold.Goldscore.Internal.Correction.Weighted>
-1.1150

> <Gold.Rescore>
     Score         DG    S(hbond)    S(metal)    S(lipo)     H(rot)  DE(clash)    DE(int)     intcor
     15.78     -23.81       0.00        0.00     178.56       1.00       4.40       3.63       ----

> <Gold.Chemscore.Fitness>
15.7811

> <Gold.Chemscore.DG>
-23.8114

> <Gold.Chemscore.ZeroCoef>
-5.4800

> <Gold.Chemscore.Hbond>
0.0000

> <Gold.Chemscore.Metal>
0.0000

> <Gold.Chemscore.Lipo>
178.5594

> <Gold.Chemscore.Internal_Hbond>
0.0000

> <Gold.Chemscore.DEClash>
4.4015

> <Gold.Chemscore.DEInternal>
3.6289

> <Gold.Chemscore.Rot>
1.0000

> <Gold.Chemscore.Internal.Correction>
   9.000000E+99

> <Gold.Chemscore.Reference.RMSD>
0.0000

> <Gold.Chemscore.Hbond.Weighted>
-0.0000

> <Gold.Chemscore.Metal.Weighted>
-0.0000

> <Gold.Chemscore.Lipo.Weighted>
-20.8914

> <Gold.Chemscore.Internal_Hbond.Weighted>
0.0000

> <Gold.Chemscore.DEClash.Weighted>
4.4015

> <Gold.Chemscore.DEInternal.Weighted>
3.6289

> <Gold.Chemscore.Rot.Weighted>
2.5600

> <Gold.Chemscore.Internal.Correction.Weighted>
   9.000000E+99

> <Gold.Reference.RMSD>
4.0871

#       Name:                00000001
#       Creating user name   hitesit
#       Creation time:       Mon Feb 27 15:35:03 2023


#       File generated by GOLD software.
#

@<TRIPOS>MOLECULE
00000001|prep_VS_2|mol2|1|dock3
    43    46     1
SMALL
USER_CHARGES


@<TRIPOS>ATOM
      1 C1         -41.5254 -40.6336  -0.5358 C.2            1 noname            -0.0111
      2 C2         -40.5991 -39.9618  -1.2200 C.2            1 noname            -0.0624
      3 N1         -39.6709 -39.1730  -0.5840 N.am           1 noname             0.0259
      4 C3         -39.5091 -39.2430   0.8813 C.3            1 noname             0.1489
      5 C4         -40.7581 -39.7695   1.5941 C.2            1 noname             0.1550
      6 N2         -41.6503 -40.5342   0.8377 N.am           1 noname            -0.1166
      7 O1         -40.9065 -39.5067   2.7719 O.2            1 noname            -0.2620
      8 C5         -38.3631 -40.2141   1.2104 C.ar           1 noname             0.0167
      9 C6         -38.1340 -40.6632   2.5023 C.ar           1 noname            -0.0133
     10 C7         -37.0839 -41.5391   2.7180 C.ar           1 noname            -0.0379
     11 C8         -36.3013 -41.9390   1.6557 C.ar           1 noname            -0.0260
     12 C9         -36.6027 -41.4429   0.4065 C.ar           1 noname             0.0003
     13 N3         -37.6127 -40.5948   0.1705 N.ar           1 noname            -0.2412
     14 C10        -42.7725 -41.2213   1.4453 C.ar           1 noname            -0.0140
     15 C11        -44.0497 -41.1729   0.8923 C.ar           1 noname            -0.0201
     16 C12        -45.1064 -41.8504   1.4749 C.ar           1 noname            -0.0181
     17 C13        -44.8936 -42.5675   2.6308 C.ar           1 noname            -0.0097
     18 C14        -43.6465 -42.6200   3.2123 C.ar           1 noname            -0.0181
     19 C15        -42.5919 -41.9497   2.6179 C.ar           1 noname            -0.0201
     20 C16        -38.7726 -38.2851  -1.1410 C.2            1 noname             0.0697
     21 O2         -38.6320 -38.0680  -2.3367 O.2            1 noname            -0.2900
     22 C17        -39.0919 -37.7797   1.1235 C.3            1 noname            -0.0112
     23 C18        -38.0486 -37.6478   0.0181 C.3            1 noname             0.0244
     24 Cl1        -46.2207 -43.4195   3.3685 Cl             1 noname            -0.0849
     25 H1         -35.9889 -41.7558  -0.4318 H              1 noname             0.0003
     26 H2         -38.7626 -40.3362   3.3239 H              1 noname            -0.0133
     27 H3         -38.6852 -37.6027   2.1268 H              1 noname            -0.0112
     28 H4         -39.9341 -37.0958   0.9603 H              1 noname            -0.0112
     29 H5         -37.7878 -36.6001  -0.1752 H              1 noname             0.0244
     30 H6         -37.1247 -38.1888   0.2564 H              1 noname             0.0244
     31 H7         -42.2176 -41.2540  -1.0948 H              1 noname            -0.0111
     32 H8         -40.5904 -40.0246  -2.3031 H              1 noname            -0.0624
     33 H9         -44.2315 -40.5933  -0.0058 H              1 noname            -0.0201
     34 H10        -46.0936 -41.8155   1.0258 H              1 noname            -0.0181
     35 H11        -43.4921 -43.1826   4.1272 H              1 noname            -0.0181
     36 H12        -41.6116 -42.0014   3.0796 H              1 noname            -0.0201
     37 H13        -36.8779 -41.9086   3.7171 H              1 noname            -0.0379
     38 H14        -35.4725 -42.6245   1.7994 H              1 noname            -0.0260
     39 ****       -40.2216 -38.9587   3.2522 LP             1 noname             0.0000
     40 ****       -41.7136 -39.8386   3.2604 LP             1 noname             0.0000
     41 ****       -37.7994 -40.2577  -0.7523 LP             1 noname             0.0000
     42 ****       -39.1969 -38.5547  -3.0030 LP             1 noname             0.0000
     43 ****       -37.9522 -37.4038  -2.6477 LP             1 noname             0.0000
@<TRIPOS>BOND
    1    1    2 2     
    2    6    1 1     
    3    2    3 1     
    4    3    4 1     
    5    3   20 am    
    6    4    5 1     
    7    4    8 1     
    8    4   22 1     
    9    5    6 am    
   10    5    7 2     
   11   14    6 1     
   12    8    9 ar    
   13   13    8 ar    
   14    9   10 ar    
   15   10   11 ar    
   16   11   12 ar    
   17   12   13 ar    
   18   14   15 ar    
   19   19   14 ar    
   20   15   16 ar    
   21   16   17 ar    
   22   17   18 ar    
   23   17   24 1     
   24   18   19 ar    
   25   20   21 2     
   26   23   20 1     
   27   22   23 1     
   28   12   25 1     
   29    9   26 1     
   30   22   27 1     
   31   22   28 1     
   32   23   29 1     
   33   23   30 1     
   34    1   31 1     
   35    2   32 1     
   36   15   33 1     
   37   16   34 1     
   38   18   35 1     
   39   19   36 1     
   40   10   37 1     
   41   11   38 1     
   42    7   39 1     
   43    7   40 1     
   44   13   41 1     
   45   21   42 1     
   46   21   43 1     
@<TRIPOS>SUBSTRUCTURE
      1 noname         1
@<TRIPOS>SET
LONE_PAIRS      STATIC     ATOMS    <user>   **** ""
5 39 40 41 42 43
ATOM$BLUE        STATIC     ATOMS    COLORGROUP SYSTEM
5 39 40 41 42 43
@<TRIPOS>COMMENT
> <Gold.Version>
2022.3.0

> <Gold.Id.Protein>
unknown|6c5f_clean|pdb

> <Gold.Protein.ActiveResidues>
 LEU49   SER50   GLN58   ILE95   LEU96   ILE97   ARG98   PRO1    PHE2    LEU3   
 LEU30   LYS32   PRO33   ASP35   ARG36   VAL37   ASN38   ILE61   SER62   SER63  
 ILE64   GLY65   VAL66   VAL67   PHE100  LEU102  GLU103  SER104  TRP105  GLN106 
 ILE107  GLY108  LYS109  ILE110  THR112  VAL113  PHE2    ILE61   SER62   SER63  
 ILE64   PHE2    PRO1    PHE2    PRO1    PHE2    LEU3    LEU96   ILE97   ARG98  
 PHE2    ARG36   VAL37   ASN38   PRO1    PRO1    VAL113  PHE2    LEU30   LYS32  
 PRO33   GLN106  ILE107  GLY108  LYS109  ILE110  ILE64   GLY65   VAL66   VAL67  
 GLN58   PRO1    PRO101  LEU102  GLU103  SER104  TRP105  PHE2    LEU49   SER50  
 PHE2   

> <Gold.Score>
     Fitness  S(hb_ext) S(vdw_ext)  S(hb_int)    S(int)      intcor
     44.28       0.00      33.18       0.00      -1.33      -1.12

> <Gold.Goldscore.Fitness>
44.2809

> <Gold.Goldscore.Internal.Vdw>
1.0635

> <Gold.Goldscore.Internal.Torsion>
-3.5134

> <Gold.Goldscore.External.Vdw>
33.1751

> <Gold.Goldscore.Internal.HBond>
0.0000

> <Gold.Goldscore.External.HBond>
0.0000

> <Gold.Goldscore.Internal.Correction>
-1.1150

> <Gold.Goldscore.Reference.RMSD>
4.1725

> <Gold.Goldscore.Internal.Vdw.Weighted>
1.0635

> <Gold.Goldscore.Internal.Torsion.Weighted>
-3.5134

> <Gold.Goldscore.External.Vdw.Weighted>
45.6158

> <Gold.Goldscore.Internal.HBond.Weighted>
0.0000

> <Gold.Goldscore.External.HBond.Weighted>
0.0000

> <Gold.Goldscore.Internal.Correction.Weighted>
-1.1150

> <Gold.Rescore>
     Score         DG    S(hbond)    S(metal)    S(lipo)     H(rot)  DE(clash)    DE(int)     intcor
     16.34     -21.50       0.00        0.00     158.80       1.00       3.07       2.09       ----

> <Gold.Chemscore.Fitness>
16.3391

> <Gold.Chemscore.DG>
-21.5000

> <Gold.Chemscore.ZeroCoef>
-5.4800

> <Gold.Chemscore.Hbond>
0.0000

> <Gold.Chemscore.Metal>
0.0000

> <Gold.Chemscore.Lipo>
158.8038

> <Gold.Chemscore.Internal_Hbond>
0.0000

> <Gold.Chemscore.DEClash>
3.0690

> <Gold.Chemscore.DEInternal>
2.0920

> <Gold.Chemscore.Rot>
1.0000

> <Gold.Chemscore.Internal.Correction>
   9.000000E+99

> <Gold.Chemscore.Reference.RMSD>
0.0000

> <Gold.Chemscore.Hbond.Weighted>
-0.0000

> <Gold.Chemscore.Metal.Weighted>
-0.0000

> <Gold.Chemscore.Lipo.Weighted>
-18.5800

> <Gold.Chemscore.Internal_Hbond.Weighted>
0.0000

> <Gold.Chemscore.DEClash.Weighted>
3.0690

> <Gold.Chemscore.DEInternal.Weighted>
2.0920

> <Gold.Chemscore.Rot.Weighted>
2.5600

> <Gold.Chemscore.Internal.Correction.Weighted>
   9.000000E+99

> <Gold.Reference.RMSD>
4.1725

#       Name:                00000001
#       Creating user name   hitesit
#       Creation time:       Mon Feb 27 15:35:12 2023


#       File generated by GOLD software.
#

@<TRIPOS>MOLECULE
00000001|prep_VS_2|mol2|1|dock10
    43    46     1
SMALL
USER_CHARGES


@<TRIPOS>ATOM
      1 C1         -40.9431 -41.2275   3.6566 C.2            1 noname            -0.0111
      2 C2         -39.6294 -41.2269   3.8836 C.2            1 noname            -0.0624
      3 N1         -38.7300 -41.5126   2.8848 N.am           1 noname             0.0259
      4 C3         -39.1717 -41.5796   1.4781 C.3            1 noname             0.1489
      5 C4         -40.6683 -41.8722   1.3369 C.2            1 noname             0.1550
      6 N2         -41.4837 -41.5713   2.4312 N.am           1 noname            -0.1166
      7 O1         -41.0707 -42.3387   0.2886 O.2            1 noname            -0.2620
      8 C5         -38.9169 -40.2180   0.8103 C.ar           1 noname             0.0167
      9 C6         -39.0165 -40.0471  -0.5622 C.ar           1 noname            -0.0133
     10 C7         -38.7750 -38.7895  -1.0881 C.ar           1 noname            -0.0379
     11 C8         -38.4459 -37.7501  -0.2442 C.ar           1 noname            -0.0260
     12 C9         -38.3709 -38.0114   1.1062 C.ar           1 noname             0.0003
     13 N3         -38.5999 -39.2183   1.6408 N.ar           1 noname            -0.2412
     14 C10        -42.9288 -41.6480   2.3506 C.ar           1 noname            -0.0140
     15 C11        -43.6884 -42.2566   3.3466 C.ar           1 noname            -0.0201
     16 C12        -45.0688 -42.3044   3.2633 C.ar           1 noname            -0.0181
     17 C13        -45.6985 -41.7581   2.1675 C.ar           1 noname            -0.0097
     18 C14        -44.9746 -41.1656   1.1571 C.ar           1 noname            -0.0181
     19 C15        -43.5952 -41.1109   1.2526 C.ar           1 noname            -0.0201
     20 C16        -37.3705 -41.7277   2.9891 C.2            1 noname             0.0697
     21 O2         -36.7160 -41.6697   4.0209 O.2            1 noname            -0.2900
     22 C17        -38.1700 -42.6420   0.9866 C.3            1 noname            -0.0112
     23 C18        -36.8972 -42.0638   1.5974 C.3            1 noname             0.0244
     24 Cl1        -47.4350 -41.8182   2.0573 Cl             1 noname            -0.0849
     25 H1         -38.1123 -37.1955   1.7731 H              1 noname             0.0003
     26 H2         -39.2775 -40.8788  -1.2082 H              1 noname            -0.0133
     27 H3         -38.1264 -42.7275  -0.1062 H              1 noname            -0.0112
     28 H4         -38.4013 -43.6286   1.4070 H              1 noname            -0.0112
     29 H5         -36.0765 -42.7917   1.5978 H              1 noname             0.0244
     30 H6         -36.5550 -41.1674   1.0659 H              1 noname             0.0244
     31 H7         -41.6000 -40.9751   4.4820 H              1 noname            -0.0111
     32 H8         -39.2641 -41.0149   4.8829 H              1 noname            -0.0624
     33 H9         -43.2001 -42.7084   4.2027 H              1 noname            -0.0201
     34 H10        -45.6494 -42.7695   4.0533 H              1 noname            -0.0181
     35 H11        -45.4811 -40.7445   0.2948 H              1 noname            -0.0181
     36 H12        -43.0333 -40.6369   0.4548 H              1 noname            -0.0201
     37 H13        -38.8443 -38.6229  -2.1580 H              1 noname            -0.0379
     38 H14        -38.2519 -36.7556  -0.6324 H              1 noname            -0.0260
     39 ****       -40.4289 -42.5222  -0.4560 LP             1 noname             0.0000
     40 ****       -42.0434 -42.5388   0.1711 LP             1 noname             0.0000
     41 ****       -38.5359 -39.3670   2.6276 LP             1 noname             0.0000
     42 ****       -37.1658 -41.4504   4.8867 LP             1 noname             0.0000
     43 ****       -35.7311 -41.8416   3.9987 LP             1 noname             0.0000
@<TRIPOS>BOND
    1    1    2 2     
    2    6    1 1     
    3    2    3 1     
    4    3    4 1     
    5    3   20 am    
    6    4    5 1     
    7    4    8 1     
    8    4   22 1     
    9    5    6 am    
   10    5    7 2     
   11   14    6 1     
   12    8    9 ar    
   13   13    8 ar    
   14    9   10 ar    
   15   10   11 ar    
   16   11   12 ar    
   17   12   13 ar    
   18   14   15 ar    
   19   19   14 ar    
   20   15   16 ar    
   21   16   17 ar    
   22   17   18 ar    
   23   17   24 1     
   24   18   19 ar    
   25   20   21 2     
   26   23   20 1     
   27   22   23 1     
   28   12   25 1     
   29    9   26 1     
   30   22   27 1     
   31   22   28 1     
   32   23   29 1     
   33   23   30 1     
   34    1   31 1     
   35    2   32 1     
   36   15   33 1     
   37   16   34 1     
   38   18   35 1     
   39   19   36 1     
   40   10   37 1     
   41   11   38 1     
   42    7   39 1     
   43    7   40 1     
   44   13   41 1     
   45   21   42 1     
   46   21   43 1     
@<TRIPOS>SUBSTRUCTURE
      1 noname         1
@<TRIPOS>SET
LONE_PAIRS      STATIC     ATOMS    <user>   **** ""
5 39 40 41 42 43
ATOM$BLUE        STATIC     ATOMS    COLORGROUP SYSTEM
5 39 40 41 42 43
@<TRIPOS>COMMENT
> <Gold.Version>
2022.3.0

> <Gold.Id.Protein>
unknown|6c5f_clean|pdb

> <Gold.Protein.ActiveResidues>
 LEU49   SER50   GLN58   ILE95   LEU96   ILE97   ARG98   PRO1    PHE2    LEU3   
 LEU30   LYS32   PRO33   ASP35   ARG36   VAL37   ASN38   ILE61   SER62   SER63  
 ILE64   GLY65   VAL66   VAL67   PHE100  LEU102  GLU103  SER104  TRP105  GLN106 
 ILE107  GLY108  LYS109  ILE110  THR112  VAL113  PHE2    ILE61   SER62   SER63  
 ILE64   PHE2    PRO1    PHE2    PRO1    PHE2    LEU3    LEU96   ILE97   ARG98  
 PHE2    ARG36   VAL37   ASN38   PRO1    PRO1    VAL113  PHE2    LEU30   LYS32  
 PRO33   GLN106  ILE107  GLY108  LYS109  ILE110  ILE64   GLY65   VAL66   VAL67  
 GLN58   PRO1    PRO101  LEU102  GLU103  SER104  TRP105  PHE2    LEU49   SER50  
 PHE2   

> <Gold.Score>
     Fitness  S(hb_ext) S(vdw_ext)  S(hb_int)    S(int)      intcor
     44.21       0.00      32.22       0.00      -0.09      -1.12

> <Gold.Goldscore.Fitness>
44.2141

> <Gold.Goldscore.Internal.Vdw>
2.2751

> <Gold.Goldscore.Internal.Torsion>
-3.4812

> <Gold.Goldscore.External.Vdw>
32.2220

> <Gold.Goldscore.Internal.HBond>
0.0000

> <Gold.Goldscore.External.HBond>
0.0000

> <Gold.Goldscore.Internal.Correction>
-1.1150

> <Gold.Goldscore.Reference.RMSD>
4.1063

> <Gold.Goldscore.Internal.Vdw.Weighted>
2.2751

> <Gold.Goldscore.Internal.Torsion.Weighted>
-3.4812

> <Gold.Goldscore.External.Vdw.Weighted>
44.3052

> <Gold.Goldscore.Internal.HBond.Weighted>
0.0000

> <Gold.Goldscore.External.HBond.Weighted>
0.0000

> <Gold.Goldscore.Internal.Correction.Weighted>
-1.1150

> <Gold.Rescore>
     Score         DG    S(hbond)    S(metal)    S(lipo)     H(rot)  DE(clash)    DE(int)     intcor
     22.72     -24.75       0.00        0.00     186.62       1.00       0.76       1.27       ----

> <Gold.Chemscore.Fitness>
22.7200

> <Gold.Chemscore.DG>
-24.7549

> <Gold.Chemscore.ZeroCoef>
-5.4800

> <Gold.Chemscore.Hbond>
0.0000

> <Gold.Chemscore.Metal>
0.0000

> <Gold.Chemscore.Lipo>
186.6230

> <Gold.Chemscore.Internal_Hbond>
0.0000

> <Gold.Chemscore.DEClash>
0.7640

> <Gold.Chemscore.DEInternal>
1.2709

> <Gold.Chemscore.Rot>
1.0000

> <Gold.Chemscore.Internal.Correction>
   9.000000E+99

> <Gold.Chemscore.Reference.RMSD>
0.0000

> <Gold.Chemscore.Hbond.Weighted>
-0.0000

> <Gold.Chemscore.Metal.Weighted>
-0.0000

> <Gold.Chemscore.Lipo.Weighted>
-21.8349

> <Gold.Chemscore.Internal_Hbond.Weighted>
0.0000

> <Gold.Chemscore.DEClash.Weighted>
0.7640

> <Gold.Chemscore.DEInternal.Weighted>
1.2709

> <Gold.Chemscore.Rot.Weighted>
2.5600

> <Gold.Chemscore.Internal.Correction.Weighted>
   9.000000E+99

> <Gold.Reference.RMSD>
4.1063

#       Name:                00000001
#       Creating user name   hitesit
#       Creation time:       Mon Feb 27 15:35:00 2023


#       File generated by GOLD software.
#

@<TRIPOS>MOLECULE
00000001|prep_VS_2|mol2|1|dock1
    43    46     1
SMALL
USER_CHARGES


@<TRIPOS>ATOM
      1 C1         -41.6026 -40.6252  -0.5088 C.2            1 noname            -0.0111
      2 C2         -40.6760 -39.9629  -1.2016 C.2            1 noname            -0.0624
      3 N1         -39.7503 -39.1625  -0.5765 N.am           1 noname             0.0259
      4 C3         -39.5914 -39.2088   0.8900 C.3            1 noname             0.1489
      5 C4         -40.8411 -39.7258   1.6086 C.2            1 noname             0.1550
      6 N2         -41.7304 -40.5040   0.8628 N.am           1 noname            -0.1166
      7 O1         -40.9924 -39.4445   2.7818 O.2            1 noname            -0.2620
      8 C5         -38.4445 -40.1726   1.2370 C.ar           1 noname             0.0167
      9 C6         -37.6715 -40.7724   0.2543 C.ar           1 noname            -0.0133
     10 C7         -36.6548 -41.6263   0.6467 C.ar           1 noname            -0.0379
     11 C8         -36.4382 -41.8561   1.9887 C.ar           1 noname            -0.0260
     12 C9         -37.2546 -41.2162   2.8953 C.ar           1 noname             0.0003
     13 N3         -38.2446 -40.3855   2.5425 N.ar           1 noname            -0.2412
     14 C10        -42.8529 -41.1832   1.4789 C.ar           1 noname            -0.0140
     15 C11        -42.7067 -41.9383   2.6399 C.ar           1 noname            -0.0201
     16 C12        -43.7926 -42.5647   3.2258 C.ar           1 noname            -0.0181
     17 C13        -45.0333 -42.4546   2.6390 C.ar           1 noname            -0.0097
     18 C14        -45.2073 -41.7304   1.4809 C.ar           1 noname            -0.0181
     19 C15        -44.1192 -41.0969   0.9069 C.ar           1 noname            -0.0201
     20 C16        -38.8523 -38.2821  -1.1458 C.2            1 noname             0.0697
     21 O2         -38.7096 -38.0839  -2.3445 O.2            1 noname            -0.2900
     22 C17        -39.1771 -37.7412   1.1097 C.3            1 noname            -0.0112
     23 C18        -38.1318 -37.6252   0.0045 C.3            1 noname             0.0244
     24 Cl1        -46.4019 -43.2432   3.3715 Cl             1 noname            -0.0849
     25 H1         -37.0866 -41.3948   3.9522 H              1 noname             0.0003
     26 H2         -37.8587 -40.5772  -0.7963 H              1 noname            -0.0133
     27 H3         -38.7728 -37.5475   2.1109 H              1 noname            -0.0112
     28 H4         -40.0201 -37.0613   0.9339 H              1 noname            -0.0112
     29 H5         -37.8723 -36.5803  -0.2050 H              1 noname             0.0244
     30 H6         -37.2074 -38.1608   0.2533 H              1 noname             0.0244
     31 H7         -42.2926 -41.2555  -1.0592 H              1 noname            -0.0111
     32 H8         -40.6649 -40.0429  -2.2836 H              1 noname            -0.0624
     33 H9         -41.7299 -42.0484   3.0972 H              1 noname            -0.0201
     34 H10        -43.6672 -43.1386   4.1381 H              1 noname            -0.0181
     35 H11        -46.1884 -41.6562   1.0235 H              1 noname            -0.0181
     36 H12        -44.2665 -40.5235  -0.0022 H              1 noname            -0.0201
     37 H13        -36.0323 -42.1118  -0.0976 H              1 noname            -0.0379
     38 H14        -35.6479 -42.5212   2.3211 H              1 noname            -0.0260
     39 ****       -40.3094 -38.8878   3.2546 LP             1 noname             0.0000
     40 ****       -41.7999 -39.7699   3.2739 LP             1 noname             0.0000
     41 ****       -38.8152 -39.9394   3.2320 LP             1 noname             0.0000
     42 ****       -39.2723 -38.5821  -3.0041 LP             1 noname             0.0000
     43 ****       -38.0302 -37.4237  -2.6647 LP             1 noname             0.0000
@<TRIPOS>BOND
    1    1    2 2     
    2    6    1 1     
    3    2    3 1     
    4    3    4 1     
    5    3   20 am    
    6    4    5 1     
    7    4    8 1     
    8    4   22 1     
    9    5    6 am    
   10    5    7 2     
   11   14    6 1     
   12    8    9 ar    
   13   13    8 ar    
   14    9   10 ar    
   15   10   11 ar    
   16   11   12 ar    
   17   12   13 ar    
   18   14   15 ar    
   19   19   14 ar    
   20   15   16 ar    
   21   16   17 ar    
   22   17   18 ar    
   23   17   24 1     
   24   18   19 ar    
   25   20   21 2     
   26   23   20 1     
   27   22   23 1     
   28   12   25 1     
   29    9   26 1     
   30   22   27 1     
   31   22   28 1     
   32   23   29 1     
   33   23   30 1     
   34    1   31 1     
   35    2   32 1     
   36   15   33 1     
   37   16   34 1     
   38   18   35 1     
   39   19   36 1     
   40   10   37 1     
   41   11   38 1     
   42    7   39 1     
   43    7   40 1     
   44   13   41 1     
   45   21   42 1     
   46   21   43 1     
@<TRIPOS>SUBSTRUCTURE
      1 noname         1
@<TRIPOS>SET
LONE_PAIRS      STATIC     ATOMS    <user>   **** ""
5 39 40 41 42 43
ATOM$BLUE        STATIC     ATOMS    COLORGROUP SYSTEM
5 39 40 41 42 43
@<TRIPOS>COMMENT
> <Gold.Version>
2022.3.0

> <Gold.Id.Protein>
unknown|6c5f_clean|pdb

> <Gold.Protein.ActiveResidues>
 LEU49   SER50   GLN58   ILE95   LEU96   ILE97   ARG98   PRO1    PHE2    LEU3   
 LEU30   LYS32   PRO33   ASP35   ARG36   VAL37   ASN38   ILE61   SER62   SER63  
 ILE64   GLY65   VAL66   VAL67   PHE100  LEU102  GLU103  SER104  TRP105  GLN106 
 ILE107  GLY108  LYS109  ILE110  THR112  VAL113  PHE2    ILE61   SER62   SER63  
 ILE64   PHE2    PRO1    PHE2    PRO1    PHE2    LEU3    LEU96   ILE97   ARG98  
 PHE2    ARG36   VAL37   ASN38   PRO1    PRO1    VAL113  PHE2    LEU30   LYS32  
 PRO33   GLN106  ILE107  GLY108  LYS109  ILE110  ILE64   GLY65   VAL66   VAL67  
 GLN58   PRO1    PRO101  LEU102  GLU103  SER104  TRP105  PHE2    LEU49   SER50  
 PHE2   

> <Gold.Score>
     Fitness  S(hb_ext) S(vdw_ext)  S(hb_int)    S(int)      intcor
     44.09       0.00      33.29       0.00      -1.69      -1.12

> <Gold.Goldscore.Fitness>
44.0859

> <Gold.Goldscore.Internal.Vdw>
0.9016

> <Gold.Goldscore.Internal.Torsion>
-3.7115

> <Gold.Goldscore.External.Vdw>
33.2934

> <Gold.Goldscore.Internal.HBond>
0.0000

> <Gold.Goldscore.External.HBond>
0.0000

> <Gold.Goldscore.Internal.Correction>
-1.1174

> <Gold.Goldscore.Reference.RMSD>
4.0899

> <Gold.Goldscore.Internal.Vdw.Weighted>
0.9016

> <Gold.Goldscore.Internal.Torsion.Weighted>
-3.7115

> <Gold.Goldscore.External.Vdw.Weighted>
45.7785

> <Gold.Goldscore.Internal.HBond.Weighted>
0.0000

> <Gold.Goldscore.External.HBond.Weighted>
0.0000

> <Gold.Goldscore.Internal.Correction.Weighted>
-1.1174

> <Gold.Rescore>
     Score         DG    S(hbond)    S(metal)    S(lipo)     H(rot)  DE(clash)    DE(int)     intcor
     16.53     -23.42       0.00        0.00     175.24       1.00       3.87       3.03       ----

> <Gold.Chemscore.Fitness>
16.5251

> <Gold.Chemscore.DG>
-23.4229

> <Gold.Chemscore.ZeroCoef>
-5.4800

> <Gold.Chemscore.Hbond>
0.0000

> <Gold.Chemscore.Metal>
0.0000

> <Gold.Chemscore.Lipo>
175.2383

> <Gold.Chemscore.Internal_Hbond>
0.0000

> <Gold.Chemscore.DEClash>
3.8715

> <Gold.Chemscore.DEInternal>
3.0263

> <Gold.Chemscore.Rot>
1.0000

> <Gold.Chemscore.Internal.Correction>
   9.000000E+99

> <Gold.Chemscore.Reference.RMSD>
0.0000

> <Gold.Chemscore.Hbond.Weighted>
-0.0000

> <Gold.Chemscore.Metal.Weighted>
-0.0000

> <Gold.Chemscore.Lipo.Weighted>
-20.5029

> <Gold.Chemscore.Internal_Hbond.Weighted>
0.0000

> <Gold.Chemscore.DEClash.Weighted>
3.8715

> <Gold.Chemscore.DEInternal.Weighted>
3.0263

> <Gold.Chemscore.Rot.Weighted>
2.5600

> <Gold.Chemscore.Internal.Correction.Weighted>
   9.000000E+99

> <Gold.Reference.RMSD>
4.0899

#       Name:                00000001
#       Creating user name   hitesit
#       Creation time:       Mon Feb 27 15:35:09 2023


#       File generated by GOLD software.
#

@<TRIPOS>MOLECULE
00000001|prep_VS_2|mol2|1|dock8
    43    46     1
SMALL
USER_CHARGES


@<TRIPOS>ATOM
      1 C1         -41.9738 -40.6331  -0.5137 C.2            1 noname            -0.0111
      2 C2         -40.9742 -40.1052  -1.2205 C.2            1 noname            -0.0624
      3 N1         -39.9143 -39.4822  -0.6069 N.am           1 noname             0.0259
      4 C3         -39.7212 -39.5991   0.8516 C.3            1 noname             0.1489
      5 C4         -41.0154 -39.9331   1.5990 C.2            1 noname             0.1550
      6 N2         -42.0396 -40.5362   0.8641 N.am           1 noname            -0.1166
      7 O1         -41.0847 -39.6683   2.7837 O.2            1 noname            -0.2620
      8 C5         -38.7333 -40.7434   1.1335 C.ar           1 noname             0.0167
      9 C6         -38.9079 -42.0090   0.5942 C.ar           1 noname            -0.0133
     10 C7         -37.9734 -42.9859   0.8922 C.ar           1 noname            -0.0379
     11 C8         -36.9047 -42.6801   1.7077 C.ar           1 noname            -0.0260
     12 C9         -36.8109 -41.3961   2.1979 C.ar           1 noname             0.0003
     13 N3         -37.7007 -40.4325   1.9249 N.ar           1 noname            -0.2412
     14 C10        -43.2373 -41.0472   1.5006 C.ar           1 noname            -0.0140
     15 C11        -44.4904 -40.9370   0.9031 C.ar           1 noname            -0.0201
     16 C12        -45.6212 -41.4473   1.5159 C.ar           1 noname            -0.0181
     17 C13        -45.5064 -42.0563   2.7454 C.ar           1 noname            -0.0097
     18 C14        -44.2845 -42.1648   3.3707 C.ar           1 noname            -0.0181
     19 C15        -43.1560 -41.6626   2.7468 C.ar           1 noname            -0.0201
     20 C16        -38.9044 -38.7384  -1.1835 C.2            1 noname             0.0697
     21 O2         -38.7676 -38.5279  -2.3808 O.2            1 noname            -0.2900
     22 C17        -39.0711 -38.2236   1.0953 C.3            1 noname            -0.0112
     23 C18        -38.0541 -38.2408  -0.0419 C.3            1 noname             0.0244
     24 Cl1        -46.9271 -42.6977   3.5212 Cl             1 noname            -0.0849
     25 H1         -35.9709 -41.1520   2.8399 H              1 noname             0.0003
     26 H2         -39.7561 -42.2281  -0.0459 H              1 noname            -0.0133
     27 H3         -38.6113 -38.1282   2.0866 H              1 noname            -0.0112
     28 H4         -39.7993 -37.4132   0.9665 H              1 noname            -0.0112
     29 H5         -37.6372 -37.2443  -0.2328 H              1 noname             0.0244
     30 H6         -37.2203 -38.9240   0.1608 H              1 noname             0.0244
     31 H7         -42.7719 -41.1281  -1.0563 H              1 noname            -0.0111
     32 H8         -41.0084 -40.1520  -2.3039 H              1 noname            -0.0624
     33 H9         -44.5937 -40.4401  -0.0550 H              1 noname            -0.0201
     34 H10        -46.5895 -41.3669   1.0327 H              1 noname            -0.0181
     35 H11        -44.2070 -42.6406   4.3428 H              1 noname            -0.0181
     36 H12        -42.1965 -41.7578   3.2439 H              1 noname            -0.0201
     37 H13        -38.0815 -43.9864   0.4865 H              1 noname            -0.0379
     38 H14        -36.1594 -43.4286   1.9560 H              1 noname            -0.0260
     39 ****       -40.3076 -39.2424   3.2471 LP             1 noname             0.0000
     40 ****       -41.9188 -39.8764   3.2946 LP             1 noname             0.0000
     41 ****       -37.5964 -39.5115   2.3003 LP             1 noname             0.0000
     42 ****       -39.4222 -38.9093  -3.0335 LP             1 noname             0.0000
     43 ****       -38.0013 -37.9743  -2.7068 LP             1 noname             0.0000
@<TRIPOS>BOND
    1    1    2 2     
    2    6    1 1     
    3    2    3 1     
    4    3    4 1     
    5    3   20 am    
    6    4    5 1     
    7    4    8 1     
    8    4   22 1     
    9    5    6 am    
   10    5    7 2     
   11   14    6 1     
   12    8    9 ar    
   13   13    8 ar    
   14    9   10 ar    
   15   10   11 ar    
   16   11   12 ar    
   17   12   13 ar    
   18   14   15 ar    
   19   19   14 ar    
   20   15   16 ar    
   21   16   17 ar    
   22   17   18 ar    
   23   17   24 1     
   24   18   19 ar    
   25   20   21 2     
   26   23   20 1     
   27   22   23 1     
   28   12   25 1     
   29    9   26 1     
   30   22   27 1     
   31   22   28 1     
   32   23   29 1     
   33   23   30 1     
   34    1   31 1     
   35    2   32 1     
   36   15   33 1     
   37   16   34 1     
   38   18   35 1     
   39   19   36 1     
   40   10   37 1     
   41   11   38 1     
   42    7   39 1     
   43    7   40 1     
   44   13   41 1     
   45   21   42 1     
   46   21   43 1     
@<TRIPOS>SUBSTRUCTURE
      1 noname         1
@<TRIPOS>SET
LONE_PAIRS      STATIC     ATOMS    <user>   **** ""
5 39 40 41 42 43
ATOM$BLUE        STATIC     ATOMS    COLORGROUP SYSTEM
5 39 40 41 42 43
@<TRIPOS>COMMENT
> <Gold.Version>
2022.3.0

> <Gold.Id.Protein>
unknown|6c5f_clean|pdb

> <Gold.Protein.ActiveResidues>
 LEU49   SER50   GLN58   ILE95   LEU96   ILE97   ARG98   PRO1    PHE2    LEU3   
 LEU30   LYS32   PRO33   ASP35   ARG36   VAL37   ASN38   ILE61   SER62   SER63  
 ILE64   GLY65   VAL66   VAL67   PHE100  LEU102  GLU103  SER104  TRP105  GLN106 
 ILE107  GLY108  LYS109  ILE110  THR112  VAL113  PHE2    ILE61   SER62   SER63  
 ILE64   PHE2    PRO1    PHE2    PRO1    PHE2    LEU3    LEU96   ILE97   ARG98  
 PHE2    ARG36   VAL37   ASN38   PRO1    PRO1    VAL113  PHE2    LEU30   LYS32  
 PRO33   GLN106  ILE107  GLY108  LYS109  ILE110  ILE64   GLY65   VAL66   VAL67  
 GLN58   PRO1    PRO101  LEU102  GLU103  SER104  TRP105  PHE2    LEU49   SER50  
 PHE2   

> <Gold.Score>
     Fitness  S(hb_ext) S(vdw_ext)  S(hb_int)    S(int)      intcor
     43.57       0.00      33.18       0.00      -2.06      -1.12

> <Gold.Goldscore.Fitness>
43.5722

> <Gold.Goldscore.Internal.Vdw>
-0.5702

> <Gold.Goldscore.Internal.Torsion>
-2.6006

> <Gold.Goldscore.External.Vdw>
33.1840

> <Gold.Goldscore.Internal.HBond>
0.0000

> <Gold.Goldscore.External.HBond>
0.0000

> <Gold.Goldscore.Internal.Correction>
-1.1150

> <Gold.Goldscore.Reference.RMSD>
4.3585

> <Gold.Goldscore.Internal.Vdw.Weighted>
-0.5702

> <Gold.Goldscore.Internal.Torsion.Weighted>
-2.6006

> <Gold.Goldscore.External.Vdw.Weighted>
45.6279

> <Gold.Goldscore.Internal.HBond.Weighted>
0.0000

> <Gold.Goldscore.External.HBond.Weighted>
0.0000

> <Gold.Goldscore.Internal.Correction.Weighted>
-1.1150

> <Gold.Rescore>
     Score         DG    S(hbond)    S(metal)    S(lipo)     H(rot)  DE(clash)    DE(int)     intcor
     15.47     -23.24       0.00        0.00     173.70       1.00       4.42       3.35       ----

> <Gold.Chemscore.Fitness>
15.4680

> <Gold.Chemscore.DG>
-23.2426

> <Gold.Chemscore.ZeroCoef>
-5.4800

> <Gold.Chemscore.Hbond>
0.0000

> <Gold.Chemscore.Metal>
0.0000

> <Gold.Chemscore.Lipo>
173.6975

> <Gold.Chemscore.Internal_Hbond>
0.0000

> <Gold.Chemscore.DEClash>
4.4237

> <Gold.Chemscore.DEInternal>
3.3509

> <Gold.Chemscore.Rot>
1.0000

> <Gold.Chemscore.Internal.Correction>
   9.000000E+99

> <Gold.Chemscore.Reference.RMSD>
0.0000

> <Gold.Chemscore.Hbond.Weighted>
-0.0000

> <Gold.Chemscore.Metal.Weighted>
-0.0000

> <Gold.Chemscore.Lipo.Weighted>
-20.3226

> <Gold.Chemscore.Internal_Hbond.Weighted>
0.0000

> <Gold.Chemscore.DEClash.Weighted>
4.4237

> <Gold.Chemscore.DEInternal.Weighted>
3.3509

> <Gold.Chemscore.Rot.Weighted>
2.5600

> <Gold.Chemscore.Internal.Correction.Weighted>
   9.000000E+99

> <Gold.Reference.RMSD>
4.3585

#       Name:                00000001
#       Creating user name   hitesit
#       Creation time:       Mon Feb 27 15:35:07 2023


#       File generated by GOLD software.
#

@<TRIPOS>MOLECULE
00000001|prep_VS_2|mol2|1|dock6
    43    46     1
SMALL
USER_CHARGES


@<TRIPOS>ATOM
      1 C1         -41.9011 -40.6795  -0.4488 C.2            1 noname            -0.0111
      2 C2         -40.9018 -40.1214  -1.1324 C.2            1 noname            -0.0624
      3 N1         -39.8533 -39.5050  -0.4929 N.am           1 noname             0.0259
      4 C3         -39.6702 -39.6611   0.9632 C.3            1 noname             0.1489
      5 C4         -40.9666 -40.0297   1.6905 C.2            1 noname             0.1550
      6 N2         -41.9786 -40.6224   0.9307 N.am           1 noname            -0.1166
      7 O1         -41.0479 -39.7992   2.8815 O.2            1 noname            -0.2620
      8 C5         -38.6725 -40.8026   1.2206 C.ar           1 noname             0.0167
      9 C6         -38.8345 -42.0569   0.6519 C.ar           1 noname            -0.0133
     10 C7         -37.8916 -43.0319   0.9292 C.ar           1 noname            -0.0379
     11 C8         -36.8272 -42.7352   1.7537 C.ar           1 noname            -0.0260
     12 C9         -36.7460 -41.4621   2.2735 C.ar           1 noname             0.0003
     13 N3         -37.6441 -40.5006   2.0210 N.ar           1 noname            -0.2412
     14 C10        -43.1757 -41.1637   1.5428 C.ar           1 noname            -0.0140
     15 C11        -43.1288 -41.8917   2.7290 C.ar           1 noname            -0.0201
     16 C12        -44.2836 -42.3853   3.3101 C.ar           1 noname            -0.0181
     17 C13        -45.4955 -42.1688   2.6937 C.ar           1 noname            -0.0097
     18 C14        -45.5733 -41.4686   1.5106 C.ar           1 noname            -0.0181
     19 C15        -44.4158 -40.9678   0.9412 C.ar           1 noname            -0.0201
     20 C16        -38.8470 -38.7346  -1.0402 C.2            1 noname             0.0697
     21 O2         -38.7032 -38.4889  -2.2299 O.2            1 noname            -0.2900
     22 C17        -39.0368 -38.2863   1.2508 C.3            1 noname            -0.0112
     23 C18        -38.0109 -38.2607   0.1218 C.3            1 noname             0.0244
     24 Cl1        -46.9508 -42.7902   3.4201 Cl             1 noname            -0.0849
     25 H1         -35.9094 -41.2252   2.9226 H              1 noname             0.0003
     26 H2         -39.6794 -42.2690   0.0053 H              1 noname            -0.0133
     27 H3         -38.5857 -38.2142   2.2481 H              1 noname            -0.0112
     28 H4         -39.7726 -37.4803   1.1391 H              1 noname            -0.0112
     29 H5         -37.6032 -37.2549  -0.0376 H              1 noname             0.0244
     30 H6         -37.1714 -38.9407   0.3118 H              1 noname             0.0244
     31 H7         -42.6896 -41.1673  -1.0116 H              1 noname            -0.0111
     32 H8         -40.9271 -40.1378  -2.2169 H              1 noname            -0.0624
     33 H9         -42.1769 -42.0857   3.2104 H              1 noname            -0.0201
     34 H10        -44.2342 -42.9392   4.2420 H              1 noname            -0.0181
     35 H11        -46.5332 -41.3100   1.0301 H              1 noname            -0.0181
     36 H12        -44.4870 -40.4121   0.0122 H              1 noname            -0.0201
     37 H13        -37.9898 -44.0237   0.5003 H              1 noname            -0.0379
     38 H14        -36.0755 -43.4824   1.9861 H              1 noname            -0.0260
     39 ****       -40.2790 -39.3785   3.3630 LP             1 noname             0.0000
     40 ****       -41.8836 -40.0303   3.3796 LP             1 noname             0.0000
     41 ****       -37.5489 -39.5876   2.4177 LP             1 noname             0.0000
     42 ****       -39.3487 -38.8585  -2.8983 LP             1 noname             0.0000
     43 ****       -37.9403 -37.9184  -2.5340 LP             1 noname             0.0000
@<TRIPOS>BOND
    1    1    2 2     
    2    6    1 1     
    3    2    3 1     
    4    3    4 1     
    5    3   20 am    
    6    4    5 1     
    7    4    8 1     
    8    4   22 1     
    9    5    6 am    
   10    5    7 2     
   11   14    6 1     
   12    8    9 ar    
   13   13    8 ar    
   14    9   10 ar    
   15   10   11 ar    
   16   11   12 ar    
   17   12   13 ar    
   18   14   15 ar    
   19   19   14 ar    
   20   15   16 ar    
   21   16   17 ar    
   22   17   18 ar    
   23   17   24 1     
   24   18   19 ar    
   25   20   21 2     
   26   23   20 1     
   27   22   23 1     
   28   12   25 1     
   29    9   26 1     
   30   22   27 1     
   31   22   28 1     
   32   23   29 1     
   33   23   30 1     
   34    1   31 1     
   35    2   32 1     
   36   15   33 1     
   37   16   34 1     
   38   18   35 1     
   39   19   36 1     
   40   10   37 1     
   41   11   38 1     
   42    7   39 1     
   43    7   40 1     
   44   13   41 1     
   45   21   42 1     
   46   21   43 1     
@<TRIPOS>SUBSTRUCTURE
      1 noname         1
@<TRIPOS>SET
LONE_PAIRS      STATIC     ATOMS    <user>   **** ""
5 39 40 41 42 43
ATOM$BLUE        STATIC     ATOMS    COLORGROUP SYSTEM
5 39 40 41 42 43
@<TRIPOS>COMMENT
> <Gold.Version>
2022.3.0

> <Gold.Id.Protein>
unknown|6c5f_clean|pdb

> <Gold.Protein.ActiveResidues>
 LEU49   SER50   GLN58   ILE95   LEU96   ILE97   ARG98   PRO1    PHE2    LEU3   
 LEU30   LYS32   PRO33   ASP35   ARG36   VAL37   ASN38   ILE61   SER62   SER63  
 ILE64   GLY65   VAL66   VAL67   PHE100  LEU102  GLU103  SER104  TRP105  GLN106 
 ILE107  GLY108  LYS109  ILE110  THR112  VAL113  PHE2    ILE61   SER62   SER63  
 ILE64   PHE2    PRO1    PHE2    PRO1    PHE2    LEU3    LEU96   ILE97   ARG98  
 PHE2    ARG36   VAL37   ASN38   PRO1    PRO1    VAL113  PHE2    LEU30   LYS32  
 PRO33   GLN106  ILE107  GLY108  LYS109  ILE110  ILE64   GLY65   VAL66   VAL67  
 GLN58   PRO1    PRO101  LEU102  GLU103  SER104  TRP105  PHE2    LEU49   SER50  
 PHE2   

> <Gold.Score>
     Fitness  S(hb_ext) S(vdw_ext)  S(hb_int)    S(int)      intcor
     43.55       0.00      33.05       0.00      -1.90      -1.12

> <Gold.Goldscore.Fitness>
43.5467

> <Gold.Goldscore.Internal.Vdw>
-0.0102

> <Gold.Goldscore.Internal.Torsion>
-3.0026

> <Gold.Goldscore.External.Vdw>
33.0506

> <Gold.Goldscore.Internal.HBond>
0.0000

> <Gold.Goldscore.External.HBond>
0.0000

> <Gold.Goldscore.Internal.Correction>
-1.1150

> <Gold.Goldscore.Reference.RMSD>
4.1593

> <Gold.Goldscore.Internal.Vdw.Weighted>
-0.0102

> <Gold.Goldscore.Internal.Torsion.Weighted>
-3.0026

> <Gold.Goldscore.External.Vdw.Weighted>
45.4446

> <Gold.Goldscore.Internal.HBond.Weighted>
0.0000

> <Gold.Goldscore.External.HBond.Weighted>
0.0000

> <Gold.Goldscore.Internal.Correction.Weighted>
-1.1150

> <Gold.Rescore>
     Score         DG    S(hbond)    S(metal)    S(lipo)     H(rot)  DE(clash)    DE(int)     intcor
     16.16     -23.94       0.00        0.00     179.65       1.00       4.62       3.16       ----

> <Gold.Chemscore.Fitness>
16.1600

> <Gold.Chemscore.DG>
-23.9386

> <Gold.Chemscore.ZeroCoef>
-5.4800

> <Gold.Chemscore.Hbond>
0.0000

> <Gold.Chemscore.Metal>
0.0000

> <Gold.Chemscore.Lipo>
179.6465

> <Gold.Chemscore.Internal_Hbond>
0.0000

> <Gold.Chemscore.DEClash>
4.6168

> <Gold.Chemscore.DEInternal>
3.1618

> <Gold.Chemscore.Rot>
1.0000

> <Gold.Chemscore.Internal.Correction>
   9.000000E+99

> <Gold.Chemscore.Reference.RMSD>
0.0000

> <Gold.Chemscore.Hbond.Weighted>
-0.0000

> <Gold.Chemscore.Metal.Weighted>
-0.0000

> <Gold.Chemscore.Lipo.Weighted>
-21.0186

> <Gold.Chemscore.Internal_Hbond.Weighted>
0.0000

> <Gold.Chemscore.DEClash.Weighted>
4.6168

> <Gold.Chemscore.DEInternal.Weighted>
3.1618

> <Gold.Chemscore.Rot.Weighted>
2.5600

> <Gold.Chemscore.Internal.Correction.Weighted>
   9.000000E+99

> <Gold.Reference.RMSD>
4.1593

#       Name:                00000001
#       Creating user name   hitesit
#       Creation time:       Mon Feb 27 15:35:06 2023


#       File generated by GOLD software.
#

@<TRIPOS>MOLECULE
00000001|prep_VS_2|mol2|1|dock5
    43    46     1
SMALL
USER_CHARGES


@<TRIPOS>ATOM
      1 C1         -41.9554 -40.7187  -0.3658 C.2            1 noname            -0.0111
      2 C2         -40.9398 -40.1672  -1.0304 C.2            1 noname            -0.0624
      3 N1         -39.8936 -39.5682  -0.3710 N.am           1 noname             0.0259
      4 C3         -39.7337 -39.7376   1.0863 C.3            1 noname             0.1489
      5 C4         -41.0447 -40.0963   1.7918 C.2            1 noname             0.1550
      6 N2         -42.0524 -40.6712   1.0128 N.am           1 noname            -0.1166
      7 O1         -41.1406 -39.8740   2.9834 O.2            1 noname            -0.2620
      8 C5         -38.7532 -40.8927   1.3492 C.ar           1 noname             0.0167
      9 C6         -38.8701 -42.1126   0.7002 C.ar           1 noname            -0.0133
     10 C7         -37.9464 -43.1026   0.9884 C.ar           1 noname            -0.0379
     11 C8         -36.9445 -42.8541   1.9024 C.ar           1 noname            -0.0260
     12 C9         -36.9048 -41.6127   2.4981 C.ar           1 noname             0.0003
     13 N3         -37.7856 -40.6376   2.2370 N.ar           1 noname            -0.2412
     14 C10        -43.2645 -41.2030   1.6033 C.ar           1 noname            -0.0140
     15 C11        -43.2437 -41.9390   2.7853 C.ar           1 noname            -0.0201
     16 C12        -44.4125 -42.4234   3.3457 C.ar           1 noname            -0.0181
     17 C13        -45.6126 -42.1894   2.7125 C.ar           1 noname            -0.0097
     18 C14        -45.6646 -41.4809   1.5330 C.ar           1 noname            -0.0181
     19 C15        -44.4932 -40.9894   0.9844 C.ar           1 noname            -0.0201
     20 C16        -38.8705 -38.8056  -0.8976 C.2            1 noname             0.0697
     21 O2         -38.7065 -38.5525  -2.0832 O.2            1 noname            -0.2900
     22 C17        -39.0884 -38.3727   1.3938 C.3            1 noname            -0.0112
     23 C18        -38.0459 -38.3505   0.2801 C.3            1 noname             0.0244
     24 Cl1        -47.0854 -42.7991   3.4128 Cl             1 noname            -0.0849
     25 H1         -36.1174 -41.4138   3.2177 H              1 noname             0.0003
     26 H2         -39.6661 -42.2868  -0.0162 H              1 noname            -0.0133
     27 H3         -38.6511 -38.3135   2.3981 H              1 noname            -0.0112
     28 H4         -39.8130 -37.5571   1.2777 H              1 noname            -0.0112
     29 H5         -37.6242 -37.3485   0.1345 H              1 noname             0.0244
     30 H6         -37.2174 -39.0418   0.4769 H              1 noname             0.0244
     31 H7         -42.7414 -41.1928  -0.9437 H              1 noname            -0.0111
     32 H8         -40.9495 -40.1751  -2.1153 H              1 noname            -0.0624
     33 H9         -42.3014 -42.1467   3.2797 H              1 noname            -0.0201
     34 H10        -44.3835 -42.9836   4.2746 H              1 noname            -0.0181
     35 H11        -46.6153 -41.3085   1.0391 H              1 noname            -0.0181
     36 H12        -44.5441 -40.4271   0.0580 H              1 noname            -0.0201
     37 H13        -38.0106 -44.0683   0.4980 H              1 noname            -0.0379
     38 H14        -36.2090 -43.6140   2.1452 H              1 noname            -0.0260
     39 ****       -40.3740 -39.4661   3.4792 LP             1 noname             0.0000
     40 ****       -41.9862 -40.0991   3.4675 LP             1 noname             0.0000
     41 ****       -37.7219 -39.7487   2.6907 LP             1 noname             0.0000
     42 ****       -39.3464 -38.9094  -2.7637 LP             1 noname             0.0000
     43 ****       -37.9326 -37.9888  -2.3717 LP             1 noname             0.0000
@<TRIPOS>BOND
    1    1    2 2     
    2    6    1 1     
    3    2    3 1     
    4    3    4 1     
    5    3   20 am    
    6    4    5 1     
    7    4    8 1     
    8    4   22 1     
    9    5    6 am    
   10    5    7 2     
   11   14    6 1     
   12    8    9 ar    
   13   13    8 ar    
   14    9   10 ar    
   15   10   11 ar    
   16   11   12 ar    
   17   12   13 ar    
   18   14   15 ar    
   19   19   14 ar    
   20   15   16 ar    
   21   16   17 ar    
   22   17   18 ar    
   23   17   24 1     
   24   18   19 ar    
   25   20   21 2     
   26   23   20 1     
   27   22   23 1     
   28   12   25 1     
   29    9   26 1     
   30   22   27 1     
   31   22   28 1     
   32   23   29 1     
   33   23   30 1     
   34    1   31 1     
   35    2   32 1     
   36   15   33 1     
   37   16   34 1     
   38   18   35 1     
   39   19   36 1     
   40   10   37 1     
   41   11   38 1     
   42    7   39 1     
   43    7   40 1     
   44   13   41 1     
   45   21   42 1     
   46   21   43 1     
@<TRIPOS>SUBSTRUCTURE
      1 noname         1
@<TRIPOS>SET
LONE_PAIRS      STATIC     ATOMS    <user>   **** ""
5 39 40 41 42 43
ATOM$BLUE        STATIC     ATOMS    COLORGROUP SYSTEM
5 39 40 41 42 43
@<TRIPOS>COMMENT
> <Gold.Version>
2022.3.0

> <Gold.Id.Protein>
unknown|6c5f_clean|pdb

> <Gold.Protein.ActiveResidues>
 LEU49   SER50   GLN58   ILE95   LEU96   ILE97   ARG98   PRO1    PHE2    LEU3   
 LEU30   LYS32   PRO33   ASP35   ARG36   VAL37   ASN38   ILE61   SER62   SER63  
 ILE64   GLY65   VAL66   VAL67   PHE100  LEU102  GLU103  SER104  TRP105  GLN106 
 ILE107  GLY108  LYS109  ILE110  THR112  VAL113  PHE2    ILE61   SER62   SER63  
 ILE64   PHE2    PRO1    PHE2    PRO1    PHE2    LEU3    LEU96   ILE97   ARG98  
 PHE2    ARG36   VAL37   ASN38   PRO1    PRO1    VAL113  PHE2    LEU30   LYS32  
 PRO33   GLN106  ILE107  GLY108  LYS109  ILE110  ILE64   GLY65   VAL66   VAL67  
 GLN58   PRO1    PRO101  LEU102  GLU103  SER104  TRP105  PHE2    LEU49   SER50  
 PHE2   

> <Gold.Score>
     Fitness  S(hb_ext) S(vdw_ext)  S(hb_int)    S(int)      intcor
     43.14       0.00      32.52       0.00      -1.57      -1.12

> <Gold.Goldscore.Fitness>
43.1421

> <Gold.Goldscore.Internal.Vdw>
0.3075

> <Gold.Goldscore.Internal.Torsion>
-2.9924

> <Gold.Goldscore.External.Vdw>
32.5178

> <Gold.Goldscore.Internal.HBond>
0.0000

> <Gold.Goldscore.External.HBond>
0.0000

> <Gold.Goldscore.Internal.Correction>
-1.1150

> <Gold.Goldscore.Reference.RMSD>
4.1672

> <Gold.Goldscore.Internal.Vdw.Weighted>
0.3075

> <Gold.Goldscore.Internal.Torsion.Weighted>
-2.9924

> <Gold.Goldscore.External.Vdw.Weighted>
44.7120

> <Gold.Goldscore.Internal.HBond.Weighted>
0.0000

> <Gold.Goldscore.External.HBond.Weighted>
0.0000

> <Gold.Goldscore.Internal.Correction.Weighted>
-1.1150

> <Gold.Rescore>
     Score         DG    S(hbond)    S(metal)    S(lipo)     H(rot)  DE(clash)    DE(int)     intcor
     16.08     -22.24       0.00        0.00     165.16       1.00       2.78       3.38       ----

> <Gold.Chemscore.Fitness>
16.0849

> <Gold.Chemscore.DG>
-22.2438

> <Gold.Chemscore.ZeroCoef>
-5.4800

> <Gold.Chemscore.Hbond>
0.0000

> <Gold.Chemscore.Metal>
0.0000

> <Gold.Chemscore.Lipo>
165.1609

> <Gold.Chemscore.Internal_Hbond>
0.0000

> <Gold.Chemscore.DEClash>
2.7750

> <Gold.Chemscore.DEInternal>
3.3840

> <Gold.Chemscore.Rot>
1.0000

> <Gold.Chemscore.Internal.Correction>
   9.000000E+99

> <Gold.Chemscore.Reference.RMSD>
0.0000

> <Gold.Chemscore.Hbond.Weighted>
-0.0000

> <Gold.Chemscore.Metal.Weighted>
-0.0000

> <Gold.Chemscore.Lipo.Weighted>
-19.3238

> <Gold.Chemscore.Internal_Hbond.Weighted>
0.0000

> <Gold.Chemscore.DEClash.Weighted>
2.7750

> <Gold.Chemscore.DEInternal.Weighted>
3.3840

> <Gold.Chemscore.Rot.Weighted>
2.5600

> <Gold.Chemscore.Internal.Correction.Weighted>
   9.000000E+99

> <Gold.Reference.RMSD>
4.1672

#       Name:                00000001
#       Creating user name   hitesit
#       Creation time:       Mon Feb 27 15:35:02 2023


#       File generated by GOLD software.
#

@<TRIPOS>MOLECULE
00000001|prep_VS_2|mol2|1|dock2
    43    46     1
SMALL
USER_CHARGES


@<TRIPOS>ATOM
      1 C1         -41.0835 -41.3833   3.7684 C.2            1 noname            -0.0111
      2 C2         -39.7863 -41.4385   4.0711 C.2            1 noname            -0.0624
      3 N1         -38.8446 -41.7743   3.1284 N.am           1 noname             0.0259
      4 C3         -39.2072 -41.8366   1.6991 C.3            1 noname             0.1489
      5 C4         -40.7047 -42.0642   1.4738 C.2            1 noname             0.1550
      6 N2         -41.5675 -41.7159   2.5164 N.am           1 noname            -0.1166
      7 O1         -41.0666 -42.5235   0.4077 O.2            1 noname            -0.2620
      8 C5         -38.8536 -40.4948   1.0363 C.ar           1 noname             0.0167
      9 C6         -39.0832 -40.2625  -0.3114 C.ar           1 noname            -0.0133
     10 C7         -38.7404 -39.0272  -0.8340 C.ar           1 noname            -0.0379
     11 C8         -38.1863 -38.0696  -0.0114 C.ar           1 noname            -0.0260
     12 C9         -37.9951 -38.3876   1.3152 C.ar           1 noname             0.0003
     13 N3         -38.3180 -39.5746   1.8461 N.ar           1 noname            -0.2412
     14 C10        -43.0076 -41.7294   2.3529 C.ar           1 noname            -0.0140
     15 C11        -43.6274 -41.1383   1.2548 C.ar           1 noname            -0.0201
     16 C12        -45.0024 -41.1769   1.1044 C.ar           1 noname            -0.0181
     17 C13        -45.7700 -41.7932   2.0671 C.ar           1 noname            -0.0097
     18 C14        -45.1887 -42.3709   3.1736 C.ar           1 noname            -0.0181
     19 C15        -43.8122 -42.3388   3.3117 C.ar           1 noname            -0.0201
     20 C16        -37.5043 -42.0483   3.3132 C.2            1 noname             0.0697
     21 O2         -36.9084 -42.0083   4.3807 O.2            1 noname            -0.2900
     22 C17        -38.2275 -42.9475   1.2751 C.3            1 noname            -0.0112
     23 C18        -36.9672 -42.4198   1.9540 C.3            1 noname             0.0244
     24 Cl1        -47.5006 -41.8419   1.8831 Cl             1 noname            -0.0849
     25 H1         -37.5593 -37.6362   1.9654 H              1 noname             0.0003
     26 H2         -39.5210 -41.0301  -0.9409 H              1 noname            -0.0133
     27 H3         -38.1249 -43.0465   0.1874 H              1 noname            -0.0112
     28 H4         -38.5265 -43.9184   1.6893 H              1 noname            -0.0112
     29 H5         -36.1814 -43.1832   2.0079 H              1 noname             0.0244
     30 H6         -36.5552 -41.5451   1.4360 H              1 noname             0.0244
     31 H7         -41.7749 -41.0933   4.5522 H              1 noname            -0.0111
     32 H8         -39.4700 -41.2322   5.0882 H              1 noname            -0.0624
     33 H9         -43.0329 -40.6321   0.5025 H              1 noname            -0.0201
     34 H10        -45.4714 -40.7244   0.2368 H              1 noname            -0.0181
     35 H11        -45.8041 -42.8477   3.9295 H              1 noname            -0.0181
     36 H12        -43.3624 -42.8017   4.1836 H              1 noname            -0.0201
     37 H13        -38.9068 -38.8141  -1.8848 H              1 noname            -0.0379
     38 H14        -37.9090 -37.0942  -0.3976 H              1 noname            -0.0260
     39 ****       -40.3919 -42.7432  -0.2969 LP             1 noname             0.0000
     40 ****       -42.0389 -42.6816   0.2356 LP             1 noname             0.0000
     41 ****       -38.1638 -39.7662   2.8154 LP             1 noname             0.0000
     42 ****       -37.3970 -41.7601   5.2172 LP             1 noname             0.0000
     43 ****       -35.9325 -42.2238   4.4170 LP             1 noname             0.0000
@<TRIPOS>BOND
    1    1    2 2     
    2    6    1 1     
    3    2    3 1     
    4    3    4 1     
    5    3   20 am    
    6    4    5 1     
    7    4    8 1     
    8    4   22 1     
    9    5    6 am    
   10    5    7 2     
   11   14    6 1     
   12    8    9 ar    
   13   13    8 ar    
   14    9   10 ar    
   15   10   11 ar    
   16   11   12 ar    
   17   12   13 ar    
   18   14   15 ar    
   19   19   14 ar    
   20   15   16 ar    
   21   16   17 ar    
   22   17   18 ar    
   23   17   24 1     
   24   18   19 ar    
   25   20   21 2     
   26   23   20 1     
   27   22   23 1     
   28   12   25 1     
   29    9   26 1     
   30   22   27 1     
   31   22   28 1     
   32   23   29 1     
   33   23   30 1     
   34    1   31 1     
   35    2   32 1     
   36   15   33 1     
   37   16   34 1     
   38   18   35 1     
   39   19   36 1     
   40   10   37 1     
   41   11   38 1     
   42    7   39 1     
   43    7   40 1     
   44   13   41 1     
   45   21   42 1     
   46   21   43 1     
@<TRIPOS>SUBSTRUCTURE
      1 noname         1
@<TRIPOS>SET
LONE_PAIRS      STATIC     ATOMS    <user>   **** ""
5 39 40 41 42 43
ATOM$BLUE        STATIC     ATOMS    COLORGROUP SYSTEM
5 39 40 41 42 43
@<TRIPOS>COMMENT
> <Gold.Version>
2022.3.0

> <Gold.Id.Protein>
unknown|6c5f_clean|pdb

> <Gold.Protein.ActiveResidues>
 LEU49   SER50   GLN58   ILE95   LEU96   ILE97   ARG98   PRO1    PHE2    LEU3   
 LEU30   LYS32   PRO33   ASP35   ARG36   VAL37   ASN38   ILE61   SER62   SER63  
 ILE64   GLY65   VAL66   VAL67   PHE100  LEU102  GLU103  SER104  TRP105  GLN106 
 ILE107  GLY108  LYS109  ILE110  THR112  VAL113  PHE2    ILE61   SER62   SER63  
 ILE64   PHE2    PRO1    PHE2    PRO1    PHE2    LEU3    LEU96   ILE97   ARG98  
 PHE2    ARG36   VAL37   ASN38   PRO1    PRO1    VAL113  PHE2    LEU30   LYS32  
 PRO33   GLN106  ILE107  GLY108  LYS109  ILE110  ILE64   GLY65   VAL66   VAL67  
 GLN58   PRO1    PRO101  LEU102  GLU103  SER104  TRP105  PHE2    LEU49   SER50  
 PHE2   

> <Gold.Score>
     Fitness  S(hb_ext) S(vdw_ext)  S(hb_int)    S(int)      intcor
     42.22       0.00      31.02       0.00      -0.43      -1.12

> <Gold.Goldscore.Fitness>
42.2209

> <Gold.Goldscore.Internal.Vdw>
2.1865

> <Gold.Goldscore.Internal.Torsion>
-3.7343

> <Gold.Goldscore.External.Vdw>
31.0209

> <Gold.Goldscore.Internal.HBond>
0.0000

> <Gold.Goldscore.External.HBond>
0.0000

> <Gold.Goldscore.Internal.Correction>
-1.1150

> <Gold.Goldscore.Reference.RMSD>
4.3128

> <Gold.Goldscore.Internal.Vdw.Weighted>
2.1865

> <Gold.Goldscore.Internal.Torsion.Weighted>
-3.7343

> <Gold.Goldscore.External.Vdw.Weighted>
42.6537

> <Gold.Goldscore.Internal.HBond.Weighted>
0.0000

> <Gold.Goldscore.External.HBond.Weighted>
0.0000

> <Gold.Goldscore.Internal.Correction.Weighted>
-1.1150

> <Gold.Rescore>
     Score         DG    S(hbond)    S(metal)    S(lipo)     H(rot)  DE(clash)    DE(int)     intcor
     22.10     -24.48       0.00        0.00     184.26       1.00       0.41       1.97       ----

> <Gold.Chemscore.Fitness>
22.1008

> <Gold.Chemscore.DG>
-24.4779

> <Gold.Chemscore.ZeroCoef>
-5.4800

> <Gold.Chemscore.Hbond>
0.0000

> <Gold.Chemscore.Metal>
0.0000

> <Gold.Chemscore.Lipo>
184.2552

> <Gold.Chemscore.Internal_Hbond>
0.0000

> <Gold.Chemscore.DEClash>
0.4089

> <Gold.Chemscore.DEInternal>
1.9682

> <Gold.Chemscore.Rot>
1.0000

> <Gold.Chemscore.Internal.Correction>
   9.000000E+99

> <Gold.Chemscore.Reference.RMSD>
0.0000

> <Gold.Chemscore.Hbond.Weighted>
-0.0000

> <Gold.Chemscore.Metal.Weighted>
-0.0000

> <Gold.Chemscore.Lipo.Weighted>
-21.5579

> <Gold.Chemscore.Internal_Hbond.Weighted>
0.0000

> <Gold.Chemscore.DEClash.Weighted>
0.4089

> <Gold.Chemscore.DEInternal.Weighted>
1.9682

> <Gold.Chemscore.Rot.Weighted>
2.5600

> <Gold.Chemscore.Internal.Correction.Weighted>
   9.000000E+99

> <Gold.Reference.RMSD>
4.3128

