#       Name:                GA Fitting Points
#       Creating user name   hitesit
#       Creation time:       Sun Apr 16 02:24:18 2023


#       Fitting Points Used by GA Software.
#

@<TRIPOS>MOLECULE
GA Fitting Points
   623    0    0
SMALL
NO_CHARGES


@<TRIPOS>ATOM
      1 ****       -49.5000  27.0000   3.7500 Du        
      2 ****       -49.5000  27.0000   4.0000 Du        
      3 ****       -49.5000  27.0000   4.2500 Du        
      4 ****       -49.5000  27.2500   3.7500 Du        
      5 ****       -49.5000  27.2500   4.0000 Du        
      6 ****       -49.5000  27.2500   4.2500 Du        
      7 ****       -49.5000  27.2500   4.5000 Du        
      8 ****       -49.5000  27.5000   3.7500 Du        
      9 ****       -49.5000  27.5000   4.0000 Du        
     10 ****       -49.5000  27.5000   4.2500 Du        
     11 ****       -49.5000  27.7500   3.7500 Du        
     12 ****       -49.5000  27.7500   4.0000 Du        
     13 ****       -49.5000  27.7500   4.2500 Du        
     14 ****       -49.5000  28.0000   3.7500 Du        
     15 ****       -49.5000  28.0000   4.0000 Du        
     16 ****       -49.5000  28.0000   4.2500 Du        
     17 ****       -49.5000  28.2500   3.7500 Du        
     18 ****       -49.5000  28.2500   4.0000 Du        
     19 ****       -49.5000  28.2500   4.2500 Du        
     20 ****       -49.5000  28.5000   3.7500 Du        
     21 ****       -49.5000  28.5000   4.0000 Du        
     22 ****       -49.5000  28.5000   4.2500 Du        
     23 ****       -49.5000  28.7500   3.7500 Du        
     24 ****       -49.5000  28.7500   4.0000 Du        
     25 ****       -49.5000  28.7500   4.2500 Du        
     26 ****       -49.5000  29.0000   3.7500 Du        
     27 ****       -49.5000  29.0000   4.0000 Du        
     28 ****       -49.5000  29.0000   4.2500 Du        
     29 ****       -49.2500  26.7500   3.7500 Du        
     30 ****       -49.2500  26.7500   4.0000 Du        
     31 ****       -49.2500  27.0000   3.7500 Du        
     32 ****       -49.2500  27.0000   4.0000 Du        
     33 ****       -49.2500  27.0000   4.2500 Du        
     34 ****       -49.2500  27.0000   4.5000 Du        
     35 ****       -49.2500  27.2500   3.7500 Du        
     36 ****       -49.2500  27.2500   4.0000 Du        
     37 ****       -49.2500  27.2500   4.2500 Du        
     38 ****       -49.2500  27.2500   4.5000 Du        
     39 ****       -49.2500  27.5000   3.7500 Du        
     40 ****       -49.2500  27.5000   4.0000 Du        
     41 ****       -49.2500  27.5000   4.2500 Du        
     42 ****       -49.2500  27.5000   4.5000 Du        
     43 ****       -49.2500  27.7500   3.7500 Du        
     44 ****       -49.2500  27.7500   4.0000 Du        
     45 ****       -49.2500  27.7500   4.2500 Du        
     46 ****       -49.2500  28.0000   3.7500 Du        
     47 ****       -49.2500  28.0000   4.0000 Du        
     48 ****       -49.2500  28.0000   4.2500 Du        
     49 ****       -49.2500  28.2500   3.7500 Du        
     50 ****       -49.2500  28.2500   4.0000 Du        
     51 ****       -49.2500  28.2500   4.2500 Du        
     52 ****       -49.2500  28.5000   3.7500 Du        
     53 ****       -49.2500  28.5000   4.0000 Du        
     54 ****       -49.2500  28.5000   4.2500 Du        
     55 ****       -49.2500  28.7500   3.7500 Du        
     56 ****       -49.2500  28.7500   4.0000 Du        
     57 ****       -49.2500  29.0000   3.7500 Du        
     58 ****       -49.2500  29.0000   4.0000 Du        
     59 ****       -49.0000  26.5000   3.2500 Du        
     60 ****       -49.0000  26.5000   3.5000 Du        
     61 ****       -49.0000  26.5000   3.7500 Du        
     62 ****       -49.0000  26.7500   3.2500 Du        
     63 ****       -49.0000  26.7500   3.5000 Du        
     64 ****       -49.0000  26.7500   3.7500 Du        
     65 ****       -49.0000  26.7500   4.0000 Du        
     66 ****       -49.0000  26.7500   4.2500 Du        
     67 ****       -49.0000  27.0000   3.0000 Du        
     68 ****       -49.0000  27.0000   3.2500 Du        
     69 ****       -49.0000  27.0000   3.5000 Du        
     70 ****       -49.0000  27.0000   3.7500 Du        
     71 ****       -49.0000  27.0000   4.0000 Du        
     72 ****       -49.0000  27.0000   4.2500 Du        
     73 ****       -49.0000  27.0000   4.5000 Du        
     74 ****       -49.0000  27.2500   3.0000 Du        
     75 ****       -49.0000  27.2500   3.2500 Du        
     76 ****       -49.0000  27.2500   3.5000 Du        
     77 ****       -49.0000  27.2500   3.7500 Du        
     78 ****       -49.0000  27.2500   4.0000 Du        
     79 ****       -49.0000  27.2500   4.2500 Du        
     80 ****       -49.0000  27.2500   4.5000 Du        
     81 ****       -49.0000  27.5000   3.2500 Du        
     82 ****       -49.0000  27.5000   3.5000 Du        
     83 ****       -49.0000  27.5000   3.7500 Du        
     84 ****       -49.0000  27.5000   4.0000 Du        
     85 ****       -49.0000  27.5000   4.2500 Du        
     86 ****       -49.0000  27.5000   4.5000 Du        
     87 ****       -49.0000  27.7500   3.2500 Du        
     88 ****       -49.0000  27.7500   3.5000 Du        
     89 ****       -49.0000  27.7500   3.7500 Du        
     90 ****       -49.0000  27.7500   4.0000 Du        
     91 ****       -49.0000  27.7500   4.2500 Du        
     92 ****       -49.0000  28.0000   3.2500 Du        
     93 ****       -49.0000  28.0000   3.5000 Du        
     94 ****       -49.0000  28.0000   3.7500 Du        
     95 ****       -49.0000  28.0000   4.0000 Du        
     96 ****       -49.0000  28.0000   4.2500 Du        
     97 ****       -49.0000  28.2500   3.2500 Du        
     98 ****       -49.0000  28.2500   3.5000 Du        
     99 ****       -49.0000  28.2500   3.7500 Du        
    100 ****       -49.0000  28.2500   4.0000 Du        
    101 ****       -49.0000  28.2500   4.2500 Du        
    102 ****       -49.0000  28.5000   3.5000 Du        
    103 ****       -49.0000  28.5000   3.7500 Du        
    104 ****       -49.0000  28.5000   4.0000 Du        
    105 ****       -49.0000  28.7500   3.5000 Du        
    106 ****       -49.0000  28.7500   3.7500 Du        
    107 ****       -49.0000  28.7500   4.0000 Du        
    108 ****       -49.0000  29.0000   3.5000 Du        
    109 ****       -49.0000  29.0000   3.7500 Du        
    110 ****       -49.0000  29.0000   4.0000 Du        
    111 ****       -49.0000  29.2500   3.7500 Du        
    112 ****       -48.7500  26.2500   3.2500 Du        
    113 ****       -48.7500  26.2500   3.5000 Du        
    114 ****       -48.7500  26.5000   3.2500 Du        
    115 ****       -48.7500  26.5000   3.5000 Du        
    116 ****       -48.7500  26.5000   3.7500 Du        
    117 ****       -48.7500  26.5000   4.0000 Du        
    118 ****       -48.7500  26.7500   3.2500 Du        
    119 ****       -48.7500  26.7500   3.5000 Du        
    120 ****       -48.7500  26.7500   3.7500 Du        
    121 ****       -48.7500  26.7500   4.0000 Du        
    122 ****       -48.7500  26.7500   4.2500 Du        
    123 ****       -48.7500  27.0000   3.0000 Du        
    124 ****       -48.7500  27.0000   3.2500 Du        
    125 ****       -48.7500  27.0000   3.5000 Du        
    126 ****       -48.7500  27.0000   3.7500 Du        
    127 ****       -48.7500  27.0000   4.0000 Du        
    128 ****       -48.7500  27.0000   4.2500 Du        
    129 ****       -48.7500  27.0000   4.5000 Du        
    130 ****       -48.7500  27.2500   3.2500 Du        
    131 ****       -48.7500  27.2500   3.5000 Du        
    132 ****       -48.7500  27.2500   3.7500 Du        
    133 ****       -48.7500  27.2500   4.0000 Du        
    134 ****       -48.7500  27.2500   4.2500 Du        
    135 ****       -48.7500  27.2500   4.5000 Du        
    136 ****       -48.7500  27.5000   3.5000 Du        
    137 ****       -48.7500  27.5000   3.7500 Du        
    138 ****       -48.7500  27.5000   4.0000 Du        
    139 ****       -48.7500  27.5000   4.2500 Du        
    140 ****       -48.7500  27.5000   4.5000 Du        
    141 ****       -48.7500  27.7500   3.2500 Du        
    142 ****       -48.7500  27.7500   3.5000 Du        
    143 ****       -48.7500  27.7500   3.7500 Du        
    144 ****       -48.7500  27.7500   4.0000 Du        
    145 ****       -48.7500  27.7500   4.2500 Du        
    146 ****       -48.7500  28.0000   3.2500 Du        
    147 ****       -48.7500  28.0000   3.5000 Du        
    148 ****       -48.7500  28.0000   3.7500 Du        
    149 ****       -48.7500  28.0000   4.0000 Du        
    150 ****       -48.7500  28.0000   4.2500 Du        
    151 ****       -48.7500  28.2500   3.2500 Du        
    152 ****       -48.7500  28.2500   3.5000 Du        
    153 ****       -48.7500  28.2500   3.7500 Du        
    154 ****       -48.7500  28.2500   4.0000 Du        
    155 ****       -48.7500  28.5000   3.5000 Du        
    156 ****       -48.7500  28.5000   3.7500 Du        
    157 ****       -48.7500  28.5000   4.0000 Du        
    158 ****       -48.7500  28.7500   3.7500 Du        
    159 ****       -48.7500  28.7500   4.0000 Du        
    160 ****       -48.5000  26.2500   3.5000 Du        
    161 ****       -48.5000  26.5000   3.2500 Du        
    162 ****       -48.5000  26.5000   3.5000 Du        
    163 ****       -48.5000  26.5000   3.7500 Du        
    164 ****       -48.5000  26.5000   4.0000 Du        
    165 ****       -48.5000  26.7500   3.2500 Du        
    166 ****       -48.5000  26.7500   3.5000 Du        
    167 ****       -48.5000  26.7500   3.7500 Du        
    168 ****       -48.5000  26.7500   4.0000 Du        
    169 ****       -48.5000  26.7500   4.2500 Du        
    170 ****       -48.5000  27.0000   3.2500 Du        
    171 ****       -48.5000  27.0000   3.5000 Du        
    172 ****       -48.5000  27.0000   3.7500 Du        
    173 ****       -48.5000  27.0000   4.0000 Du        
    174 ****       -48.5000  27.0000   4.2500 Du        
    175 ****       -48.5000  27.0000   4.5000 Du        
    176 ****       -48.5000  27.2500   3.2500 Du        
    177 ****       -48.5000  27.2500   3.5000 Du        
    178 ****       -48.5000  27.2500   3.7500 Du        
    179 ****       -48.5000  27.2500   4.0000 Du        
    180 ****       -48.5000  27.2500   4.2500 Du        
    181 ****       -48.5000  27.2500   4.5000 Du        
    182 ****       -48.5000  27.5000   3.5000 Du        
    183 ****       -48.5000  27.5000   3.7500 Du        
    184 ****       -48.5000  27.5000   4.0000 Du        
    185 ****       -48.5000  27.5000   4.2500 Du        
    186 ****       -48.5000  27.7500   3.5000 Du        
    187 ****       -48.5000  27.7500   3.7500 Du        
    188 ****       -48.5000  27.7500   4.0000 Du        
    189 ****       -48.5000  27.7500   4.2500 Du        
    190 ****       -48.5000  28.0000   3.5000 Du        
    191 ****       -48.5000  28.0000   3.7500 Du        
    192 ****       -48.5000  28.0000   4.0000 Du        
    193 ****       -48.5000  28.0000   4.2500 Du        
    194 ****       -48.5000  28.2500   3.7500 Du        
    195 ****       -48.5000  28.2500   4.0000 Du        
    196 ****       -48.2500  26.2500   3.5000 Du        
    197 ****       -48.2500  26.2500   3.7500 Du        
    198 ****       -48.2500  26.5000   3.2500 Du        
    199 ****       -48.2500  26.5000   3.5000 Du        
    200 ****       -48.2500  26.5000   3.7500 Du        
    201 ****       -48.2500  26.5000   4.0000 Du        
    202 ****       -48.2500  26.7500   3.2500 Du        
    203 ****       -48.2500  26.7500   3.5000 Du        
    204 ****       -48.2500  26.7500   3.7500 Du        
    205 ****       -48.2500  26.7500   4.0000 Du        
    206 ****       -48.2500  26.7500   4.2500 Du        
    207 ****       -48.2500  27.0000   3.2500 Du        
    208 ****       -48.2500  27.0000   3.5000 Du        
    209 ****       -48.2500  27.0000   3.7500 Du        
    210 ****       -48.2500  27.0000   4.0000 Du        
    211 ****       -48.2500  27.0000   4.2500 Du        
    212 ****       -48.2500  27.0000   4.5000 Du        
    213 ****       -48.2500  27.2500   3.2500 Du        
    214 ****       -48.2500  27.2500   3.5000 Du        
    215 ****       -48.2500  27.2500   3.7500 Du        
    216 ****       -48.2500  27.2500   4.0000 Du        
    217 ****       -48.2500  27.2500   4.2500 Du        
    218 ****       -48.2500  27.2500   4.5000 Du        
    219 ****       -48.2500  27.5000   3.5000 Du        
    220 ****       -48.2500  27.5000   3.7500 Du        
    221 ****       -48.2500  27.5000   4.0000 Du        
    222 ****       -48.2500  27.5000   4.2500 Du        
    223 ****       -48.2500  27.5000   4.5000 Du        
    224 ****       -48.2500  27.7500   3.5000 Du        
    225 ****       -48.2500  27.7500   3.7500 Du        
    226 ****       -48.2500  27.7500   4.0000 Du        
    227 ****       -48.2500  27.7500   4.2500 Du        
    228 ****       -48.2500  28.0000   3.5000 Du        
    229 ****       -48.2500  28.0000   3.7500 Du        
    230 ****       -48.2500  28.0000   4.0000 Du        
    231 ****       -48.2500  28.0000   4.2500 Du        
    232 ****       -48.2500  28.2500   4.0000 Du        
    233 ****       -48.0000  26.0000   3.5000 Du        
    234 ****       -48.0000  26.2500   3.5000 Du        
    235 ****       -48.0000  26.2500   3.7500 Du        
    236 ****       -48.0000  26.2500   4.0000 Du        
    237 ****       -48.0000  26.5000   3.2500 Du        
    238 ****       -48.0000  26.5000   3.5000 Du        
    239 ****       -48.0000  26.5000   3.7500 Du        
    240 ****       -48.0000  26.5000   4.0000 Du        
    241 ****       -48.0000  26.7500   3.2500 Du        
    242 ****       -48.0000  26.7500   3.5000 Du        
    243 ****       -48.0000  26.7500   3.7500 Du        
    244 ****       -48.0000  26.7500   4.0000 Du        
    245 ****       -48.0000  26.7500   4.2500 Du        
    246 ****       -48.0000  27.0000   3.2500 Du        
    247 ****       -48.0000  27.0000   3.5000 Du        
    248 ****       -48.0000  27.0000   3.7500 Du        
    249 ****       -48.0000  27.0000   4.0000 Du        
    250 ****       -48.0000  27.0000   4.2500 Du        
    251 ****       -48.0000  27.0000   4.5000 Du        
    252 ****       -48.0000  27.2500   3.2500 Du        
    253 ****       -48.0000  27.2500   3.5000 Du        
    254 ****       -48.0000  27.2500   3.7500 Du        
    255 ****       -48.0000  27.2500   4.0000 Du        
    256 ****       -48.0000  27.2500   4.2500 Du        
    257 ****       -48.0000  27.2500   4.5000 Du        
    258 ****       -48.0000  27.5000   3.5000 Du        
    259 ****       -48.0000  27.5000   3.7500 Du        
    260 ****       -48.0000  27.5000   4.0000 Du        
    261 ****       -48.0000  27.5000   4.2500 Du        
    262 ****       -48.0000  27.5000   4.5000 Du        
    263 ****       -48.0000  27.7500   3.5000 Du        
    264 ****       -48.0000  27.7500   3.7500 Du        
    265 ****       -48.0000  27.7500   4.0000 Du        
    266 ****       -48.0000  27.7500   4.2500 Du        
    267 ****       -48.0000  28.0000   3.5000 Du        
    268 ****       -48.0000  28.0000   3.7500 Du        
    269 ****       -48.0000  28.0000   4.0000 Du        
    270 ****       -47.7500  26.0000   3.5000 Du        
    271 ****       -47.7500  26.0000   3.7500 Du        
    272 ****       -47.7500  26.2500   3.5000 Du        
    273 ****       -47.7500  26.2500   3.7500 Du        
    274 ****       -47.7500  26.2500   4.0000 Du        
    275 ****       -47.7500  26.5000   3.2500 Du        
    276 ****       -47.7500  26.5000   3.5000 Du        
    277 ****       -47.7500  26.5000   3.7500 Du        
    278 ****       -47.7500  26.5000   4.0000 Du        
    279 ****       -47.7500  26.7500   3.2500 Du        
    280 ****       -47.7500  26.7500   3.5000 Du        
    281 ****       -47.7500  26.7500   3.7500 Du        
    282 ****       -47.7500  26.7500   4.0000 Du        
    283 ****       -47.7500  26.7500   4.2500 Du        
    284 ****       -47.7500  27.0000   3.2500 Du        
    285 ****       -47.7500  27.0000   3.5000 Du        
    286 ****       -47.7500  27.0000   3.7500 Du        
    287 ****       -47.7500  27.0000   4.0000 Du        
    288 ****       -47.7500  27.0000   4.2500 Du        
    289 ****       -47.7500  27.0000   4.5000 Du        
    290 ****       -47.7500  27.2500   3.2500 Du        
    291 ****       -47.7500  27.2500   3.5000 Du        
    292 ****       -47.7500  27.2500   3.7500 Du        
    293 ****       -47.7500  27.2500   4.0000 Du        
    294 ****       -47.7500  27.2500   4.2500 Du        
    295 ****       -47.7500  27.2500   4.5000 Du        
    296 ****       -47.7500  27.5000   3.5000 Du        
    297 ****       -47.7500  27.5000   3.7500 Du        
    298 ****       -47.7500  27.5000   4.0000 Du        
    299 ****       -47.7500  27.5000   4.2500 Du        
    300 ****       -47.7500  27.7500   3.5000 Du        
    301 ****       -47.7500  27.7500   3.7500 Du        
    302 ****       -47.7500  27.7500   4.0000 Du        
    303 ****       -47.7500  28.0000   3.5000 Du        
    304 ****       -47.7500  28.0000   3.7500 Du        
    305 ****       -47.5000  26.0000   3.5000 Du        
    306 ****       -47.5000  26.0000   3.7500 Du        
    307 ****       -47.5000  26.2500   3.5000 Du        
    308 ****       -47.5000  26.2500   3.7500 Du        
    309 ****       -47.5000  26.2500   4.0000 Du        
    310 ****       -47.5000  26.5000   3.5000 Du        
    311 ****       -47.5000  26.5000   3.7500 Du        
    312 ****       -47.5000  26.5000   4.0000 Du        
    313 ****       -47.5000  26.7500   3.5000 Du        
    314 ****       -47.5000  26.7500   3.7500 Du        
    315 ****       -47.5000  26.7500   4.0000 Du        
    316 ****       -47.5000  26.7500   4.2500 Du        
    317 ****       -47.5000  27.0000   3.5000 Du        
    318 ****       -47.5000  27.0000   3.7500 Du        
    319 ****       -47.5000  27.0000   4.0000 Du        
    320 ****       -47.5000  27.0000   4.2500 Du        
    321 ****       -47.5000  27.2500   3.5000 Du        
    322 ****       -47.5000  27.2500   3.7500 Du        
    323 ****       -47.5000  27.2500   4.0000 Du        
    324 ****       -47.5000  27.2500   4.2500 Du        
    325 ****       -47.5000  27.5000   3.5000 Du        
    326 ****       -47.5000  27.5000   3.7500 Du        
    327 ****       -47.5000  27.5000   4.0000 Du        
    328 ****       -47.2500  25.7500   3.5000 Du        
    329 ****       -47.2500  26.0000   3.5000 Du        
    330 ****       -47.2500  26.0000   3.7500 Du        
    331 ****       -47.2500  26.2500   3.5000 Du        
    332 ****       -47.2500  26.2500   3.7500 Du        
    333 ****       -47.2500  26.2500   4.0000 Du        
    334 ****       -47.2500  26.5000   3.5000 Du        
    335 ****       -47.2500  26.5000   3.7500 Du        
    336 ****       -47.2500  26.5000   4.0000 Du        
    337 ****       -47.2500  26.7500   3.5000 Du        
    338 ****       -47.2500  26.7500   3.7500 Du        
    339 ****       -47.2500  26.7500   4.0000 Du        
    340 ****       -47.2500  27.0000   3.5000 Du        
    341 ****       -47.2500  27.0000   3.7500 Du        
    342 ****       -47.2500  27.0000   4.0000 Du        
    343 ****       -47.2500  27.2500   3.5000 Du        
    344 ****       -47.2500  27.2500   3.7500 Du        
    345 ****       -47.2500  27.2500   4.0000 Du        
    346 ****       -47.2500  27.5000   3.7500 Du        
    347 ****       -47.0000  25.7500   3.5000 Du        
    348 ****       -47.0000  26.0000   3.2500 Du        
    349 ****       -47.0000  26.0000   3.5000 Du        
    350 ****       -47.0000  26.0000   3.7500 Du        
    351 ****       -47.0000  26.2500   3.5000 Du        
    352 ****       -47.0000  26.2500   3.7500 Du        
    353 ****       -47.0000  26.2500   4.0000 Du        
    354 ****       -47.0000  26.5000   3.7500 Du        
    355 ****       -47.0000  26.7500   3.5000 Du        
    356 ****       -47.0000  26.7500   3.7500 Du        
    357 ****       -47.0000  26.7500   4.0000 Du        
    358 ****       -47.0000  27.0000   3.5000 Du        
    359 ****       -47.0000  27.0000   3.7500 Du        
    360 ****       -47.0000  27.0000   4.0000 Du        
    361 ****       -47.0000  27.2500   3.5000 Du        
    362 ****       -47.0000  27.2500   3.7500 Du        
    363 ****       -47.0000  27.2500   4.0000 Du        
    364 ****       -46.7500  25.7500   3.5000 Du        
    365 ****       -46.7500  26.0000   3.5000 Du        
    366 ****       -46.7500  26.0000   3.7500 Du        
    367 ****       -46.7500  26.2500   3.5000 Du        
    368 ****       -46.7500  26.2500   3.7500 Du        
    369 ****       -46.7500  26.7500   3.7500 Du        
    370 ****       -46.7500  27.0000   3.7500 Du        
    371 ****       -46.7500  27.2500   3.7500 Du        
    372 ****       -46.5000  26.0000   3.5000 Du        
    373 ****       -46.5000  26.2500   3.7500 Du        
    374 ****       -44.0000  25.2500   4.0000 Du        
    375 ****       -44.0000  25.2500   4.2500 Du        
    376 ****       -43.7500  25.0000   4.5000 Du        
    377 ****       -43.7500  25.2500   4.0000 Du        
    378 ****       -43.7500  25.2500   4.5000 Du        
    379 ****       -43.5000  24.5000   5.7500 Du        
    380 ****       -43.5000  24.5000   6.0000 Du        
    381 ****       -43.5000  25.0000   4.0000 Du        
    382 ****       -43.5000  25.0000   4.2500 Du        
    383 ****       -43.5000  25.0000   4.5000 Du        
    384 ****       -43.5000  25.0000   4.7500 Du        
    385 ****       -43.5000  25.2500   3.7500 Du        
    386 ****       -43.5000  25.2500   4.0000 Du        
    387 ****       -43.5000  25.2500   4.2500 Du        
    388 ****       -43.2500  24.2500   6.2500 Du        
    389 ****       -43.2500  24.2500   6.5000 Du        
    390 ****       -43.2500  24.5000   5.5000 Du        
    391 ****       -43.2500  24.5000   5.7500 Du        
    392 ****       -43.2500  24.5000   6.0000 Du        
    393 ****       -43.2500  24.5000   6.2500 Du        
    394 ****       -43.2500  24.5000   6.5000 Du        
    395 ****       -43.2500  24.7500   4.5000 Du        
    396 ****       -43.2500  24.7500   4.7500 Du        
    397 ****       -43.2500  24.7500   5.0000 Du        
    398 ****       -43.2500  24.7500   5.2500 Du        
    399 ****       -43.2500  24.7500   5.5000 Du        
    400 ****       -43.2500  25.0000   4.0000 Du        
    401 ****       -43.2500  25.0000   4.2500 Du        
    402 ****       -43.2500  25.0000   4.5000 Du        
    403 ****       -43.2500  25.0000   4.7500 Du        
    404 ****       -43.2500  25.2500   3.7500 Du        
    405 ****       -43.2500  25.2500   4.0000 Du        
    406 ****       -43.2500  25.2500   4.2500 Du        
    407 ****       -43.0000  24.2500   6.0000 Du        
    408 ****       -43.0000  24.2500   6.2500 Du        
    409 ****       -43.0000  24.2500   6.5000 Du        
    410 ****       -43.0000  24.2500   6.7500 Du        
    411 ****       -43.0000  24.5000   5.5000 Du        
    412 ****       -43.0000  24.5000   5.7500 Du        
    413 ****       -43.0000  24.5000   6.0000 Du        
    414 ****       -43.0000  24.5000   6.2500 Du        
    415 ****       -43.0000  24.5000   6.5000 Du        
    416 ****       -43.0000  24.5000   6.7500 Du        
    417 ****       -43.0000  24.7500   4.2500 Du        
    418 ****       -43.0000  24.7500   4.5000 Du        
    419 ****       -43.0000  24.7500   4.7500 Du        
    420 ****       -43.0000  24.7500   5.0000 Du        
    421 ****       -43.0000  24.7500   5.2500 Du        
    422 ****       -43.0000  24.7500   5.5000 Du        
    423 ****       -43.0000  24.7500   5.7500 Du        
    424 ****       -43.0000  25.0000   4.0000 Du        
    425 ****       -43.0000  25.0000   4.2500 Du        
    426 ****       -43.0000  25.0000   4.5000 Du        
    427 ****       -43.0000  25.0000   4.7500 Du        
    428 ****       -43.0000  25.2500   3.7500 Du        
    429 ****       -43.0000  25.2500   4.0000 Du        
    430 ****       -43.0000  25.2500   4.2500 Du        
    431 ****       -42.7500  24.2500   6.0000 Du        
    432 ****       -42.7500  24.2500   6.2500 Du        
    433 ****       -42.7500  24.2500   6.5000 Du        
    434 ****       -42.7500  24.2500   6.7500 Du        
    435 ****       -42.7500  24.2500   7.0000 Du        
    436 ****       -42.7500  24.5000   5.2500 Du        
    437 ****       -42.7500  24.5000   5.5000 Du        
    438 ****       -42.7500  24.5000   5.7500 Du        
    439 ****       -42.7500  24.5000   6.0000 Du        
    440 ****       -42.7500  24.5000   6.2500 Du        
    441 ****       -42.7500  24.5000   6.5000 Du        
    442 ****       -42.7500  24.5000   6.7500 Du        
    443 ****       -42.7500  24.5000   7.0000 Du        
    444 ****       -42.7500  24.7500   4.2500 Du        
    445 ****       -42.7500  24.7500   4.5000 Du        
    446 ****       -42.7500  24.7500   4.7500 Du        
    447 ****       -42.7500  24.7500   5.0000 Du        
    448 ****       -42.7500  24.7500   5.2500 Du        
    449 ****       -42.7500  24.7500   5.5000 Du        
    450 ****       -42.7500  24.7500   5.7500 Du        
    451 ****       -42.7500  24.7500   6.0000 Du        
    452 ****       -42.7500  25.0000   4.0000 Du        
    453 ****       -42.7500  25.0000   4.2500 Du        
    454 ****       -42.7500  25.0000   4.5000 Du        
    455 ****       -42.7500  25.0000   4.7500 Du        
    456 ****       -42.7500  25.2500   3.7500 Du        
    457 ****       -42.7500  25.2500   4.0000 Du        
    458 ****       -42.7500  25.2500   4.2500 Du        
    459 ****       -42.5000  24.2500   6.0000 Du        
    460 ****       -42.5000  24.2500   6.2500 Du        
    461 ****       -42.5000  24.2500   6.5000 Du        
    462 ****       -42.5000  24.2500   6.7500 Du        
    463 ****       -42.5000  24.2500   7.0000 Du        
    464 ****       -42.5000  24.5000   5.5000 Du        
    465 ****       -42.5000  24.5000   5.7500 Du        
    466 ****       -42.5000  24.5000   6.0000 Du        
    467 ****       -42.5000  24.5000   6.2500 Du        
    468 ****       -42.5000  24.5000   6.5000 Du        
    469 ****       -42.5000  24.5000   6.7500 Du        
    470 ****       -42.5000  24.5000   7.0000 Du        
    471 ****       -42.5000  24.7500   4.2500 Du        
    472 ****       -42.5000  24.7500   4.5000 Du        
    473 ****       -42.5000  24.7500   4.7500 Du        
    474 ****       -42.5000  24.7500   5.0000 Du        
    475 ****       -42.5000  24.7500   5.2500 Du        
    476 ****       -42.5000  24.7500   5.5000 Du        
    477 ****       -42.5000  24.7500   5.7500 Du        
    478 ****       -42.5000  24.7500   6.0000 Du        
    479 ****       -42.5000  24.7500   6.2500 Du        
    480 ****       -42.5000  24.7500   6.5000 Du        
    481 ****       -42.5000  25.0000   4.0000 Du        
    482 ****       -42.5000  25.0000   4.2500 Du        
    483 ****       -42.5000  25.0000   4.5000 Du        
    484 ****       -42.5000  25.0000   4.7500 Du        
    485 ****       -42.2500  24.2500   6.2500 Du        
    486 ****       -42.2500  24.2500   6.5000 Du        
    487 ****       -42.2500  24.2500   6.7500 Du        
    488 ****       -42.2500  24.2500   7.0000 Du        
    489 ****       -42.2500  24.2500   7.2500 Du        
    490 ****       -42.2500  24.5000   4.7500 Du        
    491 ****       -42.2500  24.5000   5.0000 Du        
    492 ****       -42.2500  24.5000   5.2500 Du        
    493 ****       -42.2500  24.5000   5.5000 Du        
    494 ****       -42.2500  24.5000   5.7500 Du        
    495 ****       -42.2500  24.5000   6.0000 Du        
    496 ****       -42.2500  24.5000   6.2500 Du        
    497 ****       -42.2500  24.5000   6.5000 Du        
    498 ****       -42.2500  24.5000   6.7500 Du        
    499 ****       -42.2500  24.5000   7.0000 Du        
    500 ****       -42.2500  24.5000   7.2500 Du        
    501 ****       -42.2500  24.7500   4.0000 Du        
    502 ****       -42.2500  24.7500   4.2500 Du        
    503 ****       -42.2500  24.7500   4.5000 Du        
    504 ****       -42.2500  24.7500   4.7500 Du        
    505 ****       -42.2500  24.7500   5.0000 Du        
    506 ****       -42.2500  24.7500   5.2500 Du        
    507 ****       -42.2500  24.7500   5.5000 Du        
    508 ****       -42.2500  24.7500   5.7500 Du        
    509 ****       -42.2500  24.7500   6.0000 Du        
    510 ****       -42.2500  24.7500   6.2500 Du        
    511 ****       -42.2500  24.7500   6.5000 Du        
    512 ****       -42.2500  24.7500   6.7500 Du        
    513 ****       -42.2500  25.0000   4.0000 Du        
    514 ****       -42.2500  25.0000   4.2500 Du        
    515 ****       -42.2500  25.0000   4.5000 Du        
    516 ****       -42.2500  25.0000   4.7500 Du        
    517 ****       -42.2500  25.0000   5.0000 Du        
    518 ****       -42.2500  25.2500   4.0000 Du        
    519 ****       -42.2500  25.2500   4.2500 Du        
    520 ****       -42.0000  24.2500   6.5000 Du        
    521 ****       -42.0000  24.2500   6.7500 Du        
    522 ****       -42.0000  24.2500   7.0000 Du        
    523 ****       -42.0000  24.5000   4.5000 Du        
    524 ****       -42.0000  24.5000   4.7500 Du        
    525 ****       -42.0000  24.5000   5.0000 Du        
    526 ****       -42.0000  24.5000   5.2500 Du        
    527 ****       -42.0000  24.5000   5.5000 Du        
    528 ****       -42.0000  24.5000   5.7500 Du        
    529 ****       -42.0000  24.5000   6.0000 Du        
    530 ****       -42.0000  24.5000   6.2500 Du        
    531 ****       -42.0000  24.5000   6.5000 Du        
    532 ****       -42.0000  24.5000   6.7500 Du        
    533 ****       -42.0000  24.5000   7.0000 Du        
    534 ****       -42.0000  24.7500   4.0000 Du        
    535 ****       -42.0000  24.7500   4.2500 Du        
    536 ****       -42.0000  24.7500   4.5000 Du        
    537 ****       -42.0000  24.7500   4.7500 Du        
    538 ****       -42.0000  24.7500   5.0000 Du        
    539 ****       -42.0000  24.7500   5.2500 Du        
    540 ****       -42.0000  24.7500   5.5000 Du        
    541 ****       -42.0000  24.7500   5.7500 Du        
    542 ****       -42.0000  24.7500   6.0000 Du        
    543 ****       -42.0000  24.7500   6.2500 Du        
    544 ****       -42.0000  24.7500   6.5000 Du        
    545 ****       -42.0000  25.0000   4.0000 Du        
    546 ****       -42.0000  25.0000   4.2500 Du        
    547 ****       -42.0000  25.0000   4.5000 Du        
    548 ****       -42.0000  25.0000   4.7500 Du        
    549 ****       -42.0000  25.0000   5.0000 Du        
    550 ****       -42.0000  25.0000   5.2500 Du        
    551 ****       -42.0000  25.0000   5.5000 Du        
    552 ****       -42.0000  25.2500   4.0000 Du        
    553 ****       -42.0000  25.2500   4.2500 Du        
    554 ****       -42.0000  25.2500   4.5000 Du        
    555 ****       -41.7500  24.5000   4.2500 Du        
    556 ****       -41.7500  24.5000   4.5000 Du        
    557 ****       -41.7500  24.5000   4.7500 Du        
    558 ****       -41.7500  24.5000   5.0000 Du        
    559 ****       -41.7500  24.5000   5.2500 Du        
    560 ****       -41.7500  24.5000   5.5000 Du        
    561 ****       -41.7500  24.5000   5.7500 Du        
    562 ****       -41.7500  24.5000   6.0000 Du        
    563 ****       -41.7500  24.7500   4.0000 Du        
    564 ****       -41.7500  24.7500   4.2500 Du        
    565 ****       -41.7500  24.7500   4.5000 Du        
    566 ****       -41.7500  24.7500   4.7500 Du        
    567 ****       -41.7500  24.7500   5.0000 Du        
    568 ****       -41.7500  24.7500   5.2500 Du        
    569 ****       -41.7500  24.7500   5.5000 Du        
    570 ****       -41.7500  24.7500   5.7500 Du        
    571 ****       -41.7500  24.7500   6.0000 Du        
    572 ****       -41.7500  25.0000   4.0000 Du        
    573 ****       -41.7500  25.0000   4.2500 Du        
    574 ****       -41.7500  25.0000   4.5000 Du        
    575 ****       -41.7500  25.0000   4.7500 Du        
    576 ****       -41.7500  25.0000   5.0000 Du        
    577 ****       -41.7500  25.0000   5.2500 Du        
    578 ****       -41.7500  25.0000   5.5000 Du        
    579 ****       -41.7500  25.0000   5.7500 Du        
    580 ****       -41.7500  25.2500   4.0000 Du        
    581 ****       -41.7500  25.2500   4.2500 Du        
    582 ****       -41.7500  25.2500   4.5000 Du        
    583 ****       -41.7500  25.2500   4.7500 Du        
    584 ****       -41.5000  24.5000   4.5000 Du        
    585 ****       -41.5000  24.7500   4.2500 Du        
    586 ****       -41.5000  24.7500   4.5000 Du        
    587 ****       -41.5000  24.7500   4.7500 Du        
    588 ****       -41.5000  24.7500   5.0000 Du        
    589 ****       -41.5000  24.7500   5.2500 Du        
    590 ****       -41.5000  24.7500   5.5000 Du        
    591 ****       -41.5000  25.0000   4.0000 Du        
    592 ****       -41.5000  25.0000   4.2500 Du        
    593 ****       -41.5000  25.0000   4.5000 Du        
    594 ****       -41.5000  25.0000   4.7500 Du        
    595 ****       -41.5000  25.0000   5.0000 Du        
    596 ****       -41.5000  25.0000   5.2500 Du        
    597 ****       -41.5000  25.2500   4.0000 Du        
    598 ****       -41.5000  25.2500   4.2500 Du        
    599 ****       -41.5000  25.2500   4.5000 Du        
    600 ****       -41.5000  25.2500   4.7500 Du        
    601 ****       -41.5000  25.2500   5.0000 Du        
    602 ****       -41.2500  24.7500   4.0000 Du        
    603 ****       -41.2500  24.7500   4.2500 Du        
    604 ****       -41.2500  24.7500   4.5000 Du        
    605 ****       -41.2500  24.7500   4.7500 Du        
    606 ****       -41.2500  25.0000   4.0000 Du        
    607 ****       -41.2500  25.0000   4.2500 Du        
    608 ****       -41.2500  25.0000   4.5000 Du        
    609 ****       -41.2500  25.0000   4.7500 Du        
    610 ****       -41.2500  25.0000   5.0000 Du        
    611 ****       -41.2500  25.2500   4.0000 Du        
    612 ****       -41.2500  25.2500   4.2500 Du        
    613 ****       -41.2500  25.2500   4.5000 Du        
    614 ****       -41.2500  25.2500   4.7500 Du        
    615 ****       -41.2500  25.5000   4.0000 Du        
    616 ****       -41.2500  25.5000   4.2500 Du        
    617 ****       -41.2500  25.5000   4.5000 Du        
    618 ****       -41.0000  25.0000   4.0000 Du        
    619 ****       -41.0000  25.0000   4.2500 Du        
    620 ****       -41.0000  25.0000   4.5000 Du        
    621 ****       -41.0000  25.2500   4.0000 Du        
    622 ****       -41.0000  25.2500   4.2500 Du        
    623 ****       -41.0000  25.2500   4.5000 Du        
