#       Name:                CT1002167954
#       Creating user name   hitesit
#       Creation time:       Sun Apr 16 02:24:23 2023


#       File generated by GOLD software.
#

@<TRIPOS>MOLECULE
CT1002167954|ligand_prepared|mol2|1|dock6
    29    30     1
SMALL
NO_CHARGES


@<TRIPOS>ATOM
      1 C1         -44.9894  26.0137   3.3674 C.3            1 RES1               0.0000
      2 C2         -43.8739  25.4651   4.2804 C.ar           1 RES1               0.0000
      3 C3         -44.9154  27.5345   3.4671 C.2            1 RES1               0.0000
      4 C4         -44.7064  25.4671   1.9725 C.2            1 RES1               0.0000
      5 C5         -46.4107  25.5631   3.7778 C.3            1 RES1               0.0000
      6 C6         -44.1878  24.8100   5.4674 C.ar           1 RES1               0.0000
      7 C7         -42.5289  25.6038   3.9481 C.ar           1 RES1               0.0000
      8 N8         -44.4028  28.2133   2.4011 N.am           1 RES1               0.0000
      9 O9         -45.2648  28.1262   4.4810 O.2            1 RES1               0.0000
     10 N10        -44.3717  26.3603   0.9886 N.am           1 RES1               0.0000
     11 O11        -44.7540  24.2694   1.7204 O.2            1 RES1               0.0000
     12 C12        -47.4938  25.9809   2.7957 C.3            1 RES1               0.0000
     13 C13        -43.1933  24.3092   6.2911 C.ar           1 RES1               0.0000
     14 C14        -41.5359  25.1024   4.7734 C.ar           1 RES1               0.0000
     15 C15        -44.1770  27.7054   1.1470 C.2            1 RES1               0.0000
     16 C16        -41.8669  24.4546   5.9446 C.ar           1 RES1               0.0000
     17 O17        -43.8233  28.4351   0.2253 O.2            1 RES1               0.0000
     18 H18        -46.4214  24.4702   3.8714 H              1 RES1               0.0000
     19 H19        -46.6447  25.9862   4.7625 H              1 RES1               0.0000
     20 H20        -45.2260  24.6883   5.7579 H              1 RES1               0.0000
     21 H21        -42.2450  26.1108   3.0322 H              1 RES1               0.0000
     22 H22        -44.1652  29.1889   2.5502 H              1 RES1               0.0000
     23 H23        -44.2571  25.9880   0.0513 H              1 RES1               0.0000
     24 H24        -48.4710  25.6398   3.1311 H              1 RES1               0.0000
     25 H25        -47.5283  27.0639   2.6973 H              1 RES1               0.0000
     26 H26        -47.3063  25.5569   1.8114 H              1 RES1               0.0000
     27 H27        -43.4590  23.8013   7.2124 H              1 RES1               0.0000
     28 H28        -40.4933  25.2196   4.4970 H              1 RES1               0.0000
     29 H29        -41.0881  24.0618   6.5898 H              1 RES1               0.0000
@<TRIPOS>BOND
    1    1    2 1     
    2    1    3 1     
    3    1    4 1     
    4    1    5 1     
    5    2    6 ar    
    6    2    7 ar    
    7    3    8 1     
    8    3    9 2     
    9    4   10 1     
   10    4   11 2     
   11    5   12 1     
   12    5   18 1     
   13    5   19 1     
   14    6   13 ar    
   15    6   20 1     
   16    7   14 ar    
   17    7   21 1     
   18    8   15 1     
   19    8   22 1     
   20   10   15 1     
   21   10   23 1     
   22   12   24 1     
   23   12   25 1     
   24   12   26 1     
   25   13   16 ar    
   26   13   27 1     
   27   14   16 ar    
   28   14   28 1     
   29   15   17 2     
   30   16   29 1     
@<TRIPOS>SUBSTRUCTURE
      1 RES1           1
@<TRIPOS>SET
DONOR_HYDROGENS      STATIC     ATOMS    <user>   **** ""
2 22 23
ATOM$RED        STATIC     ATOMS    COLORGROUP SYSTEM
2 22 23
@<TRIPOS>COMMENT
> <Gold.Version>
2022.3.0

> <Gold.Id.Protein>
unknown|7ta6_clean|pdb

> <Gold.Protein.RotatedTorsions>
[ 12165 12063 12062 12060 ] final  -70.43 input   59.99 | X-H torsion
[ 20658 20574 20578 20575 ] final  -86.66 input   43.92 | X-H torsion
[ 2816 2645 2646 2647 ] final -141.04 input  110.81 | X-H torsion
[ 17263 17182 17186 17183 ] final -133.94 input   60.00 | X-H torsion
[ 17267 17185 17184 17183 ] final   90.16 input   59.97 | X-H torsion
[ 17444 17358 17359 17360 ] final  -89.32 input   71.00 | X-H torsion
[ 20662 20577 20576 20575 ] final   54.00 input   60.02 | X-H torsion
[ 20694 2648 2647 2646 ] final   71.48 input    0.00 | X-H torsion
[ 20700 20479 20478 20477 ] final  -62.33 input   -0.00 | X-H torsion

> <Gold.Protein.ActiveResidues>
 TRP28   LEU57   TYR119  GLY121  GLY122  VAL123  XCP1    LEU2    TRP4    CYS27  
 XCP29  

> <Gold.Protein.RotatedAtoms>
  -38.8061   28.6777   11.4246 H   0  0  0  0  0  0  0  0  0  0  0  0  # atno 2816 bound_to 2645
  -40.3238   22.1299    8.1193 H   0  0  0  0  0  0  0  0  0  0  0  0  # atno 12165 bound_to 12063
  -48.5399   32.1532    6.1673 H   0  0  0  0  0  0  0  0  0  0  0  0  # atno 17263 bound_to 17182
  -47.4496   33.3713    5.8946 H   0  0  0  0  0  0  0  0  0  0  0  0  # atno 17264 bound_to 17182
  -45.1451   32.4079    9.7086 H   0  0  0  0  0  0  0  0  0  0  0  0  # atno 17267 bound_to 17185
  -33.3196   27.5169    8.0856 H   0  0  0  0  0  0  0  0  0  0  0  0  # atno 17444 bound_to 17358
  -40.0432   31.1498    9.9092 H   0  0  0  0  0  0  0  0  0  0  0  0  # atno 20658 bound_to 20574
  -38.3855   32.5213    9.5494 H   0  0  0  0  0  0  0  0  0  0  0  0  # atno 20662 bound_to 20577
  -41.5599   30.4296    7.7865 LP  0  0  0  0  0  0  0  0  0  0  0  0  # atno 20694 bound_to 2648
  -40.0489   31.2757    7.7552 LP  0  0  0  0  0  0  0  0  0  0  0  0  # atno 20695 bound_to 2648
  -40.0634   23.4690    7.2323 LP  0  0  0  0  0  0  0  0  0  0  0  0  # atno 20696 bound_to 12063
  -39.3274   23.2883    8.6788 LP  0  0  0  0  0  0  0  0  0  0  0  0  # atno 20697 bound_to 12063
  -37.3456   31.1064   10.2049 LP  0  0  0  0  0  0  0  0  0  0  0  0  # atno 20700 bound_to 20479
  -37.6658   29.6112    9.3915 LP  0  0  0  0  0  0  0  0  0  0  0  0  # atno 20701 bound_to 20479
  -41.3469   31.2529   11.0699 LP  0  0  0  0  0  0  0  0  0  0  0  0  # atno 20702 bound_to 20574
  -39.6651   30.1111   11.9451 LP  0  0  0  0  0  0  0  0  0  0  0  0  # atno 20703 bound_to 2645
  -47.5956   32.1338    4.8205 LP  0  0  0  0  0  0  0  0  0  0  0  0  # atno 20704 bound_to 17182
  -46.4089   31.6958    8.9714 LP  0  0  0  0  0  0  0  0  0  0  0  0  # atno 20705 bound_to 17185
  -46.6232   33.0806    9.8099 LP  0  0  0  0  0  0  0  0  0  0  0  0  # atno 20706 bound_to 17185
  -33.7981   26.8196    6.4933 LP  0  0  0  0  0  0  0  0  0  0  0  0  # atno 20707 bound_to 17358
  -37.6022   33.3080   10.7398 LP  0  0  0  0  0  0  0  0  0  0  0  0  # atno 20708 bound_to 20577
  -37.3177   33.6925    9.1785 LP  0  0  0  0  0  0  0  0  0  0  0  0  # atno 20709 bound_to 20577

> <Gold.Score>
     Fitness  S(hb_ext) S(vdw_ext)  S(hb_int)    S(int)      intcor
     25.05       0.00      18.71       0.00      -0.68      -0.76

> <Gold.Goldscore.Fitness>
25.0535

> <Gold.Goldscore.Internal.Vdw>
-1.0143

> <Gold.Goldscore.Internal.Torsion>
-0.4242

> <Gold.Goldscore.External.Vdw>
18.7144

> <Gold.Goldscore.Internal.HBond>
0.0000

> <Gold.Goldscore.External.HBond>
0.0000

> <Gold.Goldscore.Internal.Correction>
-0.7597

> <Gold.Goldscore.Internal.Vdw.Weighted>
-1.0143

> <Gold.Goldscore.Internal.Torsion.Weighted>
-0.4242

> <Gold.Goldscore.External.Vdw.Weighted>
25.7323

> <Gold.Goldscore.Internal.HBond.Weighted>
0.0000

> <Gold.Goldscore.External.HBond.Weighted>
0.0000

> <Gold.Goldscore.Internal.Correction.Weighted>
-0.7597

> <Gold.Rescore>
     Score     S(PLP)   S(hbond)     S(cho)   S(metal)  DE(clash)   DE(tors)     intcor
     24.93     -25.64       0.00       0.00       0.00       0.00       0.36       ----

> <Gold.PLP.Fitness>
24.9267

> <Gold.PLP.PLP>
-25.6446

> <Gold.PLP.part.hbond>
0.0000

> <Gold.PLP.part.metal>
0.0000

> <Gold.PLP.part.buried>
-1.3218

> <Gold.PLP.part.nonpolar>
-25.8122

> <Gold.PLP.part.repulsive>
0.0911

> <Gold.PLP.ligand.clash>
0.0000

> <Gold.PLP.ligand.torsion>
0.3589

> <Gold.PLP.Chemscore.Hbond>
0.0000

> <Gold.PLP.Chemscore.CHOScore>
0.0000

> <Gold.PLP.Chemscore.Metal>
0.0000

> <Gold.PLP.Chemscore.Internal.Correction>
   9.000000E+99

