#       Name:                CT1002167954
#       Creating user name   hitesit
#       Creation time:       Sun Apr 16 20:21:54 2023


#       File generated by GOLD software.
#

@<TRIPOS>MOLECULE
CT1002167954|ligand_prepared|mol2|1|dock1
    29    30     1
SMALL
NO_CHARGES


@<TRIPOS>ATOM
      1 C1         186.0114  10.9769  50.6270 C.3            1 RES1               0.0000
      2 C2         186.6871  10.5634  49.3036 C.ar           1 RES1               0.0000
      3 C3         185.1968  12.2298  50.3189 C.2            1 RES1               0.0000
      4 C4         185.1730   9.7828  51.0692 C.2            1 RES1               0.0000
      5 C5         187.0092  11.3065  51.7616 C.3            1 RES1               0.0000
      6 C6         186.2193  11.0503  48.0868 C.ar           1 RES1               0.0000
      7 C7         187.7788   9.6995  49.2839 C.ar           1 RES1               0.0000
      8 N8         183.8408  12.1010  50.2515 N.am           1 RES1               0.0000
      9 O9         185.7384  13.3062  50.0993 O.2            1 RES1               0.0000
     10 N10        183.8107   9.9290  51.0949 N.am           1 RES1               0.0000
     11 O11        185.6787   8.7113  51.3798 O.2            1 RES1               0.0000
     12 C12        186.3624  11.9452  52.9806 C.3            1 RES1               0.0000
     13 C13        186.8228  10.6891  46.8936 C.ar           1 RES1               0.0000
     14 C14        188.3807   9.3393  48.0896 C.ar           1 RES1               0.0000
     15 C15        183.1050  11.0241  50.6767 C.2            1 RES1               0.0000
     16 C16        187.9040   9.8338  46.8942 C.ar           1 RES1               0.0000
     17 O17        181.8779  11.0602  50.6791 O.2            1 RES1               0.0000
     18 H18        187.5097  10.3809  52.0717 H              1 RES1               0.0000
     19 H19        187.7756  11.9874  51.3712 H              1 RES1               0.0000
     20 H20        185.3679  11.7225  48.0664 H              1 RES1               0.0000
     21 H21        188.1702   9.2973  50.2122 H              1 RES1               0.0000
     22 H22        183.3262  12.8771  49.8475 H              1 RES1               0.0000
     23 H23        183.2729   9.1492  51.4596 H              1 RES1               0.0000
     24 H24        187.1062  12.1558  53.7461 H              1 RES1               0.0000
     25 H25        185.8765  12.8813  52.7135 H              1 RES1               0.0000
     26 H26        185.6121  11.2843  53.4098 H              1 RES1               0.0000
     27 H27        186.4429  11.0799  45.9554 H              1 RES1               0.0000
     28 H28        189.2311   8.6654  48.0947 H              1 RES1               0.0000
     29 H29        188.3768   9.5513  45.9594 H              1 RES1               0.0000
@<TRIPOS>BOND
    1    1    2 1     
    2    1    3 1     
    3    1    4 1     
    4    1    5 1     
    5    2    6 ar    
    6    2    7 ar    
    7    3    8 1     
    8    3    9 2     
    9    4   10 1     
   10    4   11 2     
   11    5   12 1     
   12    5   18 1     
   13    5   19 1     
   14    6   13 ar    
   15    6   20 1     
   16    7   14 ar    
   17    7   21 1     
   18    8   15 1     
   19    8   22 1     
   20   10   15 1     
   21   10   23 1     
   22   12   24 1     
   23   12   25 1     
   24   12   26 1     
   25   13   16 ar    
   26   13   27 1     
   27   14   16 ar    
   28   14   28 1     
   29   15   17 2     
   30   16   29 1     
@<TRIPOS>SUBSTRUCTURE
      1 RES1           1
@<TRIPOS>SET
DONOR_HYDROGENS      STATIC     ATOMS    <user>   **** ""
2 22 23
ATOM$RED        STATIC     ATOMS    COLORGROUP SYSTEM
2 22 23
@<TRIPOS>COMMENT
> <Gold.Version>
2022.3.0

> <Gold.Id.Protein>
unknown|4v3u_clean|pdb

> <Gold.Protein.RotatedTorsions>
[  552  517  516  515 ] final  133.08 input   59.99 | X-H torsion
[ 2539 2515 2516 2517 ] final  138.49 input  113.65 | X-H torsion
[ 2615 2585 2586 2587 ] final  -27.55 input   46.31 | X-H torsion
[ 26073 26031 26030 26028 ] final  160.74 input   59.98 | X-H torsion
[ 27148 27102 27101 27097 ] final  101.98 input   60.00 | X-H torsion
[ 7433 7405 7406 7407 ] final -154.68 input   81.33 | X-H torsion
[ 7467 7446 7447 7448 ] final -114.37 input   92.53 | X-H torsion
[ 7519 7507 7508 7509 ] final   21.84 input   89.47 | X-H torsion
[ 17188 17168 17169 17170 ] final  173.81 input   55.70 | X-H torsion
[ 17240 17210 17211 17212 ] final -162.80 input  101.26 | X-H torsion
[ 18288 18265 18266 18267 ] final  179.87 input   32.88 | X-H torsion
[ 18322 18307 18308 18309 ] final   33.73 input   53.35 | X-H torsion
[ 18397 18345 18346 18347 ] final   91.95 input   36.30 | X-H torsion
[ 18484 18439 18440 18441 ] final   66.80 input   98.15 | X-H torsion
[ 18560 18519 18520 18521 ] final -135.82 input   94.34 | X-H torsion
[ 17296 17273 17274 17275 ] final -157.23 input   50.38 | X-H torsion
[ 18492 18450 18449 18447 ] final   84.72 input   59.99 | X-H torsion
[ 18232 18190 18191 18192 ] final  148.83 input   49.82 | X-H torsion
[ 18292 18270 18269 18266 ] final -112.49 input   60.01 | X-H torsion
[ 10113 10086 10085 10082 ] final  -52.70 input   60.00 | X-H torsion
[ 16984 16942 16941 16939 ] final -166.37 input   60.00 | X-H torsion
[ 11483 11448 11449 11450 ] final  171.04 input   47.08 | X-H torsion
[ 11550 11515 11516 11517 ] final  156.66 input  121.60 | X-H torsion
[ 11626 11591 11592 11593 ] final -162.85 input   57.19 | X-H torsion
[ 11428 11406 11405 11402 ] final   74.57 input   60.00 | X-H torsion
[ 27149 27104 27103 27101 ] final   76.41 input   60.02 | X-H torsion
[ 10149 10124 10125 10126 ] final   22.90 input   16.22 | X-H torsion
[ 17349 17319 17320 17321 ] final -116.67 input   65.41 | X-H torsion
[ 27203 2518 2517 2516 ] final -165.48 input    0.00 | X-H torsion
[ 27224 7317 7316 7315 ] final   41.36 input    0.00 | X-H torsion
[ 27227 7408 7407 7406 ] final  -68.57 input   -0.00 | X-H torsion
[ 27232 17117 17116 17115 ] final  169.79 input    0.00 | X-H torsion
[ 27236 18193 18192 18191 ] final   82.88 input    0.00 | X-H torsion
[ 27239 18268 18267 18266 ] final -159.98 input    0.00 | X-H torsion
[ 27242 18310 18309 18308 ] final   31.46 input   -0.00 | X-H torsion
[ 27245 18348 18347 18346 ] final   25.15 input    0.00 | X-H torsion
[ 27253 17171 17170 17169 ] final -177.00 input   -0.00 | X-H torsion
[ 27255 17213 17212 17211 ] final -144.32 input    0.00 | X-H torsion
[ 27257 17042 17041 17040 ] final  -71.46 input    0.00 | X-H torsion
[ 27267 10127 10126 10125 ] final  -97.36 input   -0.00 | X-H torsion
[ 27269 11404 11403 11402 ] final  -62.09 input    0.00 | X-H torsion
[ 27275 11594 11593 11592 ] final  157.20 input   -0.00 | X-H torsion
[ 27284 18675 18674 18673 ] final -117.21 input    0.00 | X-H torsion

> <Gold.Protein.ActiveResidues>
 LYS309  TRP311  MET341  HIS342  TRP414  ALA417  ARG419  CYS420  VAL421  GLY422 
 ARG423  SER462  ALA463  SER482  GLN483  LEU484  ILE485  ARG486  ALA502  TRP566 
 TYR567  LEU569  PRO570  ALA571  VAL572  SER573  ASN574  MET575  PHE589  SER590 
 GLY591  TRP592  TYR593  MET594  GLU597  ILE598  ARG601  ASP602  ASP605  ARG608 
 TRP683  HIS697  GLU699  TYR711  HEM750  H4B760 

> <Gold.Protein.RotatedAtoms>
  188.4276   24.0090   43.1308 H   0  0  0  0  0  0  0  0  0  0  0  0  # atno 552  bound_to 517 
  189.2397   24.5139   41.7772 H   0  0  0  0  0  0  0  0  0  0  0  0  # atno 553  bound_to 517 
  189.9029   23.3544   42.7576 H   0  0  0  0  0  0  0  0  0  0  0  0  # atno 554  bound_to 517 
  196.8673   20.2933   46.5135 H   0  0  0  0  0  0  0  0  0  0  0  0  # atno 2539 bound_to 2515
  197.8410   18.8142   44.0693 H   0  0  0  0  0  0  0  0  0  0  0  0  # atno 2615 bound_to 2585
  196.5174    6.9140   50.0935 H   0  0  0  0  0  0  0  0  0  0  0  0  # atno 7433 bound_to 7405
  196.3854    5.1481   53.0896 H   0  0  0  0  0  0  0  0  0  0  0  0  # atno 7467 bound_to 7446
  195.5054    2.6404   53.7059 H   0  0  0  0  0  0  0  0  0  0  0  0  # atno 7519 bound_to 7507
  189.1925   -3.3893   50.7913 H   0  0  0  0  0  0  0  0  0  0  0  0  # atno 10113 bound_to 10086
  187.5390   -3.8852   47.1903 H   0  0  0  0  0  0  0  0  0  0  0  0  # atno 10149 bound_to 10124
  182.4841   11.1549   43.7539 H   0  0  0  0  0  0  0  0  0  0  0  0  # atno 11428 bound_to 11406
  183.0403    9.1779   43.1914 H   0  0  0  0  0  0  0  0  0  0  0  0  # atno 11483 bound_to 11448
  181.9728    4.8185   43.2393 H   0  0  0  0  0  0  0  0  0  0  0  0  # atno 11550 bound_to 11515
  178.6757    4.2869   44.3876 H   0  0  0  0  0  0  0  0  0  0  0  0  # atno 11626 bound_to 11591
  181.0486    8.1978   49.4937 H   0  0  0  0  0  0  0  0  0  0  0  0  # atno 16984 bound_to 16942
  182.9812    2.8283   48.2921 H   0  0  0  0  0  0  0  0  0  0  0  0  # atno 17188 bound_to 17168
  185.4511    4.5279   46.2255 H   0  0  0  0  0  0  0  0  0  0  0  0  # atno 17240 bound_to 17210
  185.6935    4.9387   42.8271 H   0  0  0  0  0  0  0  0  0  0  0  0  # atno 17296 bound_to 17273
  185.9909    6.3105   39.6711 H   0  0  0  0  0  0  0  0  0  0  0  0  # atno 17349 bound_to 17319
  187.7530    1.0143   41.9661 H   0  0  0  0  0  0  0  0  0  0  0  0  # atno 18232 bound_to 18190
  186.5403   -0.1262   45.2752 H   0  0  0  0  0  0  0  0  0  0  0  0  # atno 18288 bound_to 18265
  184.2109   -2.1208   46.3314 H   0  0  0  0  0  0  0  0  0  0  0  0  # atno 18292 bound_to 18270
  186.4545    0.4073   49.8050 H   0  0  0  0  0  0  0  0  0  0  0  0  # atno 18322 bound_to 18307
  187.5332   -0.9155   53.3636 H   0  0  0  0  0  0  0  0  0  0  0  0  # atno 18397 bound_to 18345
  184.7600    1.3406   56.0002 H   0  0  0  0  0  0  0  0  0  0  0  0  # atno 18484 bound_to 18439
  182.3231    6.9283   51.2334 H   0  0  0  0  0  0  0  0  0  0  0  0  # atno 18492 bound_to 18450
  187.2462    3.4288   57.1084 H   0  0  0  0  0  0  0  0  0  0  0  0  # atno 18560 bound_to 18519
  195.0308   12.6548   45.4482 H   0  0  0  0  0  0  0  0  0  0  0  0  # atno 26073 bound_to 26031
  193.4674   20.5055   52.6814 H   0  0  0  0  0  0  0  0  0  0  0  0  # atno 27148 bound_to 27102
  196.4616   19.6342   49.7562 H   0  0  0  0  0  0  0  0  0  0  0  0  # atno 27149 bound_to 27104
  198.2837   19.4629   45.9199 LP  0  0  0  0  0  0  0  0  0  0  0  0  # atno 27202 bound_to 2515
  197.3245   15.9310   43.6728 LP  0  0  0  0  0  0  0  0  0  0  0  0  # atno 27203 bound_to 2518
  196.4919   15.8057   45.1865 LP  0  0  0  0  0  0  0  0  0  0  0  0  # atno 27204 bound_to 2518
  196.1675   18.3673   43.8494 LP  0  0  0  0  0  0  0  0  0  0  0  0  # atno 27205 bound_to 2585
  193.6739   11.7576   45.4781 LP  0  0  0  0  0  0  0  0  0  0  0  0  # atno 27209 bound_to 26031
  193.5783   13.3877   45.4641 LP  0  0  0  0  0  0  0  0  0  0  0  0  # atno 27210 bound_to 26031
  192.5170   19.2188   52.3841 LP  0  0  0  0  0  0  0  0  0  0  0  0  # atno 27213 bound_to 27102
  192.5491   20.4730   51.3388 LP  0  0  0  0  0  0  0  0  0  0  0  0  # atno 27214 bound_to 27102
  195.3323    8.8207   51.2069 LP  0  0  0  0  0  0  0  0  0  0  0  0  # atno 27224 bound_to 7317
  195.5811    7.6203   52.4305 LP  0  0  0  0  0  0  0  0  0  0  0  0  # atno 27225 bound_to 7317
  197.8273    6.0965   50.9055 LP  0  0  0  0  0  0  0  0  0  0  0  0  # atno 27226 bound_to 7405
  197.6466    3.2712   52.2875 LP  0  0  0  0  0  0  0  0  0  0  0  0  # atno 27227 bound_to 7408
  198.3146    4.5846   53.1979 LP  0  0  0  0  0  0  0  0  0  0  0  0  # atno 27228 bound_to 7408
  194.7022    4.9698   53.5351 LP  0  0  0  0  0  0  0  0  0  0  0  0  # atno 27229 bound_to 7446
  194.5817    3.1484   55.0981 LP  0  0  0  0  0  0  0  0  0  0  0  0  # atno 27230 bound_to 7507
  185.3033    1.9801   48.0679 LP  0  0  0  0  0  0  0  0  0  0  0  0  # atno 27232 bound_to 17117
  185.3546    2.2779   49.7734 LP  0  0  0  0  0  0  0  0  0  0  0  0  # atno 27233 bound_to 17117
  183.3980    4.4502   47.8027 LP  0  0  0  0  0  0  0  0  0  0  0  0  # atno 27234 bound_to 17168
  185.5792    3.2849   44.9973 LP  0  0  0  0  0  0  0  0  0  0  0  0  # atno 27235 bound_to 17210
  185.5620    1.6748   44.9565 LP  0  0  0  0  0  0  0  0  0  0  0  0  # atno 27236 bound_to 18193
  187.0006    2.1889   45.7726 LP  0  0  0  0  0  0  0  0  0  0  0  0  # atno 27237 bound_to 18193
  187.6735   -1.2141   46.0379 LP  0  0  0  0  0  0  0  0  0  0  0  0  # atno 27238 bound_to 18265
  187.6841   -2.7494   49.1282 LP  0  0  0  0  0  0  0  0  0  0  0  0  # atno 27239 bound_to 18268
  187.7487   -2.4312   47.4268 LP  0  0  0  0  0  0  0  0  0  0  0  0  # atno 27240 bound_to 18268
  187.2884   -0.7672   48.8129 LP  0  0  0  0  0  0  0  0  0  0  0  0  # atno 27241 bound_to 18307
  185.1448   -2.1652   51.1716 LP  0  0  0  0  0  0  0  0  0  0  0  0  # atno 27242 bound_to 18310
  184.4901   -0.8940   52.1490 LP  0  0  0  0  0  0  0  0  0  0  0  0  # atno 27243 bound_to 18310
  186.6895   -0.0083   52.1296 LP  0  0  0  0  0  0  0  0  0  0  0  0  # atno 27244 bound_to 18345
  187.8517    1.6311   53.6755 LP  0  0  0  0  0  0  0  0  0  0  0  0  # atno 27245 bound_to 18348
  187.7401    2.5127   55.1623 LP  0  0  0  0  0  0  0  0  0  0  0  0  # atno 27246 bound_to 18348
  185.6815    1.7427   54.5690 LP  0  0  0  0  0  0  0  0  0  0  0  0  # atno 27247 bound_to 18439
  186.9017    5.0373   56.5149 LP  0  0  0  0  0  0  0  0  0  0  0  0  # atno 27248 bound_to 18519
  183.8169    5.4562   44.2511 LP  0  0  0  0  0  0  0  0  0  0  0  0  # atno 27253 bound_to 17171
  182.5750    4.5874   45.0895 LP  0  0  0  0  0  0  0  0  0  0  0  0  # atno 27254 bound_to 17171
  187.1467    3.5723   41.7056 LP  0  0  0  0  0  0  0  0  0  0  0  0  # atno 27255 bound_to 17213
  186.6322    2.8913   43.2127 LP  0  0  0  0  0  0  0  0  0  0  0  0  # atno 27256 bound_to 17213
  180.3331    2.7086   48.5026 LP  0  0  0  0  0  0  0  0  0  0  0  0  # atno 27257 bound_to 17042
  180.2553    3.9611   49.6965 LP  0  0  0  0  0  0  0  0  0  0  0  0  # atno 27258 bound_to 17042
  185.8921    6.5616   42.2163 LP  0  0  0  0  0  0  0  0  0  0  0  0  # atno 27259 bound_to 17273
  182.3680    8.2022   52.2448 LP  0  0  0  0  0  0  0  0  0  0  0  0  # atno 27260 bound_to 18450
  181.0299    7.2700   52.1601 LP  0  0  0  0  0  0  0  0  0  0  0  0  # atno 27261 bound_to 18450
  186.1894    1.1181   42.7434 LP  0  0  0  0  0  0  0  0  0  0  0  0  # atno 27262 bound_to 18190
  184.0500   -2.3322   47.9364 LP  0  0  0  0  0  0  0  0  0  0  0  0  # atno 27263 bound_to 18270
  185.5232   -2.4364   47.2397 LP  0  0  0  0  0  0  0  0  0  0  0  0  # atno 27264 bound_to 18270
  190.6058   -4.1477   51.0672 LP  0  0  0  0  0  0  0  0  0  0  0  0  # atno 27265 bound_to 10086
  189.2198   -4.7463   51.6893 LP  0  0  0  0  0  0  0  0  0  0  0  0  # atno 27266 bound_to 10086
  186.6845   -2.6723   44.6838 LP  0  0  0  0  0  0  0  0  0  0  0  0  # atno 27267 bound_to 10127
  188.2712   -2.6077   45.3754 LP  0  0  0  0  0  0  0  0  0  0  0  0  # atno 27268 bound_to 10127
  185.0239    7.7672   41.8398 LP  0  0  0  0  0  0  0  0  0  0  0  0  # atno 27269 bound_to 11404
  184.9450    8.2174   43.5105 LP  0  0  0  0  0  0  0  0  0  0  0  0  # atno 27270 bound_to 11404
  180.4551    9.2421   50.5910 LP  0  0  0  0  0  0  0  0  0  0  0  0  # atno 27271 bound_to 16942
  179.8576    9.2226   49.0714 LP  0  0  0  0  0  0  0  0  0  0  0  0  # atno 27272 bound_to 16942
  181.7418    8.6493   42.1491 LP  0  0  0  0  0  0  0  0  0  0  0  0  # atno 27273 bound_to 11448
  180.8818    6.0692   43.7890 LP  0  0  0  0  0  0  0  0  0  0  0  0  # atno 27274 bound_to 11515
  179.0650    7.9789   47.4436 LP  0  0  0  0  0  0  0  0  0  0  0  0  # atno 27275 bound_to 11594
  179.0796    6.2924   47.8382 LP  0  0  0  0  0  0  0  0  0  0  0  0  # atno 27276 bound_to 11594
  179.6588    5.5285   45.1267 LP  0  0  0  0  0  0  0  0  0  0  0  0  # atno 27277 bound_to 11591
  181.6411   11.5409   42.4167 LP  0  0  0  0  0  0  0  0  0  0  0  0  # atno 27282 bound_to 11406
  182.5181   12.6809   43.1900 LP  0  0  0  0  0  0  0  0  0  0  0  0  # atno 27283 bound_to 11406
  184.1139   12.6526   56.1031 LP  0  0  0  0  0  0  0  0  0  0  0  0  # atno 27284 bound_to 18675
  184.5067   11.7541   54.6754 LP  0  0  0  0  0  0  0  0  0  0  0  0  # atno 27285 bound_to 18675

> <Gold.Score>
     Fitness  S(hb_ext) S(vdw_ext)  S(hb_int)    S(int)      intcor
     36.92       5.74      23.67       0.00      -1.37      -0.78

> <Gold.Goldscore.Fitness>
36.9203

> <Gold.Goldscore.Internal.Vdw>
-1.6076

> <Gold.Goldscore.Internal.Torsion>
-0.5343

> <Gold.Goldscore.External.Vdw>
23.6691

> <Gold.Goldscore.Internal.HBond>
0.0000

> <Gold.Goldscore.External.HBond>
5.7404

> <Gold.Goldscore.Internal.Correction>
-0.7769

> <Gold.Goldscore.Hbonds>
donor molecule, donor type, donor heavy atom, donor atom, acceptor molecule, acceptor atom, score
      P1  H 19332 19366       L1    17  0.68
      L1  H    10    23       P1 18450  0.82

> <Gold.Goldscore.Internal.Vdw.Weighted>
-1.6076

> <Gold.Goldscore.Internal.Torsion.Weighted>
-0.5343

> <Gold.Goldscore.External.Vdw.Weighted>
32.5450

> <Gold.Goldscore.Internal.HBond.Weighted>
0.0000

> <Gold.Goldscore.External.HBond.Weighted>
5.7404

> <Gold.Goldscore.Internal.Correction.Weighted>
-0.7769

> <Gold.Rescore>
     Score     S(PLP)   S(hbond)     S(cho)   S(metal)  DE(clash)   DE(tors)     intcor
     23.00     -22.89       0.90       0.00       0.00       1.57       0.51       ----

> <Gold.PLP.Fitness>
22.9958

> <Gold.PLP.PLP>
-22.8934

> <Gold.PLP.part.hbond>
-3.8966

> <Gold.PLP.part.metal>
0.0000

> <Gold.PLP.part.buried>
-0.2644

> <Gold.PLP.part.nonpolar>
-22.4390

> <Gold.PLP.part.repulsive>
2.5059

> <Gold.PLP.ligand.clash>
1.5720

> <Gold.PLP.ligand.torsion>
0.5068

> <Gold.PLP.Chemscore.Hbond>
0.8960

> <Gold.PLP.Chemscore.CHOScore>
0.0000

> <Gold.PLP.Chemscore.Metal>
0.0000

> <Gold.Chemscore.Hbonds>
donor molecule, donor type, donor heavy atom, donor atom, acceptor molecule, acceptor atom, score
      L1  H    10    23       P1 18450  0.04
      P1  H 19332 19366       L1    17  0.60

> <Gold.PLP.Chemscore.Internal.Correction>
   9.000000E+99

