#       Name:                CT1002167954
#       Creating user name   hitesit
#       Creation time:       Sun Apr 16 20:21:58 2023


#       File generated by GOLD software.
#

@<TRIPOS>MOLECULE
CT1002167954|ligand_prepared|mol2|1|dock7
    29    30     1
SMALL
NO_CHARGES


@<TRIPOS>ATOM
      1 C1         187.5545   9.4919  47.1371 C.3            1 RES1               0.0000
      2 C2         187.5809   8.2731  48.0818 C.ar           1 RES1               0.0000
      3 C3         187.2462  10.7044  48.0107 C.2            1 RES1               0.0000
      4 C4         188.9224   9.5407  46.4654 C.2            1 RES1               0.0000
      5 C5         186.4806   9.3997  46.0281 C.3            1 RES1               0.0000
      6 C6         186.4069   7.7982  48.6588 C.ar           1 RES1               0.0000
      7 C7         188.7691   7.6128  48.3832 C.ar           1 RES1               0.0000
      8 N8         188.2680  11.5676  48.2767 N.am           1 RES1               0.0000
      9 O9         186.1333  10.8794  48.4912 O.2            1 RES1               0.0000
     10 N10        189.7368  10.6069  46.7440 N.am           1 RES1               0.0000
     11 O11        189.3088   8.6571  45.7103 O.2            1 RES1               0.0000
     12 C12        186.3923  10.6418  45.1554 C.3            1 RES1               0.0000
     13 C13        186.4197   6.7010  49.5041 C.ar           1 RES1               0.0000
     14 C14        188.7797   6.5159  49.2290 C.ar           1 RES1               0.0000
     15 C15        189.4840  11.6069  47.6430 C.2            1 RES1               0.0000
     16 C16        187.6059   6.0589  49.7894 C.ar           1 RES1               0.0000
     17 O17        190.2896  12.5026  47.8793 O.2            1 RES1               0.0000
     18 H18        186.7046   8.5355  45.3907 H              1 RES1               0.0000
     19 H19        185.5036   9.2269  46.4962 H              1 RES1               0.0000
     20 H20        185.4643   8.2921  48.4479 H              1 RES1               0.0000
     21 H21        189.7048   7.9553  47.9546 H              1 RES1               0.0000
     22 H22        188.1138  12.2467  49.0152 H              1 RES1               0.0000
     23 H23        190.6128  10.6601  46.2338 H              1 RES1               0.0000
     24 H24        185.6240  10.5244  44.3941 H              1 RES1               0.0000
     25 H25        186.1460  11.5167  45.7534 H              1 RES1               0.0000
     26 H26        187.3398  10.8294  44.6545 H              1 RES1               0.0000
     27 H27        185.4934   6.3462  49.9436 H              1 RES1               0.0000
     28 H28        189.7157   6.0140  49.4512 H              1 RES1               0.0000
     29 H29        187.6156   5.1993  50.4512 H              1 RES1               0.0000
@<TRIPOS>BOND
    1    1    2 1     
    2    1    3 1     
    3    1    4 1     
    4    1    5 1     
    5    2    6 ar    
    6    2    7 ar    
    7    3    8 1     
    8    3    9 2     
    9    4   10 1     
   10    4   11 2     
   11    5   12 1     
   12    5   18 1     
   13    5   19 1     
   14    6   13 ar    
   15    6   20 1     
   16    7   14 ar    
   17    7   21 1     
   18    8   15 1     
   19    8   22 1     
   20   10   15 1     
   21   10   23 1     
   22   12   24 1     
   23   12   25 1     
   24   12   26 1     
   25   13   16 ar    
   26   13   27 1     
   27   14   16 ar    
   28   14   28 1     
   29   15   17 2     
   30   16   29 1     
@<TRIPOS>SUBSTRUCTURE
      1 RES1           1
@<TRIPOS>SET
DONOR_HYDROGENS      STATIC     ATOMS    <user>   **** ""
2 22 23
ATOM$RED        STATIC     ATOMS    COLORGROUP SYSTEM
2 22 23
@<TRIPOS>COMMENT
> <Gold.Version>
2022.3.0

> <Gold.Id.Protein>
unknown|4v3u_clean|pdb

> <Gold.Protein.RotatedTorsions>
[  552  517  516  515 ] final -163.71 input   59.99 | X-H torsion
[ 2539 2515 2516 2517 ] final  165.52 input  113.65 | X-H torsion
[ 2615 2585 2586 2587 ] final -160.47 input   46.31 | X-H torsion
[ 26073 26031 26030 26028 ] final  130.39 input   59.98 | X-H torsion
[ 27148 27102 27101 27097 ] final   66.21 input   60.00 | X-H torsion
[ 7433 7405 7406 7407 ] final   -1.16 input   81.33 | X-H torsion
[ 7467 7446 7447 7448 ] final -128.68 input   92.53 | X-H torsion
[ 7519 7507 7508 7509 ] final  -16.80 input   89.47 | X-H torsion
[ 17188 17168 17169 17170 ] final -163.25 input   55.70 | X-H torsion
[ 17240 17210 17211 17212 ] final   37.42 input  101.26 | X-H torsion
[ 18288 18265 18266 18267 ] final -154.19 input   32.88 | X-H torsion
[ 18322 18307 18308 18309 ] final -144.86 input   53.35 | X-H torsion
[ 18397 18345 18346 18347 ] final  -64.31 input   36.30 | X-H torsion
[ 18484 18439 18440 18441 ] final  100.63 input   98.15 | X-H torsion
[ 18560 18519 18520 18521 ] final  169.21 input   94.34 | X-H torsion
[ 17296 17273 17274 17275 ] final  -28.03 input   50.38 | X-H torsion
[ 18492 18450 18449 18447 ] final   68.96 input   59.99 | X-H torsion
[ 18232 18190 18191 18192 ] final  144.69 input   49.82 | X-H torsion
[ 18292 18270 18269 18266 ] final -172.98 input   60.01 | X-H torsion
[ 10113 10086 10085 10082 ] final  120.72 input   60.00 | X-H torsion
[ 16984 16942 16941 16939 ] final    4.09 input   60.00 | X-H torsion
[ 11483 11448 11449 11450 ] final -154.54 input   47.08 | X-H torsion
[ 11550 11515 11516 11517 ] final   20.57 input  121.60 | X-H torsion
[ 11626 11591 11592 11593 ] final   72.85 input   57.19 | X-H torsion
[ 11428 11406 11405 11402 ] final  -56.66 input   60.00 | X-H torsion
[ 27149 27104 27103 27101 ] final  -11.34 input   60.02 | X-H torsion
[ 10149 10124 10125 10126 ] final  127.90 input   16.22 | X-H torsion
[ 17349 17319 17320 17321 ] final  122.71 input   65.41 | X-H torsion
[ 27203 2518 2517 2516 ] final    1.98 input    0.00 | X-H torsion
[ 27224 7317 7316 7315 ] final  -84.92 input    0.00 | X-H torsion
[ 27227 7408 7407 7406 ] final   78.24 input   -0.00 | X-H torsion
[ 27232 17117 17116 17115 ] final    1.98 input    0.00 | X-H torsion
[ 27236 18193 18192 18191 ] final  129.11 input    0.00 | X-H torsion
[ 27239 18268 18267 18266 ] final  -35.73 input    0.00 | X-H torsion
[ 27242 18310 18309 18308 ] final   49.76 input   -0.00 | X-H torsion
[ 27245 18348 18347 18346 ] final   -9.41 input    0.00 | X-H torsion
[ 27253 17171 17170 17169 ] final  137.02 input   -0.00 | X-H torsion
[ 27255 17213 17212 17211 ] final -102.13 input    0.00 | X-H torsion
[ 27257 17042 17041 17040 ] final  -13.89 input    0.00 | X-H torsion
[ 27267 10127 10126 10125 ] final -164.67 input   -0.00 | X-H torsion
[ 27269 11404 11403 11402 ] final  -42.31 input    0.00 | X-H torsion
[ 27275 11594 11593 11592 ] final -120.04 input   -0.00 | X-H torsion
[ 27284 18675 18674 18673 ] final   36.09 input    0.00 | X-H torsion

> <Gold.Protein.ActiveResidues>
 LYS309  TRP311  MET341  HIS342  TRP414  ALA417  ARG419  CYS420  VAL421  GLY422 
 ARG423  SER462  ALA463  SER482  GLN483  LEU484  ILE485  ARG486  ALA502  TRP566 
 TYR567  LEU569  PRO570  ALA571  VAL572  SER573  ASN574  MET575  PHE589  SER590 
 GLY591  TRP592  TYR593  MET594  GLU597  ILE598  ARG601  ASP602  ASP605  ARG608 
 TRP683  HIS697  GLU699  TYR711  HEM750  H4B760 

> <Gold.Protein.RotatedAtoms>
  188.5045   24.5792   42.3097 H   0  0  0  0  0  0  0  0  0  0  0  0  # atno 552  bound_to 517 
  189.9732   23.8714   42.0122 H   0  0  0  0  0  0  0  0  0  0  0  0  # atno 553  bound_to 517 
  189.0929   23.4264   43.3435 H   0  0  0  0  0  0  0  0  0  0  0  0  # atno 554  bound_to 517 
  197.0227   20.1153   46.8505 H   0  0  0  0  0  0  0  0  0  0  0  0  # atno 2539 bound_to 2515
  196.5377   17.8630   44.1579 H   0  0  0  0  0  0  0  0  0  0  0  0  # atno 2615 bound_to 2585
  197.7438    6.3908   51.1629 H   0  0  0  0  0  0  0  0  0  0  0  0  # atno 7433 bound_to 7405
  196.3553    5.3536   53.1665 H   0  0  0  0  0  0  0  0  0  0  0  0  # atno 7467 bound_to 7446
  195.8381    2.6006   54.1832 H   0  0  0  0  0  0  0  0  0  0  0  0  # atno 7519 bound_to 7507
  190.0561   -4.8325   51.6083 H   0  0  0  0  0  0  0  0  0  0  0  0  # atno 10113 bound_to 10086
  186.9250   -5.0309   47.6971 H   0  0  0  0  0  0  0  0  0  0  0  0  # atno 10149 bound_to 10124
  181.6614   11.7179   42.3707 H   0  0  0  0  0  0  0  0  0  0  0  0  # atno 11428 bound_to 11406
  183.2569    8.9111   42.7975 H   0  0  0  0  0  0  0  0  0  0  0  0  # atno 11483 bound_to 11448
  181.0104    5.6521   44.2760 H   0  0  0  0  0  0  0  0  0  0  0  0  # atno 11550 bound_to 11515
  179.6552    4.7987   45.4930 H   0  0  0  0  0  0  0  0  0  0  0  0  # atno 11626 bound_to 11591
  179.8115    9.5605   49.7960 H   0  0  0  0  0  0  0  0  0  0  0  0  # atno 16984 bound_to 16942
  183.3007    2.8624   48.4295 H   0  0  0  0  0  0  0  0  0  0  0  0  # atno 17188 bound_to 17168
  185.8721    3.2490   45.0950 H   0  0  0  0  0  0  0  0  0  0  0  0  # atno 17240 bound_to 17210
  186.5151    6.1467   42.1997 H   0  0  0  0  0  0  0  0  0  0  0  0  # atno 17296 bound_to 17273
  186.0403    7.3928   40.7533 H   0  0  0  0  0  0  0  0  0  0  0  0  # atno 17349 bound_to 17319
  187.7696    1.0677   41.9976 H   0  0  0  0  0  0  0  0  0  0  0  0  # atno 18232 bound_to 18190
  186.8473    0.1091   45.3581 H   0  0  0  0  0  0  0  0  0  0  0  0  # atno 18288 bound_to 18265
  183.6706   -2.1568   47.1031 H   0  0  0  0  0  0  0  0  0  0  0  0  # atno 18292 bound_to 18270
  187.2867   -0.8026   48.8101 H   0  0  0  0  0  0  0  0  0  0  0  0  # atno 18322 bound_to 18307
  186.9018    0.2565   52.2513 H   0  0  0  0  0  0  0  0  0  0  0  0  # atno 18397 bound_to 18345
  184.4248    1.5203   55.6514 H   0  0  0  0  0  0  0  0  0  0  0  0  # atno 18484 bound_to 18439
  182.5159    7.0937   51.2709 H   0  0  0  0  0  0  0  0  0  0  0  0  # atno 18492 bound_to 18450
  187.8370    3.8123   56.6923 H   0  0  0  0  0  0  0  0  0  0  0  0  # atno 18560 bound_to 18519
  194.9305   12.1752   45.4541 H   0  0  0  0  0  0  0  0  0  0  0  0  # atno 26073 bound_to 26031
  193.3397   20.0024   52.9286 H   0  0  0  0  0  0  0  0  0  0  0  0  # atno 27148 bound_to 27102
  196.2568   18.5446   50.4295 H   0  0  0  0  0  0  0  0  0  0  0  0  # atno 27149 bound_to 27104
  198.1310   19.6378   45.5888 LP  0  0  0  0  0  0  0  0  0  0  0  0  # atno 27202 bound_to 2515
  196.6666   15.8066   45.2590 LP  0  0  0  0  0  0  0  0  0  0  0  0  # atno 27203 bound_to 2518
  197.1498   15.9300   43.6003 LP  0  0  0  0  0  0  0  0  0  0  0  0  # atno 27204 bound_to 2518
  197.4463   19.3006   43.7625 LP  0  0  0  0  0  0  0  0  0  0  0  0  # atno 27205 bound_to 2585
  193.3061   12.0866   45.4801 LP  0  0  0  0  0  0  0  0  0  0  0  0  # atno 27209 bound_to 26031
  194.0471   13.5416   45.4562 LP  0  0  0  0  0  0  0  0  0  0  0  0  # atno 27210 bound_to 26031
  192.2681   19.3664   51.8825 LP  0  0  0  0  0  0  0  0  0  0  0  0  # atno 27213 bound_to 27102
  192.9267   20.8321   51.5914 LP  0  0  0  0  0  0  0  0  0  0  0  0  # atno 27214 bound_to 27102
  195.9978    8.2799   52.4922 LP  0  0  0  0  0  0  0  0  0  0  0  0  # atno 27224 bound_to 7317
  194.9155    8.1611   51.1451 LP  0  0  0  0  0  0  0  0  0  0  0  0  # atno 27225 bound_to 7317
  196.6167    6.6130   49.8499 LP  0  0  0  0  0  0  0  0  0  0  0  0  # atno 27226 bound_to 7405
  198.3866    4.6925   52.7206 LP  0  0  0  0  0  0  0  0  0  0  0  0  # atno 27227 bound_to 7408
  197.5745    3.1633   52.7648 LP  0  0  0  0  0  0  0  0  0  0  0  0  # atno 27228 bound_to 7408
  194.7314    4.7708   53.4606 LP  0  0  0  0  0  0  0  0  0  0  0  0  # atno 27229 bound_to 7446
  194.2552    3.1875   54.6297 LP  0  0  0  0  0  0  0  0  0  0  0  0  # atno 27230 bound_to 7507
  185.2505    2.1267   49.7831 LP  0  0  0  0  0  0  0  0  0  0  0  0  # atno 27232 bound_to 17117
  185.4074    2.1314   48.0582 LP  0  0  0  0  0  0  0  0  0  0  0  0  # atno 27233 bound_to 17117
  183.0830    4.4165   47.6673 LP  0  0  0  0  0  0  0  0  0  0  0  0  # atno 27234 bound_to 17168
  185.1743    4.5151   46.0848 LP  0  0  0  0  0  0  0  0  0  0  0  0  # atno 27235 bound_to 17210
  185.5372    1.5762   45.6289 LP  0  0  0  0  0  0  0  0  0  0  0  0  # atno 27236 bound_to 18193
  187.0254    2.2874   45.1003 LP  0  0  0  0  0  0  0  0  0  0  0  0  # atno 27237 bound_to 18193
  187.3722   -1.4451   45.9565 LP  0  0  0  0  0  0  0  0  0  0  0  0  # atno 27238 bound_to 18265
  187.0812   -2.7827   47.7212 LP  0  0  0  0  0  0  0  0  0  0  0  0  # atno 27239 bound_to 18268
  188.3516   -2.3979   48.8339 LP  0  0  0  0  0  0  0  0  0  0  0  0  # atno 27240 bound_to 18268
  186.4796    0.4088   49.7798 LP  0  0  0  0  0  0  0  0  0  0  0  0  # atno 27241 bound_to 18307
  185.1475   -2.2921   51.4160 LP  0  0  0  0  0  0  0  0  0  0  0  0  # atno 27242 bound_to 18310
  184.4874   -0.7671   51.9046 LP  0  0  0  0  0  0  0  0  0  0  0  0  # atno 27243 bound_to 18310
  187.3038   -1.1484   53.2116 LP  0  0  0  0  0  0  0  0  0  0  0  0  # atno 27244 bound_to 18345
  188.0389    1.3284   54.0471 LP  0  0  0  0  0  0  0  0  0  0  0  0  # atno 27245 bound_to 18348
  187.5529    2.8153   54.7907 LP  0  0  0  0  0  0  0  0  0  0  0  0  # atno 27246 bound_to 18348
  186.0072    1.5680   54.9079 LP  0  0  0  0  0  0  0  0  0  0  0  0  # atno 27247 bound_to 18439
  186.3268    4.6641   56.9198 LP  0  0  0  0  0  0  0  0  0  0  0  0  # atno 27248 bound_to 18519
  183.6502    5.7387   44.8427 LP  0  0  0  0  0  0  0  0  0  0  0  0  # atno 27253 bound_to 17171
  182.7416    4.3050   44.4979 LP  0  0  0  0  0  0  0  0  0  0  0  0  # atno 27254 bound_to 17171
  187.5893    3.6303   42.1407 LP  0  0  0  0  0  0  0  0  0  0  0  0  # atno 27255 bound_to 17213
  186.1896    2.8333   42.7777 LP  0  0  0  0  0  0  0  0  0  0  0  0  # atno 27256 bound_to 17213
  179.6667    2.7459   49.0027 LP  0  0  0  0  0  0  0  0  0  0  0  0  # atno 27257 bound_to 17042
  180.9217    3.9238   49.1963 LP  0  0  0  0  0  0  0  0  0  0  0  0  # atno 27258 bound_to 17042
  185.0842    5.3737   42.8332 LP  0  0  0  0  0  0  0  0  0  0  0  0  # atno 27259 bound_to 17273
  182.1475    8.2285   52.3775 LP  0  0  0  0  0  0  0  0  0  0  0  0  # atno 27260 bound_to 18450
  181.0562    7.0772   51.9898 LP  0  0  0  0  0  0  0  0  0  0  0  0  # atno 27261 bound_to 18450
  186.1733    1.0664   42.7128 LP  0  0  0  0  0  0  0  0  0  0  0  0  # atno 27262 bound_to 18190
  184.9868   -2.4722   48.0057 LP  0  0  0  0  0  0  0  0  0  0  0  0  # atno 27263 bound_to 18270
  185.1307   -2.2601   46.3930 LP  0  0  0  0  0  0  0  0  0  0  0  0  # atno 27264 bound_to 18270
  188.7417   -3.9474   51.2370 LP  0  0  0  0  0  0  0  0  0  0  0  0  # atno 27265 bound_to 10086
  190.2144   -3.4935   50.6968 LP  0  0  0  0  0  0  0  0  0  0  0  0  # atno 27266 bound_to 10086
  187.4727   -2.4420   44.1866 LP  0  0  0  0  0  0  0  0  0  0  0  0  # atno 27267 bound_to 10127
  187.4830   -2.8380   45.8727 LP  0  0  0  0  0  0  0  0  0  0  0  0  # atno 27268 bound_to 10127
  185.1730    8.0244   41.8305 LP  0  0  0  0  0  0  0  0  0  0  0  0  # atno 27269 bound_to 11404
  184.7959    7.9602   43.5198 LP  0  0  0  0  0  0  0  0  0  0  0  0  # atno 27270 bound_to 11404
  180.5709    8.4369   48.8971 LP  0  0  0  0  0  0  0  0  0  0  0  0  # atno 27271 bound_to 16942
  180.9882    8.6548   50.4608 LP  0  0  0  0  0  0  0  0  0  0  0  0  # atno 27272 bound_to 16942
  181.5299    8.9101   42.5342 LP  0  0  0  0  0  0  0  0  0  0  0  0  # atno 27273 bound_to 11448
  181.8204    5.2563   42.7780 LP  0  0  0  0  0  0  0  0  0  0  0  0  # atno 27274 bound_to 11515
  178.4704    7.3769   48.2149 LP  0  0  0  0  0  0  0  0  0  0  0  0  # atno 27275 bound_to 11594
  179.6742    6.8944   47.0668 LP  0  0  0  0  0  0  0  0  0  0  0  0  # atno 27276 bound_to 11594
  178.7017    5.0284   44.0466 LP  0  0  0  0  0  0  0  0  0  0  0  0  # atno 27277 bound_to 11591
  182.6073   12.6199   43.3399 LP  0  0  0  0  0  0  0  0  0  0  0  0  # atno 27282 bound_to 11406
  182.3808   11.0348   43.6604 LP  0  0  0  0  0  0  0  0  0  0  0  0  # atno 27283 bound_to 11406
  184.8531   11.9285   54.7730 LP  0  0  0  0  0  0  0  0  0  0  0  0  # atno 27284 bound_to 18675
  183.7675   12.4782   56.0055 LP  0  0  0  0  0  0  0  0  0  0  0  0  # atno 27285 bound_to 18675

> <Gold.Score>
     Fitness  S(hb_ext) S(vdw_ext)  S(hb_int)    S(int)      intcor
     31.69       3.05      22.54       0.00      -2.35      -0.76

> <Gold.Goldscore.Fitness>
31.6941

> <Gold.Goldscore.Internal.Vdw>
-2.7181

> <Gold.Goldscore.Internal.Torsion>
-0.3926

> <Gold.Goldscore.External.Vdw>
22.5389

> <Gold.Goldscore.Internal.HBond>
0.0000

> <Gold.Goldscore.External.HBond>
3.0490

> <Gold.Goldscore.Internal.Correction>
-0.7650

> <Gold.Goldscore.Hbonds>
donor molecule, donor type, donor heavy atom, donor atom, acceptor molecule, acceptor atom, score
      L1  H    10    23       P1 26833  0.51

> <Gold.Goldscore.Internal.Vdw.Weighted>
-2.7181

> <Gold.Goldscore.Internal.Torsion.Weighted>
-0.3926

> <Gold.Goldscore.External.Vdw.Weighted>
30.9910

> <Gold.Goldscore.Internal.HBond.Weighted>
0.0000

> <Gold.Goldscore.External.HBond.Weighted>
3.0490

> <Gold.Goldscore.Internal.Correction.Weighted>
-0.7650

> <Gold.Rescore>
     Score     S(PLP)   S(hbond)     S(cho)   S(metal)  DE(clash)   DE(tors)     intcor
     28.23     -27.73       0.67       0.00       0.00       1.25       0.13       ----

> <Gold.PLP.Fitness>
28.2287

> <Gold.PLP.PLP>
-27.7265

> <Gold.PLP.part.hbond>
-2.5425

> <Gold.PLP.part.metal>
0.0000

> <Gold.PLP.part.buried>
-0.1909

> <Gold.PLP.part.nonpolar>
-27.3047

> <Gold.PLP.part.repulsive>
2.2346

> <Gold.PLP.ligand.clash>
1.2498

> <Gold.PLP.ligand.torsion>
0.1320

> <Gold.PLP.Chemscore.Hbond>
0.6720

> <Gold.PLP.Chemscore.CHOScore>
0.0000

> <Gold.PLP.Chemscore.Metal>
0.0000

> <Gold.PLP.Chemscore.Internal.Correction>
   9.000000E+99

