#       Name:                CT1002167954
#       Creating user name   hitesit
#       Creation time:       Sun Apr 16 20:21:57 2023


#       File generated by GOLD software.
#

@<TRIPOS>MOLECULE
CT1002167954|ligand_prepared|mol2|1|dock6
    29    30     1
SMALL
NO_CHARGES


@<TRIPOS>ATOM
      1 C1         186.6233  12.6944  49.4064 C.3            1 RES1               0.0000
      2 C2         186.7982  11.1626  49.3638 C.ar           1 RES1               0.0000
      3 C3         185.6091  12.9793  50.5103 C.2            1 RES1               0.0000
      4 C4         188.0085  13.2748  49.6693 C.2            1 RES1               0.0000
      5 C5         186.0945  13.2999  48.0853 C.3            1 RES1               0.0000
      6 C6         186.4471  10.3786  50.4587 C.ar           1 RES1               0.0000
      7 C7         187.3059  10.5201  48.2378 C.ar           1 RES1               0.0000
      8 N8         186.0774  13.5055  51.6781 N.am           1 RES1               0.0000
      9 O9         184.4223  12.7097  50.3727 O.2            1 RES1               0.0000
     10 N10        188.2164  13.9280  50.8558 N.am           1 RES1               0.0000
     11 O11        188.9265  13.1578  48.8669 O.2            1 RES1               0.0000
     12 C12        185.6425  14.7462  48.2114 C.3            1 RES1               0.0000
     13 C13        186.5953   9.0019  50.4280 C.ar           1 RES1               0.0000
     14 C14        187.4536   9.1432  48.2093 C.ar           1 RES1               0.0000
     15 C15        187.3224  14.0430  51.8853 C.2            1 RES1               0.0000
     16 C16        187.0982   8.3832  49.3033 C.ar           1 RES1               0.0000
     17 O17        187.6012  14.5984  52.9439 O.2            1 RES1               0.0000
     18 H18        186.8866  13.2421  47.3285 H              1 RES1               0.0000
     19 H19        185.2496  12.6954  47.7331 H              1 RES1               0.0000
     20 H20        186.0520  10.8480  51.3535 H              1 RES1               0.0000
     21 H21        187.5932  11.0979  47.3658 H              1 RES1               0.0000
     22 H22        185.4434  13.4986  52.4707 H              1 RES1               0.0000
     23 H23        189.1214  14.3697  50.9834 H              1 RES1               0.0000
     24 H24        185.2809  15.1220  47.2565 H              1 RES1               0.0000
     25 H25        184.8377  14.8369  48.9379 H              1 RES1               0.0000
     26 H26        186.4650  15.3805  48.5357 H              1 RES1               0.0000
     27 H27        186.3154   8.4084  51.2921 H              1 RES1               0.0000
     28 H28        187.8504   8.6606  47.3222 H              1 RES1               0.0000
     29 H29        187.2139   7.3047  49.2793 H              1 RES1               0.0000
@<TRIPOS>BOND
    1    1    2 1     
    2    1    3 1     
    3    1    4 1     
    4    1    5 1     
    5    2    6 ar    
    6    2    7 ar    
    7    3    8 1     
    8    3    9 2     
    9    4   10 1     
   10    4   11 2     
   11    5   12 1     
   12    5   18 1     
   13    5   19 1     
   14    6   13 ar    
   15    6   20 1     
   16    7   14 ar    
   17    7   21 1     
   18    8   15 1     
   19    8   22 1     
   20   10   15 1     
   21   10   23 1     
   22   12   24 1     
   23   12   25 1     
   24   12   26 1     
   25   13   16 ar    
   26   13   27 1     
   27   14   16 ar    
   28   14   28 1     
   29   15   17 2     
   30   16   29 1     
@<TRIPOS>SUBSTRUCTURE
      1 RES1           1
@<TRIPOS>SET
DONOR_HYDROGENS      STATIC     ATOMS    <user>   **** ""
2 22 23
ATOM$RED        STATIC     ATOMS    COLORGROUP SYSTEM
2 22 23
@<TRIPOS>COMMENT
> <Gold.Version>
2022.3.0

> <Gold.Id.Protein>
unknown|4v3u_clean|pdb

> <Gold.Protein.RotatedTorsions>
[  552  517  516  515 ] final  -62.64 input   59.99 | X-H torsion
[ 2539 2515 2516 2517 ] final  -87.78 input  113.65 | X-H torsion
[ 2615 2585 2586 2587 ] final -161.95 input   46.31 | X-H torsion
[ 26073 26031 26030 26028 ] final -173.49 input   59.98 | X-H torsion
[ 27148 27102 27101 27097 ] final  -46.61 input   60.00 | X-H torsion
[ 7433 7405 7406 7407 ] final  -39.04 input   81.33 | X-H torsion
[ 7467 7446 7447 7448 ] final  131.17 input   92.53 | X-H torsion
[ 7519 7507 7508 7509 ] final  -50.82 input   89.47 | X-H torsion
[ 17188 17168 17169 17170 ] final  -74.31 input   55.70 | X-H torsion
[ 17240 17210 17211 17212 ] final   59.53 input  101.26 | X-H torsion
[ 18288 18265 18266 18267 ] final -136.98 input   32.88 | X-H torsion
[ 18322 18307 18308 18309 ] final -157.31 input   53.35 | X-H torsion
[ 18397 18345 18346 18347 ] final -139.12 input   36.30 | X-H torsion
[ 18484 18439 18440 18441 ] final   46.36 input   98.15 | X-H torsion
[ 18560 18519 18520 18521 ] final   58.18 input   94.34 | X-H torsion
[ 17296 17273 17274 17275 ] final  -20.76 input   50.38 | X-H torsion
[ 18492 18450 18449 18447 ] final   60.63 input   59.99 | X-H torsion
[ 18232 18190 18191 18192 ] final   -3.48 input   49.82 | X-H torsion
[ 18292 18270 18269 18266 ] final  169.86 input   60.01 | X-H torsion
[ 10113 10086 10085 10082 ] final -170.32 input   60.00 | X-H torsion
[ 16984 16942 16941 16939 ] final  157.51 input   60.00 | X-H torsion
[ 11483 11448 11449 11450 ] final  107.97 input   47.08 | X-H torsion
[ 11550 11515 11516 11517 ] final  -46.89 input  121.60 | X-H torsion
[ 11626 11591 11592 11593 ] final   24.97 input   57.19 | X-H torsion
[ 11428 11406 11405 11402 ] final  -93.26 input   60.00 | X-H torsion
[ 27149 27104 27103 27101 ] final   81.19 input   60.02 | X-H torsion
[ 10149 10124 10125 10126 ] final  133.61 input   16.22 | X-H torsion
[ 17349 17319 17320 17321 ] final  -56.99 input   65.41 | X-H torsion
[ 27203 2518 2517 2516 ] final  134.80 input    0.00 | X-H torsion
[ 27224 7317 7316 7315 ] final  -84.76 input    0.00 | X-H torsion
[ 27227 7408 7407 7406 ] final  -98.95 input   -0.00 | X-H torsion
[ 27232 17117 17116 17115 ] final  -87.54 input    0.00 | X-H torsion
[ 27236 18193 18192 18191 ] final  -89.28 input    0.00 | X-H torsion
[ 27239 18268 18267 18266 ] final  -42.60 input    0.00 | X-H torsion
[ 27242 18310 18309 18308 ] final  106.70 input   -0.00 | X-H torsion
[ 27245 18348 18347 18346 ] final -120.06 input    0.00 | X-H torsion
[ 27253 17171 17170 17169 ] final -165.08 input   -0.00 | X-H torsion
[ 27255 17213 17212 17211 ] final  144.46 input    0.00 | X-H torsion
[ 27257 17042 17041 17040 ] final  129.00 input    0.00 | X-H torsion
[ 27267 10127 10126 10125 ] final   86.61 input   -0.00 | X-H torsion
[ 27269 11404 11403 11402 ] final  152.51 input    0.00 | X-H torsion
[ 27275 11594 11593 11592 ] final   -5.65 input   -0.00 | X-H torsion
[ 27284 18675 18674 18673 ] final   68.30 input    0.00 | X-H torsion

> <Gold.Protein.ActiveResidues>
 LYS309  TRP311  MET341  HIS342  TRP414  ALA417  ARG419  CYS420  VAL421  GLY422 
 ARG423  SER462  ALA463  SER482  GLN483  LEU484  ILE485  ARG486  ALA502  TRP566 
 TYR567  LEU569  PRO570  ALA571  VAL572  SER573  ASN574  MET575  PHE589  SER590 
 GLY591  TRP592  TYR593  MET594  GLU597  ILE598  ARG601  ASP602  ASP605  ARG608 
 TRP683  HIS697  GLU699  TYR711  HEM750  H4B760 

> <Gold.Protein.RotatedAtoms>
  189.8205   24.0926   41.8482 H   0  0  0  0  0  0  0  0  0  0  0  0  # atno 552  bound_to 517 
  189.3732   23.3220   43.2456 H   0  0  0  0  0  0  0  0  0  0  0  0  # atno 553  bound_to 517 
  188.3770   24.4620   42.5721 H   0  0  0  0  0  0  0  0  0  0  0  0  # atno 554  bound_to 517 
  198.2001   19.3765   46.5954 H   0  0  0  0  0  0  0  0  0  0  0  0  # atno 2539 bound_to 2515
  196.5190   17.8727   44.1492 H   0  0  0  0  0  0  0  0  0  0  0  0  # atno 2615 bound_to 2585
  197.4074    6.8355   51.2811 H   0  0  0  0  0  0  0  0  0  0  0  0  # atno 7433 bound_to 7405
  195.1665    5.7836   53.6778 H   0  0  0  0  0  0  0  0  0  0  0  0  # atno 7467 bound_to 7446
  195.8429    2.6740   54.6935 H   0  0  0  0  0  0  0  0  0  0  0  0  # atno 7519 bound_to 7507
  190.5977   -4.1158   51.0450 H   0  0  0  0  0  0  0  0  0  0  0  0  # atno 10113 bound_to 10086
  186.9673   -5.1041   47.7200 H   0  0  0  0  0  0  0  0  0  0  0  0  # atno 10149 bound_to 10124
  181.8481   12.2738   42.4091 H   0  0  0  0  0  0  0  0  0  0  0  0  # atno 11428 bound_to 11406
  182.1579    9.3768   43.3799 H   0  0  0  0  0  0  0  0  0  0  0  0  # atno 11483 bound_to 11448
  180.9131    6.1737   43.4486 H   0  0  0  0  0  0  0  0  0  0  0  0  # atno 11550 bound_to 11515
  179.6957    5.4608   45.2198 H   0  0  0  0  0  0  0  0  0  0  0  0  # atno 11626 bound_to 11591
  181.1362    8.3364   50.0503 H   0  0  0  0  0  0  0  0  0  0  0  0  # atno 16984 bound_to 16942
  183.9886    3.8784   48.3309 H   0  0  0  0  0  0  0  0  0  0  0  0  # atno 17188 bound_to 17168
  186.1262    3.3062   45.3172 H   0  0  0  0  0  0  0  0  0  0  0  0  # atno 17240 bound_to 17210
  186.4513    6.2370   42.1855 H   0  0  0  0  0  0  0  0  0  0  0  0  # atno 17296 bound_to 17273
  186.8278    6.1081   39.8385 H   0  0  0  0  0  0  0  0  0  0  0  0  # atno 17349 bound_to 17319
  186.3825    1.4475   42.9178 H   0  0  0  0  0  0  0  0  0  0  0  0  # atno 18232 bound_to 18190
  187.0849    0.1797   45.4482 H   0  0  0  0  0  0  0  0  0  0  0  0  # atno 18288 bound_to 18265
  183.6874   -2.1988   47.3787 H   0  0  0  0  0  0  0  0  0  0  0  0  # atno 18292 bound_to 18270
  187.4352   -0.6807   48.8191 H   0  0  0  0  0  0  0  0  0  0  0  0  # atno 18322 bound_to 18307
  186.4510   -0.7201   52.2022 H   0  0  0  0  0  0  0  0  0  0  0  0  # atno 18397 bound_to 18345
  185.0495    1.2634   56.0966 H   0  0  0  0  0  0  0  0  0  0  0  0  # atno 18484 bound_to 18439
  182.6001    7.1931   51.3095 H   0  0  0  0  0  0  0  0  0  0  0  0  # atno 18492 bound_to 18450
  187.1025    5.0498   56.4397 H   0  0  0  0  0  0  0  0  0  0  0  0  # atno 18560 bound_to 18519
  194.9141   13.0556   45.4460 H   0  0  0  0  0  0  0  0  0  0  0  0  # atno 26073 bound_to 26031
  192.3086   19.3165   51.9814 H   0  0  0  0  0  0  0  0  0  0  0  0  # atno 27148 bound_to 27102
  196.5065   19.6970   49.7675 H   0  0  0  0  0  0  0  0  0  0  0  0  # atno 27149 bound_to 27104
  196.9744   20.3635   45.8395 LP  0  0  0  0  0  0  0  0  0  0  0  0  # atno 27202 bound_to 2515
  196.4628   15.9020   43.6877 LP  0  0  0  0  0  0  0  0  0  0  0  0  # atno 27203 bound_to 2518
  197.3536   15.8346   45.1715 LP  0  0  0  0  0  0  0  0  0  0  0  0  # atno 27204 bound_to 2518
  197.4646   19.2911   43.7710 LP  0  0  0  0  0  0  0  0  0  0  0  0  # atno 27205 bound_to 2585
  194.0823   11.6575   45.4734 LP  0  0  0  0  0  0  0  0  0  0  0  0  # atno 27209 bound_to 26031
  193.2875   13.0840   45.4709 LP  0  0  0  0  0  0  0  0  0  0  0  0  # atno 27210 bound_to 26031
  192.8485   20.7801   51.5196 LP  0  0  0  0  0  0  0  0  0  0  0  0  # atno 27213 bound_to 27102
  193.3851   20.1095   52.9085 LP  0  0  0  0  0  0  0  0  0  0  0  0  # atno 27214 bound_to 27102
  195.9984    8.2820   52.4915 LP  0  0  0  0  0  0  0  0  0  0  0  0  # atno 27224 bound_to 7317
  194.9149    8.1590   51.1458 LP  0  0  0  0  0  0  0  0  0  0  0  0  # atno 27225 bound_to 7317
  196.9488    6.1741   49.7333 LP  0  0  0  0  0  0  0  0  0  0  0  0  # atno 27226 bound_to 7405
  197.5755    3.1627   52.7224 LP  0  0  0  0  0  0  0  0  0  0  0  0  # atno 27227 bound_to 7408
  198.3856    4.6931   52.7631 LP  0  0  0  0  0  0  0  0  0  0  0  0  # atno 27228 bound_to 7408
  195.8827    4.3543   52.9654 LP  0  0  0  0  0  0  0  0  0  0  0  0  # atno 27229 bound_to 7446
  194.2505    3.1154   54.1289 LP  0  0  0  0  0  0  0  0  0  0  0  0  # atno 27230 bound_to 7507
  185.8128    2.8454   48.9739 LP  0  0  0  0  0  0  0  0  0  0  0  0  # atno 27232 bound_to 17117
  184.8452    1.4127   48.8674 LP  0  0  0  0  0  0  0  0  0  0  0  0  # atno 27233 bound_to 17117
  182.4049    3.4150   47.7645 LP  0  0  0  0  0  0  0  0  0  0  0  0  # atno 27234 bound_to 17168
  184.9298    4.4601   45.8711 LP  0  0  0  0  0  0  0  0  0  0  0  0  # atno 27235 bound_to 17210
  187.0405    2.2201   45.6656 LP  0  0  0  0  0  0  0  0  0  0  0  0  # atno 27236 bound_to 18193
  185.5222    1.6436   45.0636 LP  0  0  0  0  0  0  0  0  0  0  0  0  # atno 27237 bound_to 18193
  187.1389   -1.5144   45.8681 LP  0  0  0  0  0  0  0  0  0  0  0  0  # atno 27238 bound_to 18265
  187.0293   -2.8201   47.8030 LP  0  0  0  0  0  0  0  0  0  0  0  0  # atno 27239 bound_to 18268
  188.4035   -2.3606   48.7520 LP  0  0  0  0  0  0  0  0  0  0  0  0  # atno 27240 bound_to 18268
  186.3352    0.2903   49.7711 LP  0  0  0  0  0  0  0  0  0  0  0  0  # atno 27241 bound_to 18307
  184.9600   -2.1815   52.2123 LP  0  0  0  0  0  0  0  0  0  0  0  0  # atno 27242 bound_to 18310
  184.6749   -0.8778   51.1083 LP  0  0  0  0  0  0  0  0  0  0  0  0  # atno 27243 bound_to 18310
  187.7423   -0.1984   53.2594 LP  0  0  0  0  0  0  0  0  0  0  0  0  # atno 27244 bound_to 18345
  187.9482    2.0512   55.2712 LP  0  0  0  0  0  0  0  0  0  0  0  0  # atno 27245 bound_to 18348
  187.6436    2.0926   53.5666 LP  0  0  0  0  0  0  0  0  0  0  0  0  # atno 27246 bound_to 18348
  185.4001    1.8177   54.4752 LP  0  0  0  0  0  0  0  0  0  0  0  0  # atno 27247 bound_to 18439
  187.0415    3.4600   57.1656 LP  0  0  0  0  0  0  0  0  0  0  0  0  # atno 27248 bound_to 18519
  183.7969    5.3276   44.1269 LP  0  0  0  0  0  0  0  0  0  0  0  0  # atno 27253 bound_to 17171
  182.5949    4.7160   45.2137 LP  0  0  0  0  0  0  0  0  0  0  0  0  # atno 27254 bound_to 17171
  186.2543    3.1353   41.8784 LP  0  0  0  0  0  0  0  0  0  0  0  0  # atno 27255 bound_to 17213
  187.5246    3.3282   43.0400 LP  0  0  0  0  0  0  0  0  0  0  0  0  # atno 27256 bound_to 17213
  180.5262    4.0264   49.5663 LP  0  0  0  0  0  0  0  0  0  0  0  0  # atno 27257 bound_to 17042
  180.0622    2.6433   48.6327 LP  0  0  0  0  0  0  0  0  0  0  0  0  # atno 27258 bound_to 17042
  185.1468    5.2849   42.8472 LP  0  0  0  0  0  0  0  0  0  0  0  0  # atno 27259 bound_to 17273
  182.0228    8.2191   52.4328 LP  0  0  0  0  0  0  0  0  0  0  0  0  # atno 27260 bound_to 18450
  181.0962    6.9865   51.8956 LP  0  0  0  0  0  0  0  0  0  0  0  0  # atno 27261 bound_to 18450
  187.5193    0.6978   41.8198 LP  0  0  0  0  0  0  0  0  0  0  0  0  # atno 27262 bound_to 18190
  185.2193   -2.4817   47.8475 LP  0  0  0  0  0  0  0  0  0  0  0  0  # atno 27263 bound_to 18270
  184.8812   -2.2083   46.2735 LP  0  0  0  0  0  0  0  0  0  0  0  0  # atno 27264 bound_to 18270
  189.2540   -4.7641   51.6955 LP  0  0  0  0  0  0  0  0  0  0  0  0  # atno 27265 bound_to 10086
  189.1566   -3.3984   50.8055 LP  0  0  0  0  0  0  0  0  0  0  0  0  # atno 27266 bound_to 10086
  188.2918   -2.5920   45.3214 LP  0  0  0  0  0  0  0  0  0  0  0  0  # atno 27267 bound_to 10127
  186.6639   -2.6880   44.7378 LP  0  0  0  0  0  0  0  0  0  0  0  0  # atno 27268 bound_to 10127
  184.6978    7.7682   43.4610 LP  0  0  0  0  0  0  0  0  0  0  0  0  # atno 27269 bound_to 11404
  185.2711    8.2164   41.8893 LP  0  0  0  0  0  0  0  0  0  0  0  0  # atno 27270 bound_to 11404
  180.0478    9.5238   50.2802 LP  0  0  0  0  0  0  0  0  0  0  0  0  # atno 27271 bound_to 16942
  180.1766    8.8013   48.8214 LP  0  0  0  0  0  0  0  0  0  0  0  0  # atno 27272 bound_to 16942
  182.6045    8.4549   41.9648 LP  0  0  0  0  0  0  0  0  0  0  0  0  # atno 27273 bound_to 11448
  181.9153    4.7476   43.5849 LP  0  0  0  0  0  0  0  0  0  0  0  0  # atno 27274 bound_to 11515
  179.2580    6.2898   47.6514 LP  0  0  0  0  0  0  0  0  0  0  0  0  # atno 27275 bound_to 11594
  178.8866    7.9815   47.6304 LP  0  0  0  0  0  0  0  0  0  0  0  0  # atno 27276 bound_to 11594
  178.6622    4.3815   44.3135 LP  0  0  0  0  0  0  0  0  0  0  0  0  # atno 27277 bound_to 11591
  182.7793   12.2213   43.7424 LP  0  0  0  0  0  0  0  0  0  0  0  0  # atno 27282 bound_to 11406
  182.0206   10.8733   43.2192 LP  0  0  0  0  0  0  0  0  0  0  0  0  # atno 27283 bound_to 11406
  184.4272   11.7291   54.6741 LP  0  0  0  0  0  0  0  0  0  0  0  0  # atno 27284 bound_to 18675
  184.1934   12.6776   56.1044 LP  0  0  0  0  0  0  0  0  0  0  0  0  # atno 27285 bound_to 18675

> <Gold.Score>
     Fitness  S(hb_ext) S(vdw_ext)  S(hb_int)    S(int)      intcor
     29.54       6.24      17.86       0.00      -1.24      -0.76

> <Gold.Goldscore.Fitness>
29.5438

> <Gold.Goldscore.Internal.Vdw>
-1.4008

> <Gold.Goldscore.Internal.Torsion>
-0.6085

> <Gold.Goldscore.External.Vdw>
17.8567

> <Gold.Goldscore.Internal.HBond>
0.0000

> <Gold.Goldscore.External.HBond>
6.2352

> <Gold.Goldscore.Internal.Correction>
-0.7650

> <Gold.Goldscore.Hbonds>
donor molecule, donor type, donor heavy atom, donor atom, acceptor molecule, acceptor atom, score
      P1  H 19331 19364       L1     9  0.04
      L1  H    10    23       P1 27095  1.00

> <Gold.Goldscore.Internal.Vdw.Weighted>
-1.4008

> <Gold.Goldscore.Internal.Torsion.Weighted>
-0.6085

> <Gold.Goldscore.External.Vdw.Weighted>
24.5530

> <Gold.Goldscore.Internal.HBond.Weighted>
0.0000

> <Gold.Goldscore.External.HBond.Weighted>
6.2352

> <Gold.Goldscore.Internal.Correction.Weighted>
-0.7650

> <Gold.Rescore>
     Score     S(PLP)   S(hbond)     S(cho)   S(metal)  DE(clash)   DE(tors)     intcor
     19.04     -17.68       1.22       0.00       0.00       1.98       0.17       ----

> <Gold.PLP.Fitness>
19.0418

> <Gold.PLP.PLP>
-17.6837

> <Gold.PLP.part.hbond>
-3.5915

> <Gold.PLP.part.metal>
0.0000

> <Gold.PLP.part.buried>
-2.5137

> <Gold.PLP.part.nonpolar>
-12.9074

> <Gold.PLP.part.repulsive>
0.6056

> <Gold.PLP.ligand.clash>
1.9818

> <Gold.PLP.ligand.torsion>
0.1653

> <Gold.PLP.Chemscore.Hbond>
1.2235

> <Gold.PLP.Chemscore.CHOScore>
0.0000

> <Gold.PLP.Chemscore.Metal>
0.0000

> <Gold.Chemscore.Hbonds>
donor molecule, donor type, donor heavy atom, donor atom, acceptor molecule, acceptor atom, score
      L1  H    10    23       P1 27095  0.59
      P1  H 19331 19364       L1     9  0.98

> <Gold.PLP.Chemscore.Internal.Correction>
   9.000000E+99

