#       Name:                CT1002167954
#       Creating user name   hitesit
#       Creation time:       Sun Apr 16 20:21:55 2023


#       File generated by GOLD software.
#

@<TRIPOS>MOLECULE
CT1002167954|ligand_prepared|mol2|1|dock3
    29    30     1
SMALL
NO_CHARGES


@<TRIPOS>ATOM
      1 C1         186.4435  11.9567  50.4746 C.3            1 RES1               0.0000
      2 C2         187.1771  11.1910  49.3546 C.ar           1 RES1               0.0000
      3 C3         185.3255  12.7422  49.7953 C.2            1 RES1               0.0000
      4 C4         185.9528  10.9029  51.4611 C.2            1 RES1               0.0000
      5 C5         187.3437  12.9503  51.2453 C.3            1 RES1               0.0000
      6 C6         188.1489  11.8220  48.5839 C.ar           1 RES1               0.0000
      7 C7         186.8951   9.8549  49.0825 C.ar           1 RES1               0.0000
      8 N8         184.0484  12.2921  49.9575 N.am           1 RES1               0.0000
      9 O9         185.5646  13.7187  49.0956 O.2            1 RES1               0.0000
     10 N10        184.6001  10.7320  51.5981 N.am           1 RES1               0.0000
     11 O11        186.7255  10.2075  52.1089 O.2            1 RES1               0.0000
     12 C12        186.6946  13.5231  52.4954 C.3            1 RES1               0.0000
     13 C13        188.8169  11.1413  47.5795 C.ar           1 RES1               0.0000
     14 C14        187.5642   9.1761  48.0775 C.ar           1 RES1               0.0000
     15 C15        183.6261  11.3575  50.8685 C.2            1 RES1               0.0000
     16 C16        188.5254   9.8179  47.3260 C.ar           1 RES1               0.0000
     17 O17        182.4321  11.1109  51.0115 O.2            1 RES1               0.0000
     18 H18        188.2705  12.4380  51.5317 H              1 RES1               0.0000
     19 H19        187.6109  13.7772  50.5757 H              1 RES1               0.0000
     20 H20        188.3901  12.8638  48.7672 H              1 RES1               0.0000
     21 H21        186.1420   9.3301  49.6603 H              1 RES1               0.0000
     22 H22        183.3421  12.6868  49.3447 H              1 RES1               0.0000
     23 H23        184.2906  10.0781  52.3100 H              1 RES1               0.0000
     24 H24        187.3684  14.2138  52.9980 H              1 RES1               0.0000
     25 H25        185.7829  14.0613  52.2446 H              1 RES1               0.0000
     26 H26        186.4385  12.7300  53.1949 H              1 RES1               0.0000
     27 H27        189.5716  11.6514  46.9900 H              1 RES1               0.0000
     28 H28        187.3310   8.1348  47.8810 H              1 RES1               0.0000
     29 H29        189.0491   9.2848  46.5394 H              1 RES1               0.0000
@<TRIPOS>BOND
    1    1    2 1     
    2    1    3 1     
    3    1    4 1     
    4    1    5 1     
    5    2    6 ar    
    6    2    7 ar    
    7    3    8 1     
    8    3    9 2     
    9    4   10 1     
   10    4   11 2     
   11    5   12 1     
   12    5   18 1     
   13    5   19 1     
   14    6   13 ar    
   15    6   20 1     
   16    7   14 ar    
   17    7   21 1     
   18    8   15 1     
   19    8   22 1     
   20   10   15 1     
   21   10   23 1     
   22   12   24 1     
   23   12   25 1     
   24   12   26 1     
   25   13   16 ar    
   26   13   27 1     
   27   14   16 ar    
   28   14   28 1     
   29   15   17 2     
   30   16   29 1     
@<TRIPOS>SUBSTRUCTURE
      1 RES1           1
@<TRIPOS>SET
DONOR_HYDROGENS      STATIC     ATOMS    <user>   **** ""
2 22 23
ATOM$RED        STATIC     ATOMS    COLORGROUP SYSTEM
2 22 23
@<TRIPOS>COMMENT
> <Gold.Version>
2022.3.0

> <Gold.Id.Protein>
unknown|4v3u_clean|pdb

> <Gold.Protein.RotatedTorsions>
[  552  517  516  515 ] final -131.44 input   59.99 | X-H torsion
[ 2539 2515 2516 2517 ] final   90.77 input  113.65 | X-H torsion
[ 2615 2585 2586 2587 ] final   23.47 input   46.31 | X-H torsion
[ 26073 26031 26030 26028 ] final   58.10 input   59.98 | X-H torsion
[ 27148 27102 27101 27097 ] final  -44.65 input   60.00 | X-H torsion
[ 7433 7405 7406 7407 ] final   98.91 input   81.33 | X-H torsion
[ 7467 7446 7447 7448 ] final  147.83 input   92.53 | X-H torsion
[ 7519 7507 7508 7509 ] final  -93.99 input   89.47 | X-H torsion
[ 17188 17168 17169 17170 ] final    4.43 input   55.70 | X-H torsion
[ 17240 17210 17211 17212 ] final  -68.29 input  101.26 | X-H torsion
[ 18288 18265 18266 18267 ] final   67.15 input   32.88 | X-H torsion
[ 18322 18307 18308 18309 ] final  143.72 input   53.35 | X-H torsion
[ 18397 18345 18346 18347 ] final -116.61 input   36.30 | X-H torsion
[ 18484 18439 18440 18441 ] final -159.20 input   98.15 | X-H torsion
[ 18560 18519 18520 18521 ] final   65.09 input   94.34 | X-H torsion
[ 17296 17273 17274 17275 ] final   87.83 input   50.38 | X-H torsion
[ 18492 18450 18449 18447 ] final -102.64 input   59.99 | X-H torsion
[ 18232 18190 18191 18192 ] final  -95.60 input   49.82 | X-H torsion
[ 18292 18270 18269 18266 ] final   61.60 input   60.01 | X-H torsion
[ 10113 10086 10085 10082 ] final  -30.06 input   60.00 | X-H torsion
[ 16984 16942 16941 16939 ] final -174.30 input   60.00 | X-H torsion
[ 11483 11448 11449 11450 ] final  -22.17 input   47.08 | X-H torsion
[ 11550 11515 11516 11517 ] final  142.57 input  121.60 | X-H torsion
[ 11626 11591 11592 11593 ] final   45.37 input   57.19 | X-H torsion
[ 11428 11406 11405 11402 ] final  -15.06 input   60.00 | X-H torsion
[ 27149 27104 27103 27101 ] final -104.71 input   60.02 | X-H torsion
[ 10149 10124 10125 10126 ] final   27.12 input   16.22 | X-H torsion
[ 17349 17319 17320 17321 ] final -165.69 input   65.41 | X-H torsion
[ 27203 2518 2517 2516 ] final   13.44 input    0.00 | X-H torsion
[ 27224 7317 7316 7315 ] final  147.83 input    0.00 | X-H torsion
[ 27227 7408 7407 7406 ] final  122.91 input   -0.00 | X-H torsion
[ 27232 17117 17116 17115 ] final  173.40 input    0.00 | X-H torsion
[ 27236 18193 18192 18191 ] final -145.85 input    0.00 | X-H torsion
[ 27239 18268 18267 18266 ] final   22.82 input    0.00 | X-H torsion
[ 27242 18310 18309 18308 ] final   61.16 input   -0.00 | X-H torsion
[ 27245 18348 18347 18346 ] final  -45.86 input    0.00 | X-H torsion
[ 27253 17171 17170 17169 ] final   95.63 input   -0.00 | X-H torsion
[ 27255 17213 17212 17211 ] final -178.55 input    0.00 | X-H torsion
[ 27257 17042 17041 17040 ] final  -95.70 input    0.00 | X-H torsion
[ 27267 10127 10126 10125 ] final  -60.57 input   -0.00 | X-H torsion
[ 27269 11404 11403 11402 ] final -159.09 input    0.00 | X-H torsion
[ 27275 11594 11593 11592 ] final  150.22 input   -0.00 | X-H torsion
[ 27284 18675 18674 18673 ] final  -84.64 input    0.00 | X-H torsion

> <Gold.Protein.ActiveResidues>
 LYS309  TRP311  MET341  HIS342  TRP414  ALA417  ARG419  CYS420  VAL421  GLY422 
 ARG423  SER462  ALA463  SER482  GLN483  LEU484  ILE485  ARG486  ALA502  TRP566 
 TYR567  LEU569  PRO570  ALA571  VAL572  SER573  ASN574  MET575  PHE589  SER590 
 GLY591  TRP592  TYR593  MET594  GLU597  ILE598  ARG601  ASP602  ASP605  ARG608 
 TRP683  HIS697  GLU699  TYR711  HEM750  H4B760 

> <Gold.Protein.RotatedAtoms>
  188.8817   24.6208   41.9373 H   0  0  0  0  0  0  0  0  0  0  0  0  # atno 552  bound_to 517 
  190.0337   23.5294   42.4150 H   0  0  0  0  0  0  0  0  0  0  0  0  # atno 553  bound_to 517 
  188.6554   23.7267   43.3133 H   0  0  0  0  0  0  0  0  0  0  0  0  # atno 554  bound_to 517 
  196.9755   20.3721   45.8137 H   0  0  0  0  0  0  0  0  0  0  0  0  # atno 2539 bound_to 2515
  197.4038   19.3380   43.7366 H   0  0  0  0  0  0  0  0  0  0  0  0  # atno 2615 bound_to 2585
  197.4303    5.8518   49.9703 H   0  0  0  0  0  0  0  0  0  0  0  0  # atno 7433 bound_to 7405
  195.4027    5.8775   53.6352 H   0  0  0  0  0  0  0  0  0  0  0  0  # atno 7467 bound_to 7446
  195.4632    2.8710   55.1807 H   0  0  0  0  0  0  0  0  0  0  0  0  # atno 7519 bound_to 7507
  188.9235   -3.5756   50.9586 H   0  0  0  0  0  0  0  0  0  0  0  0  # atno 10113 bound_to 10086
  187.4765   -3.8967   47.2020 H   0  0  0  0  0  0  0  0  0  0  0  0  # atno 10149 bound_to 10124
  181.7151   11.1330   42.6819 H   0  0  0  0  0  0  0  0  0  0  0  0  # atno 11428 bound_to 11406
  181.8783    8.5572   42.0320 H   0  0  0  0  0  0  0  0  0  0  0  0  # atno 11483 bound_to 11448
  181.9535    4.7489   43.4440 H   0  0  0  0  0  0  0  0  0  0  0  0  # atno 11550 bound_to 11515
  179.7250    5.1997   45.3903 H   0  0  0  0  0  0  0  0  0  0  0  0  # atno 11626 bound_to 11591
  181.0902    8.2059   49.6160 H   0  0  0  0  0  0  0  0  0  0  0  0  # atno 16984 bound_to 16942
  183.2510    4.4648   47.7357 H   0  0  0  0  0  0  0  0  0  0  0  0  # atno 17188 bound_to 17168
  184.7116    4.0590   45.2491 H   0  0  0  0  0  0  0  0  0  0  0  0  # atno 17240 bound_to 17210
  185.0673    6.2533   42.5412 H   0  0  0  0  0  0  0  0  0  0  0  0  # atno 17296 bound_to 17273
  185.6020    6.8292   40.0093 H   0  0  0  0  0  0  0  0  0  0  0  0  # atno 17349 bound_to 17319
  186.3879    0.4181   42.1598 H   0  0  0  0  0  0  0  0  0  0  0  0  # atno 18232 bound_to 18190
  186.8080   -1.5005   45.7142 H   0  0  0  0  0  0  0  0  0  0  0  0  # atno 18288 bound_to 18265
  185.0620   -2.4729   47.9577 H   0  0  0  0  0  0  0  0  0  0  0  0  # atno 18292 bound_to 18270
  187.7044    0.0866   49.1371 H   0  0  0  0  0  0  0  0  0  0  0  0  # atno 18322 bound_to 18307
  186.4890   -0.3904   52.1047 H   0  0  0  0  0  0  0  0  0  0  0  0  # atno 18397 bound_to 18345
  185.0178    1.8832   54.4818 H   0  0  0  0  0  0  0  0  0  0  0  0  # atno 18484 bound_to 18439
  181.3994    7.9277   52.5140 H   0  0  0  0  0  0  0  0  0  0  0  0  # atno 18492 bound_to 18450
  187.2019    5.0252   56.4097 H   0  0  0  0  0  0  0  0  0  0  0  0  # atno 18560 bound_to 18519
  193.9456   11.6765   45.4724 H   0  0  0  0  0  0  0  0  0  0  0  0  # atno 26073 bound_to 26031
  192.3194   19.3038   52.0087 H   0  0  0  0  0  0  0  0  0  0  0  0  # atno 27148 bound_to 27102
  197.1374   18.9781   51.3733 H   0  0  0  0  0  0  0  0  0  0  0  0  # atno 27149 bound_to 27104
  198.1774   19.3854   46.6074 LP  0  0  0  0  0  0  0  0  0  0  0  0  # atno 27202 bound_to 2515
  196.5062   15.8056   45.1941 LP  0  0  0  0  0  0  0  0  0  0  0  0  # atno 27203 bound_to 2518
  197.3102   15.9310   43.6651 LP  0  0  0  0  0  0  0  0  0  0  0  0  # atno 27204 bound_to 2518
  196.5965   17.8534   44.1758 LP  0  0  0  0  0  0  0  0  0  0  0  0  # atno 27205 bound_to 2585
  193.3669   13.1971   45.4688 LP  0  0  0  0  0  0  0  0  0  0  0  0  # atno 27209 bound_to 26031
  194.9784   12.9335   45.4491 LP  0  0  0  0  0  0  0  0  0  0  0  0  # atno 27210 bound_to 26031
  192.8272   20.7640   51.5017 LP  0  0  0  0  0  0  0  0  0  0  0  0  # atno 27213 bound_to 27102
  193.3955   20.1384   52.8989 LP  0  0  0  0  0  0  0  0  0  0  0  0  # atno 27214 bound_to 27102
  194.9358    7.5573   51.6215 LP  0  0  0  0  0  0  0  0  0  0  0  0  # atno 27224 bound_to 7317
  195.9775    8.8837   52.0158 LP  0  0  0  0  0  0  0  0  0  0  0  0  # atno 27225 bound_to 7317
  196.9262    7.1450   51.0271 LP  0  0  0  0  0  0  0  0  0  0  0  0  # atno 27226 bound_to 7405
  198.2619    4.4932   53.3354 LP  0  0  0  0  0  0  0  0  0  0  0  0  # atno 27227 bound_to 7408
  197.6993    3.3626   52.1500 LP  0  0  0  0  0  0  0  0  0  0  0  0  # atno 27228 bound_to 7408
  195.6539    4.2634   53.0067 LP  0  0  0  0  0  0  0  0  0  0  0  0  # atno 27229 bound_to 7446
  194.6232    2.9221   53.6507 LP  0  0  0  0  0  0  0  0  0  0  0  0  # atno 27230 bound_to 7507
  185.3343    2.0245   48.0610 LP  0  0  0  0  0  0  0  0  0  0  0  0  # atno 27232 bound_to 17117
  185.3237    2.2335   49.7804 LP  0  0  0  0  0  0  0  0  0  0  0  0  # atno 27233 bound_to 17117
  183.1320    2.8368   48.3513 LP  0  0  0  0  0  0  0  0  0  0  0  0  # atno 27234 bound_to 17168
  186.2905    3.7359   45.9366 LP  0  0  0  0  0  0  0  0  0  0  0  0  # atno 27235 bound_to 17210
  186.4992    1.9163   46.2026 LP  0  0  0  0  0  0  0  0  0  0  0  0  # atno 27236 bound_to 18193
  186.0634    1.9473   44.5266 LP  0  0  0  0  0  0  0  0  0  0  0  0  # atno 27237 bound_to 18193
  187.4107    0.1349   45.6070 LP  0  0  0  0  0  0  0  0  0  0  0  0  # atno 27238 bound_to 18265
  187.7872   -2.4148   47.4324 LP  0  0  0  0  0  0  0  0  0  0  0  0  # atno 27239 bound_to 18268
  187.6455   -2.7658   49.1226 LP  0  0  0  0  0  0  0  0  0  0  0  0  # atno 27240 bound_to 18268
  186.0736   -0.4555   49.4620 LP  0  0  0  0  0  0  0  0  0  0  0  0  # atno 27241 bound_to 18307
  185.1321   -2.3327   51.5824 LP  0  0  0  0  0  0  0  0  0  0  0  0  # atno 27242 bound_to 18310
  184.5028   -0.7266   51.7382 LP  0  0  0  0  0  0  0  0  0  0  0  0  # atno 27243 bound_to 18310
  187.7054   -0.5192   53.3543 LP  0  0  0  0  0  0  0  0  0  0  0  0  # atno 27244 bound_to 18345
  188.1425    1.2943   54.5777 LP  0  0  0  0  0  0  0  0  0  0  0  0  # atno 27245 bound_to 18348
  187.4493    2.8495   54.2601 LP  0  0  0  0  0  0  0  0  0  0  0  0  # atno 27246 bound_to 18348
  185.4310    1.2153   56.0446 LP  0  0  0  0  0  0  0  0  0  0  0  0  # atno 27247 bound_to 18439
  186.9448    3.4839   57.1948 LP  0  0  0  0  0  0  0  0  0  0  0  0  # atno 27248 bound_to 18519
  183.2561    5.6183   45.2953 LP  0  0  0  0  0  0  0  0  0  0  0  0  # atno 27253 bound_to 17171
  183.1357    4.4254   44.0453 LP  0  0  0  0  0  0  0  0  0  0  0  0  # atno 27254 bound_to 17171
  186.6756    3.3909   41.6352 LP  0  0  0  0  0  0  0  0  0  0  0  0  # atno 27255 bound_to 17213
  187.1033    3.0727   43.2832 LP  0  0  0  0  0  0  0  0  0  0  0  0  # atno 27256 bound_to 17213
  180.6450    2.8869   48.4466 LP  0  0  0  0  0  0  0  0  0  0  0  0  # atno 27257 bound_to 17042
  179.9434    3.7827   49.7525 LP  0  0  0  0  0  0  0  0  0  0  0  0  # atno 27258 bound_to 17042
  186.5079    5.2689   42.4974 LP  0  0  0  0  0  0  0  0  0  0  0  0  # atno 27259 bound_to 17273
  181.5467    6.7109   51.4437 LP  0  0  0  0  0  0  0  0  0  0  0  0  # atno 27260 bound_to 18450
  182.7811    7.7552   51.6720 LP  0  0  0  0  0  0  0  0  0  0  0  0  # atno 27261 bound_to 18450
  187.5141    1.6968   42.5554 LP  0  0  0  0  0  0  0  0  0  0  0  0  # atno 27262 bound_to 18190
  185.0561   -2.2432   46.3472 LP  0  0  0  0  0  0  0  0  0  0  0  0  # atno 27263 bound_to 18270
  183.6596   -2.1706   47.1905 LP  0  0  0  0  0  0  0  0  0  0  0  0  # atno 27264 bound_to 18270
  190.5272   -3.8406   50.8763 LP  0  0  0  0  0  0  0  0  0  0  0  0  # atno 27265 bound_to 10086
  189.5693   -4.8658   51.7118 LP  0  0  0  0  0  0  0  0  0  0  0  0  # atno 27266 bound_to 10086
  186.6473   -2.8025   45.2134 LP  0  0  0  0  0  0  0  0  0  0  0  0  # atno 27267 bound_to 10127
  188.3084   -2.4775   44.8459 LP  0  0  0  0  0  0  0  0  0  0  0  0  # atno 27268 bound_to 10127
  184.5354    7.3042   42.9488 LP  0  0  0  0  0  0  0  0  0  0  0  0  # atno 27269 bound_to 11404
  185.4335    8.6804   42.4015 LP  0  0  0  0  0  0  0  0  0  0  0  0  # atno 27270 bound_to 11404
  180.3597    9.3206   50.5492 LP  0  0  0  0  0  0  0  0  0  0  0  0  # atno 27271 bound_to 16942
  179.9111    9.1359   48.9900 LP  0  0  0  0  0  0  0  0  0  0  0  0  # atno 27272 bound_to 16942
  182.8780    9.2562   43.2826 LP  0  0  0  0  0  0  0  0  0  0  0  0  # atno 27273 bound_to 11448
  180.9007    6.1371   43.5894 LP  0  0  0  0  0  0  0  0  0  0  0  0  # atno 27274 bound_to 11515
  179.1386    7.9561   47.3717 LP  0  0  0  0  0  0  0  0  0  0  0  0  # atno 27275 bound_to 11594
  179.0060    6.3152   47.9101 LP  0  0  0  0  0  0  0  0  0  0  0  0  # atno 27276 bound_to 11594
  178.6336    4.6366   44.1469 LP  0  0  0  0  0  0  0  0  0  0  0  0  # atno 27277 bound_to 11591
  182.2303   12.6727   42.7889 LP  0  0  0  0  0  0  0  0  0  0  0  0  # atno 27282 bound_to 11406
  182.7036   11.5713   43.8978 LP  0  0  0  0  0  0  0  0  0  0  0  0  # atno 27283 bound_to 11406
  184.5850   12.7335   56.0165 LP  0  0  0  0  0  0  0  0  0  0  0  0  # atno 27284 bound_to 18675
  184.0356   11.6731   54.7620 LP  0  0  0  0  0  0  0  0  0  0  0  0  # atno 27285 bound_to 18675

> <Gold.Score>
     Fitness  S(hb_ext) S(vdw_ext)  S(hb_int)    S(int)      intcor
     32.93       4.02      21.67       0.00      -0.88      -0.76

> <Gold.Goldscore.Fitness>
32.9312

> <Gold.Goldscore.Internal.Vdw>
-1.1214

> <Gold.Goldscore.Internal.Torsion>
-0.5227

> <Gold.Goldscore.External.Vdw>
21.6693

> <Gold.Goldscore.Internal.HBond>
0.0000

> <Gold.Goldscore.External.HBond>
4.0152

> <Gold.Goldscore.Internal.Correction>
-0.7650

> <Gold.Goldscore.Hbonds>
donor molecule, donor type, donor heavy atom, donor atom, acceptor molecule, acceptor atom, score
      P1  H 11455 11489       L1    17  0.06
      P1  H 19332 19366       L1    17  0.65

> <Gold.Goldscore.Internal.Vdw.Weighted>
-1.1214

> <Gold.Goldscore.Internal.Torsion.Weighted>
-0.5227

> <Gold.Goldscore.External.Vdw.Weighted>
29.7952

> <Gold.Goldscore.Internal.HBond.Weighted>
0.0000

> <Gold.Goldscore.External.HBond.Weighted>
4.0152

> <Gold.Goldscore.Internal.Correction.Weighted>
-0.7650

> <Gold.Rescore>
     Score     S(PLP)   S(hbond)     S(cho)   S(metal)  DE(clash)   DE(tors)     intcor
     20.28     -21.08       0.44       0.00       0.00       0.42       0.86       ----

> <Gold.PLP.Fitness>
20.2841

> <Gold.PLP.PLP>
-21.0793

> <Gold.PLP.part.hbond>
-4.0638

> <Gold.PLP.part.metal>
0.0000

> <Gold.PLP.part.buried>
-6.2185

> <Gold.PLP.part.nonpolar>
-16.9040

> <Gold.PLP.part.repulsive>
5.1753

> <Gold.PLP.ligand.clash>
0.4156

> <Gold.PLP.ligand.torsion>
0.8559

> <Gold.PLP.Chemscore.Hbond>
0.4441

> <Gold.PLP.Chemscore.CHOScore>
0.0000

> <Gold.PLP.Chemscore.Metal>
0.0000

> <Gold.Chemscore.Hbonds>
donor molecule, donor type, donor heavy atom, donor atom, acceptor molecule, acceptor atom, score
      P1  H 19332 19366       L1    17  0.28

> <Gold.PLP.Chemscore.Internal.Correction>
   9.000000E+99

