#       Name:                CT1002167954
#       Creating user name   hitesit
#       Creation time:       Sun Apr 16 20:21:55 2023


#       File generated by GOLD software.
#

@<TRIPOS>MOLECULE
CT1002167954|ligand_prepared|mol2|1|dock2
    29    30     1
SMALL
NO_CHARGES


@<TRIPOS>ATOM
      1 C1         186.8628  12.7301  49.1861 C.3            1 RES1               0.0000
      2 C2         187.1243  11.2136  49.0828 C.ar           1 RES1               0.0000
      3 C3         185.8465  12.9141  50.3093 C.2            1 RES1               0.0000
      4 C4         188.2155  13.3786  49.4587 C.2            1 RES1               0.0000
      5 C5         186.2855  13.3540  47.8942 C.3            1 RES1               0.0000
      6 C6         187.7065  10.6710  47.9412 C.ar           1 RES1               0.0000
      7 C7         186.7917  10.3464  50.1201 C.ar           1 RES1               0.0000
      8 N8         186.2971  13.4214  51.4923 N.am           1 RES1               0.0000
      9 O9         184.6755  12.5822  50.1722 O.2            1 RES1               0.0000
     10 N10        188.3991  13.9971  50.6676 N.am           1 RES1               0.0000
     11 O11        189.1296  13.3451  48.6441 O.2            1 RES1               0.0000
     12 C12        185.8020  14.7852  48.0676 C.3            1 RES1               0.0000
     13 C13        187.9502   9.3113  47.8413 C.ar           1 RES1               0.0000
     14 C14        187.0361   8.9869  50.0181 C.ar           1 RES1               0.0000
     15 C15        187.5116  14.0212  51.7088 C.2            1 RES1               0.0000
     16 C16        187.6156   8.4684  48.8796 C.ar           1 RES1               0.0000
     17 O17        187.7702  14.5511  52.7856 O.2            1 RES1               0.0000
     18 H18        187.0589  13.3343  47.1165 H              1 RES1               0.0000
     19 H19        185.4467  12.7373  47.5486 H              1 RES1               0.0000
     20 H20        187.9744  11.3184  47.1128 H              1 RES1               0.0000
     21 H21        186.3338  10.7318  51.0248 H              1 RES1               0.0000
     22 H22        185.6734  13.3480  52.2897 H              1 RES1               0.0000
     23 H23        189.2788  14.4847  50.8040 H              1 RES1               0.0000
     24 H24        185.4068  15.1748  47.1317 H              1 RES1               0.0000
     25 H25        185.0142  14.8382  48.8162 H              1 RES1               0.0000
     26 H26        186.6169  15.4316  48.3867 H              1 RES1               0.0000
     27 H27        188.4053   8.9081  46.9426 H              1 RES1               0.0000
     28 H28        186.7705   8.3271  50.8375 H              1 RES1               0.0000
     29 H29        187.8070   7.4033  48.8013 H              1 RES1               0.0000
@<TRIPOS>BOND
    1    1    2 1     
    2    1    3 1     
    3    1    4 1     
    4    1    5 1     
    5    2    6 ar    
    6    2    7 ar    
    7    3    8 1     
    8    3    9 2     
    9    4   10 1     
   10    4   11 2     
   11    5   12 1     
   12    5   18 1     
   13    5   19 1     
   14    6   13 ar    
   15    6   20 1     
   16    7   14 ar    
   17    7   21 1     
   18    8   15 1     
   19    8   22 1     
   20   10   15 1     
   21   10   23 1     
   22   12   24 1     
   23   12   25 1     
   24   12   26 1     
   25   13   16 ar    
   26   13   27 1     
   27   14   16 ar    
   28   14   28 1     
   29   15   17 2     
   30   16   29 1     
@<TRIPOS>SUBSTRUCTURE
      1 RES1           1
@<TRIPOS>SET
DONOR_HYDROGENS      STATIC     ATOMS    <user>   **** ""
2 22 23
ATOM$RED        STATIC     ATOMS    COLORGROUP SYSTEM
2 22 23
@<TRIPOS>COMMENT
> <Gold.Version>
2022.3.0

> <Gold.Id.Protein>
unknown|4v3u_clean|pdb

> <Gold.Protein.RotatedTorsions>
[  552  517  516  515 ] final -115.36 input   59.99 | X-H torsion
[ 2539 2515 2516 2517 ] final   93.22 input  113.65 | X-H torsion
[ 2615 2585 2586 2587 ] final -154.35 input   46.31 | X-H torsion
[ 26073 26031 26030 26028 ] final  -61.97 input   59.98 | X-H torsion
[ 27148 27102 27101 27097 ] final  -84.37 input   60.00 | X-H torsion
[ 7433 7405 7406 7407 ] final  112.76 input   81.33 | X-H torsion
[ 7467 7446 7447 7448 ] final  -22.66 input   92.53 | X-H torsion
[ 7519 7507 7508 7509 ] final    5.25 input   89.47 | X-H torsion
[ 17188 17168 17169 17170 ] final  142.14 input   55.70 | X-H torsion
[ 17240 17210 17211 17212 ] final  -46.41 input  101.26 | X-H torsion
[ 18288 18265 18266 18267 ] final   69.52 input   32.88 | X-H torsion
[ 18322 18307 18308 18309 ] final  -64.37 input   53.35 | X-H torsion
[ 18397 18345 18346 18347 ] final -177.12 input   36.30 | X-H torsion
[ 18484 18439 18440 18441 ] final  120.79 input   98.15 | X-H torsion
[ 18560 18519 18520 18521 ] final  160.65 input   94.34 | X-H torsion
[ 17296 17273 17274 17275 ] final  115.56 input   50.38 | X-H torsion
[ 18492 18450 18449 18447 ] final   32.30 input   59.99 | X-H torsion
[ 18232 18190 18191 18192 ] final  114.25 input   49.82 | X-H torsion
[ 18292 18270 18269 18266 ] final -148.27 input   60.01 | X-H torsion
[ 10113 10086 10085 10082 ] final -158.08 input   60.00 | X-H torsion
[ 16984 16942 16941 16939 ] final  126.25 input   60.00 | X-H torsion
[ 11483 11448 11449 11450 ] final -153.99 input   47.08 | X-H torsion
[ 11550 11515 11516 11517 ] final  158.10 input  121.60 | X-H torsion
[ 11626 11591 11592 11593 ] final   54.90 input   57.19 | X-H torsion
[ 11428 11406 11405 11402 ] final   12.79 input   60.00 | X-H torsion
[ 27149 27104 27103 27101 ] final   58.14 input   60.02 | X-H torsion
[ 10149 10124 10125 10126 ] final   19.68 input   16.22 | X-H torsion
[ 17349 17319 17320 17321 ] final    5.67 input   65.41 | X-H torsion
[ 27203 2518 2517 2516 ] final   83.62 input    0.00 | X-H torsion
[ 27224 7317 7316 7315 ] final   72.23 input    0.00 | X-H torsion
[ 27227 7408 7407 7406 ] final   35.55 input   -0.00 | X-H torsion
[ 27232 17117 17116 17115 ] final  -88.36 input    0.00 | X-H torsion
[ 27236 18193 18192 18191 ] final   28.55 input    0.00 | X-H torsion
[ 27239 18268 18267 18266 ] final -138.67 input    0.00 | X-H torsion
[ 27242 18310 18309 18308 ] final  -96.44 input   -0.00 | X-H torsion
[ 27245 18348 18347 18346 ] final   68.05 input    0.00 | X-H torsion
[ 27253 17171 17170 17169 ] final   31.27 input   -0.00 | X-H torsion
[ 27255 17213 17212 17211 ] final  122.25 input    0.00 | X-H torsion
[ 27257 17042 17041 17040 ] final -143.86 input    0.00 | X-H torsion
[ 27267 10127 10126 10125 ] final  -48.10 input   -0.00 | X-H torsion
[ 27269 11404 11403 11402 ] final  -28.07 input    0.00 | X-H torsion
[ 27275 11594 11593 11592 ] final  -98.33 input   -0.00 | X-H torsion
[ 27284 18675 18674 18673 ] final -115.02 input    0.00 | X-H torsion

> <Gold.Protein.ActiveResidues>
 LYS309  TRP311  MET341  HIS342  TRP414  ALA417  ARG419  CYS420  VAL421  GLY422 
 ARG423  SER462  ALA463  SER482  GLN483  LEU484  ILE485  ARG486  ALA502  TRP566 
 TYR567  LEU569  PRO570  ALA571  VAL572  SER573  ASN574  MET575  PHE589  SER590 
 GLY591  TRP592  TYR593  MET594  GLU597  ILE598  ARG601  ASP602  ASP605  ARG608 
 TRP683  HIS697  GLU699  TYR711  HEM750  H4B760 

> <Gold.Protein.RotatedAtoms>
  189.1141   24.5635   41.8178 H   0  0  0  0  0  0  0  0  0  0  0  0  # atno 552  bound_to 517 
  189.9644   23.4032   42.6406 H   0  0  0  0  0  0  0  0  0  0  0  0  # atno 553  bound_to 517 
  188.4922   23.9101   43.2072 H   0  0  0  0  0  0  0  0  0  0  0  0  # atno 554  bound_to 517 
  196.9583   20.3765   45.8469 H   0  0  0  0  0  0  0  0  0  0  0  0  # atno 2539 bound_to 2515
  196.6178   17.8280   44.1926 H   0  0  0  0  0  0  0  0  0  0  0  0  # atno 2615 bound_to 2585
  197.2754    5.9266   49.8470 H   0  0  0  0  0  0  0  0  0  0  0  0  # atno 7433 bound_to 7405
  195.5222    4.2092   53.0498 H   0  0  0  0  0  0  0  0  0  0  0  0  # atno 7467 bound_to 7446
  195.6848    2.6071   53.8831 H   0  0  0  0  0  0  0  0  0  0  0  0  # atno 7519 bound_to 7507
  190.5648   -3.9493   50.9399 H   0  0  0  0  0  0  0  0  0  0  0  0  # atno 10113 bound_to 10086
  187.5874   -3.8794   47.1824 H   0  0  0  0  0  0  0  0  0  0  0  0  # atno 10149 bound_to 10124
  181.8998   10.9142   43.0297 H   0  0  0  0  0  0  0  0  0  0  0  0  # atno 11428 bound_to 11406
  183.2580    8.9066   42.7904 H   0  0  0  0  0  0  0  0  0  0  0  0  # atno 11483 bound_to 11448
  181.9729    4.8279   43.2191 H   0  0  0  0  0  0  0  0  0  0  0  0  # atno 11550 bound_to 11515
  179.7147    5.0635   45.4439 H   0  0  0  0  0  0  0  0  0  0  0  0  # atno 11626 bound_to 11591
  180.9989    8.6309   50.4360 H   0  0  0  0  0  0  0  0  0  0  0  0  # atno 16984 bound_to 16942
  182.6041    2.9914   48.0451 H   0  0  0  0  0  0  0  0  0  0  0  0  # atno 17188 bound_to 17168
  184.8205    3.8103   45.0462 H   0  0  0  0  0  0  0  0  0  0  0  0  # atno 17240 bound_to 17210
  184.9418    5.8834   42.7004 H   0  0  0  0  0  0  0  0  0  0  0  0  # atno 17296 bound_to 17273
  187.2734    6.5741   40.4901 H   0  0  0  0  0  0  0  0  0  0  0  0  # atno 17349 bound_to 17319
  187.7600    1.4412   42.2761 H   0  0  0  0  0  0  0  0  0  0  0  0  # atno 18232 bound_to 18190
  186.7773   -1.4894   45.6979 H   0  0  0  0  0  0  0  0  0  0  0  0  # atno 18288 bound_to 18265
  183.7896   -2.1186   46.7227 H   0  0  0  0  0  0  0  0  0  0  0  0  # atno 18292 bound_to 18270
  186.2236   -0.7842   49.2377 H   0  0  0  0  0  0  0  0  0  0  0  0  # atno 18322 bound_to 18307
  186.6073   -1.1613   52.5397 H   0  0  0  0  0  0  0  0  0  0  0  0  # atno 18397 bound_to 18345
  184.3507    1.6366   55.3733 H   0  0  0  0  0  0  0  0  0  0  0  0  # atno 18484 bound_to 18439
  182.7694    7.5610   51.5240 H   0  0  0  0  0  0  0  0  0  0  0  0  # atno 18492 bound_to 18450
  187.8768    3.9205   56.6273 H   0  0  0  0  0  0  0  0  0  0  0  0  # atno 18560 bound_to 18519
  193.3728   13.1936   45.4660 H   0  0  0  0  0  0  0  0  0  0  0  0  # atno 26073 bound_to 26031
  192.2331   19.7089   51.5262 H   0  0  0  0  0  0  0  0  0  0  0  0  # atno 27148 bound_to 27102
  196.3138   19.3766   49.7647 H   0  0  0  0  0  0  0  0  0  0  0  0  # atno 27149 bound_to 27104
  198.1943   19.3811   46.5747 LP  0  0  0  0  0  0  0  0  0  0  0  0  # atno 27202 bound_to 2515
  196.0507   15.8483   44.3098 LP  0  0  0  0  0  0  0  0  0  0  0  0  # atno 27203 bound_to 2518
  197.7657   15.8884   44.5494 LP  0  0  0  0  0  0  0  0  0  0  0  0  # atno 27204 bound_to 2518
  197.3677   19.3349   43.7284 LP  0  0  0  0  0  0  0  0  0  0  0  0  # atno 27205 bound_to 2585
  194.9787   12.9325   45.4491 LP  0  0  0  0  0  0  0  0  0  0  0  0  # atno 27209 bound_to 26031
  193.9434   11.6699   45.4752 LP  0  0  0  0  0  0  0  0  0  0  0  0  # atno 27210 bound_to 26031
  193.2306   20.9127   51.9766 LP  0  0  0  0  0  0  0  0  0  0  0  0  # atno 27213 bound_to 27102
  193.0790   19.5815   52.9101 LP  0  0  0  0  0  0  0  0  0  0  0  0  # atno 27214 bound_to 27102
  195.0524    8.4719   51.0952 LP  0  0  0  0  0  0  0  0  0  0  0  0  # atno 27224 bound_to 7317
  195.8610    7.9691   52.5421 LP  0  0  0  0  0  0  0  0  0  0  0  0  # atno 27225 bound_to 7317
  197.0791    7.0712   51.1488 LP  0  0  0  0  0  0  0  0  0  0  0  0  # atno 27226 bound_to 7405
  198.2862    4.4691   52.1397 LP  0  0  0  0  0  0  0  0  0  0  0  0  # atno 27227 bound_to 7408
  197.6749    3.3867   53.3458 LP  0  0  0  0  0  0  0  0  0  0  0  0  # atno 27228 bound_to 7408
  195.5382    5.8792   53.5736 LP  0  0  0  0  0  0  0  0  0  0  0  0  # atno 27229 bound_to 7446
  194.4057    3.1810   54.9242 LP  0  0  0  0  0  0  0  0  0  0  0  0  # atno 27230 bound_to 7507
  185.8139    2.8454   48.9616 LP  0  0  0  0  0  0  0  0  0  0  0  0  # atno 27232 bound_to 17117
  184.8440    1.4127   48.8798 LP  0  0  0  0  0  0  0  0  0  0  0  0  # atno 27233 bound_to 17117
  183.7698    4.2894   48.0463 LP  0  0  0  0  0  0  0  0  0  0  0  0  # atno 27234 bound_to 17168
  186.1858    3.9752   46.1318 LP  0  0  0  0  0  0  0  0  0  0  0  0  # atno 27235 bound_to 17210
  186.1392    1.9820   44.5118 LP  0  0  0  0  0  0  0  0  0  0  0  0  # atno 27236 bound_to 18193
  186.4234    1.8817   46.2174 LP  0  0  0  0  0  0  0  0  0  0  0  0  # atno 27237 bound_to 18193
  187.4409    0.1240   45.6230 LP  0  0  0  0  0  0  0  0  0  0  0  0  # atno 27238 bound_to 18265
  187.3989   -2.8625   49.0359 LP  0  0  0  0  0  0  0  0  0  0  0  0  # atno 27239 bound_to 18268
  188.0338   -2.3181   47.5191 LP  0  0  0  0  0  0  0  0  0  0  0  0  # atno 27240 bound_to 18268
  187.5128    0.3909   49.3642 LP  0  0  0  0  0  0  0  0  0  0  0  0  # atno 27241 bound_to 18307
  184.5681   -0.7394   51.4084 LP  0  0  0  0  0  0  0  0  0  0  0  0  # atno 27242 bound_to 18310
  185.0668   -2.3198   51.9122 LP  0  0  0  0  0  0  0  0  0  0  0  0  # atno 27243 bound_to 18310
  187.5903    0.2308   52.9311 LP  0  0  0  0  0  0  0  0  0  0  0  0  # atno 27244 bound_to 18345
  187.6004    2.2055   53.5859 LP  0  0  0  0  0  0  0  0  0  0  0  0  # atno 27245 bound_to 18348
  187.9914    1.9382   55.2519 LP  0  0  0  0  0  0  0  0  0  0  0  0  # atno 27246 bound_to 18348
  186.0792    1.4550   55.1782 LP  0  0  0  0  0  0  0  0  0  0  0  0  # atno 27247 bound_to 18439
  186.2881    4.5589   56.9831 LP  0  0  0  0  0  0  0  0  0  0  0  0  # atno 27248 bound_to 18519
  182.6641    4.9126   45.3450 LP  0  0  0  0  0  0  0  0  0  0  0  0  # atno 27253 bound_to 17171
  183.7278    5.1311   43.9956 LP  0  0  0  0  0  0  0  0  0  0  0  0  # atno 27254 bound_to 17171
  186.1171    2.9941   42.1477 LP  0  0  0  0  0  0  0  0  0  0  0  0  # atno 27255 bound_to 17213
  187.6618    3.4695   42.7706 LP  0  0  0  0  0  0  0  0  0  0  0  0  # atno 27256 bound_to 17213
  181.0382    3.4314   48.6669 LP  0  0  0  0  0  0  0  0  0  0  0  0  # atno 27257 bound_to 17042
  179.5502    3.2383   49.5322 LP  0  0  0  0  0  0  0  0  0  0  0  0  # atno 27258 bound_to 17042
  186.6313    5.6326   42.3409 LP  0  0  0  0  0  0  0  0  0  0  0  0  # atno 27259 bound_to 17273
  181.5958    8.0724   52.5286 LP  0  0  0  0  0  0  0  0  0  0  0  0  # atno 27260 bound_to 18450
  181.3527    6.7628   51.5839 LP  0  0  0  0  0  0  0  0  0  0  0  0  # atno 27261 bound_to 18450
  186.1826    0.7039   42.4425 LP  0  0  0  0  0  0  0  0  0  0  0  0  # atno 27262 bound_to 18190
  184.5967   -2.4316   48.1001 LP  0  0  0  0  0  0  0  0  0  0  0  0  # atno 27263 bound_to 18270
  185.4009   -2.3392   46.6819 LP  0  0  0  0  0  0  0  0  0  0  0  0  # atno 27264 bound_to 18270
  189.4407   -4.8365   51.7132 LP  0  0  0  0  0  0  0  0  0  0  0  0  # atno 27265 bound_to 10086
  189.0031   -3.4936   50.8936 LP  0  0  0  0  0  0  0  0  0  0  0  0  # atno 27266 bound_to 10086
  186.7131   -2.8339   45.3867 LP  0  0  0  0  0  0  0  0  0  0  0  0  # atno 27267 bound_to 10127
  188.2426   -2.4461   44.6726 LP  0  0  0  0  0  0  0  0  0  0  0  0  # atno 27268 bound_to 10127
  185.2676    8.2090   41.8859 LP  0  0  0  0  0  0  0  0  0  0  0  0  # atno 27269 bound_to 11404
  184.7013    7.7755   43.4643 LP  0  0  0  0  0  0  0  0  0  0  0  0  # atno 27270 bound_to 11404
  179.8176    9.5712   49.8298 LP  0  0  0  0  0  0  0  0  0  0  0  0  # atno 27271 bound_to 16942
  180.5452    8.4571   48.8832 LP  0  0  0  0  0  0  0  0  0  0  0  0  # atno 27272 bound_to 16942
  181.5289    8.9146   42.5412 LP  0  0  0  0  0  0  0  0  0  0  0  0  # atno 27273 bound_to 11448
  180.8818    6.0601   43.8087 LP  0  0  0  0  0  0  0  0  0  0  0  0  # atno 27274 bound_to 11515
  178.4876    7.0566   48.2748 LP  0  0  0  0  0  0  0  0  0  0  0  0  # atno 27275 bound_to 11594
  179.6570    7.2147   47.0070 LP  0  0  0  0  0  0  0  0  0  0  0  0  # atno 27276 bound_to 11594
  178.6436    4.7697   44.0946 LP  0  0  0  0  0  0  0  0  0  0  0  0  # atno 27277 bound_to 11591
  181.9605   12.4512   42.4989 LP  0  0  0  0  0  0  0  0  0  0  0  0  # atno 27282 bound_to 11406
  182.7872   12.0132   43.8374 LP  0  0  0  0  0  0  0  0  0  0  0  0  # atno 27283 bound_to 11406
  184.1453   12.6630   56.1044 LP  0  0  0  0  0  0  0  0  0  0  0  0  # atno 27284 bound_to 18675
  184.4753   11.7436   54.6741 LP  0  0  0  0  0  0  0  0  0  0  0  0  # atno 27285 bound_to 18675

> <Gold.Score>
     Fitness  S(hb_ext) S(vdw_ext)  S(hb_int)    S(int)      intcor
     30.02       6.10      18.21       0.00      -1.12      -0.76

> <Gold.Goldscore.Fitness>
30.0177

> <Gold.Goldscore.Internal.Vdw>
-1.3554

> <Gold.Goldscore.Internal.Torsion>
-0.5339

> <Gold.Goldscore.External.Vdw>
18.2096

> <Gold.Goldscore.Internal.HBond>
0.0000

> <Gold.Goldscore.External.HBond>
6.1039

> <Gold.Goldscore.Internal.Correction>
-0.7650

> <Gold.Goldscore.Hbonds>
donor molecule, donor type, donor heavy atom, donor atom, acceptor molecule, acceptor atom, score
      P1  H 19331 19364       L1     9  0.02
      L1  H    10    23       P1 27095  1.00

> <Gold.Goldscore.Internal.Vdw.Weighted>
-1.3554

> <Gold.Goldscore.Internal.Torsion.Weighted>
-0.5339

> <Gold.Goldscore.External.Vdw.Weighted>
25.0382

> <Gold.Goldscore.Internal.HBond.Weighted>
0.0000

> <Gold.Goldscore.External.HBond.Weighted>
6.1039

> <Gold.Goldscore.Internal.Correction.Weighted>
-0.7650

> <Gold.Rescore>
     Score     S(PLP)   S(hbond)     S(cho)   S(metal)  DE(clash)   DE(tors)     intcor
     20.34     -16.34       1.89       0.00       0.00       1.00       0.33       ----

> <Gold.PLP.Fitness>
20.3433

> <Gold.PLP.PLP>
-16.3425

> <Gold.PLP.part.hbond>
-3.6768

> <Gold.PLP.part.metal>
0.0000

> <Gold.PLP.part.buried>
-3.3474

> <Gold.PLP.part.nonpolar>
-12.6576

> <Gold.PLP.part.repulsive>
1.0669

> <Gold.PLP.ligand.clash>
1.0039

> <Gold.PLP.ligand.torsion>
0.3281

> <Gold.PLP.Chemscore.Hbond>
1.8870

> <Gold.PLP.Chemscore.CHOScore>
0.0000

> <Gold.PLP.Chemscore.Metal>
0.0000

> <Gold.Chemscore.Hbonds>
donor molecule, donor type, donor heavy atom, donor atom, acceptor molecule, acceptor atom, score
      L1  H    10    23       P1 27095  1.00
      P1  H 19331 19364       L1     9  0.35

> <Gold.PLP.Chemscore.Internal.Correction>
   9.000000E+99

