#       Name:                CT1002167954
#       Creating user name   hitesit
#       Creation time:       Sun Apr 16 20:22:00 2023


#       File generated by GOLD software.
#

@<TRIPOS>MOLECULE
CT1002167954|ligand_prepared|mol2|1|dock10
    29    30     1
SMALL
NO_CHARGES


@<TRIPOS>ATOM
      1 C1         185.3650  11.4415  50.6758 C.3            1 RES1               0.0000
      2 C2         185.5053  12.1713  49.3244 C.ar           1 RES1               0.0000
      3 C3         183.8977  11.0403  50.7958 C.2            1 RES1               0.0000
      4 C4         186.3303  10.2623  50.6262 C.2            1 RES1               0.0000
      5 C5         185.7376  12.3127  51.8980 C.3            1 RES1               0.0000
      6 C6         185.6741  11.4521  48.1449 C.ar           1 RES1               0.0000
      7 C7         185.4654  13.5605  49.2410 C.ar           1 RES1               0.0000
      8 N8         183.5867   9.7235  50.6250 N.am           1 RES1               0.0000
      9 O9         183.0222  11.8727  50.9980 O.2            1 RES1               0.0000
     10 N10        185.8011   8.9983  50.6396 N.am           1 RES1               0.0000
     11 O11        187.5435  10.4164  50.5588 O.2            1 RES1               0.0000
     12 C12        185.9719  11.5149  53.1711 C.3            1 RES1               0.0000
     13 C13        185.7955  12.0983  46.9259 C.ar           1 RES1               0.0000
     14 C14        185.5873  14.2047  48.0209 C.ar           1 RES1               0.0000
     15 C15        184.4718   8.6757  50.6057 C.2            1 RES1               0.0000
     16 C16        185.7518  13.4747  46.8629 C.ar           1 RES1               0.0000
     17 O17        184.0742   7.5150  50.5645 O.2            1 RES1               0.0000
     18 H18        186.6473  12.8791  51.6637 H              1 RES1               0.0000
     19 H19        184.9304  13.0338  52.0769 H              1 RES1               0.0000
     20 H20        185.7133  10.3684  48.1751 H              1 RES1               0.0000
     21 H21        185.3379  14.1552  50.1391 H              1 RES1               0.0000
     22 H22        182.6052   9.4969  50.4999 H              1 RES1               0.0000
     23 H23        186.4591   8.2264  50.6786 H              1 RES1               0.0000
     24 H24        186.2301  12.1740  53.9973 H              1 RES1               0.0000
     25 H25        185.0787  10.9586  53.4477 H              1 RES1               0.0000
     26 H26        186.7854  10.8048  53.0371 H              1 RES1               0.0000
     27 H27        185.9262  11.5193  46.0176 H              1 RES1               0.0000
     28 H28        185.5530  15.2882  47.9761 H              1 RES1               0.0000
     29 H29        185.8466  13.9807  45.9078 H              1 RES1               0.0000
@<TRIPOS>BOND
    1    1    2 1     
    2    1    3 1     
    3    1    4 1     
    4    1    5 1     
    5    2    6 ar    
    6    2    7 ar    
    7    3    8 1     
    8    3    9 2     
    9    4   10 1     
   10    4   11 2     
   11    5   12 1     
   12    5   18 1     
   13    5   19 1     
   14    6   13 ar    
   15    6   20 1     
   16    7   14 ar    
   17    7   21 1     
   18    8   15 1     
   19    8   22 1     
   20   10   15 1     
   21   10   23 1     
   22   12   24 1     
   23   12   25 1     
   24   12   26 1     
   25   13   16 ar    
   26   13   27 1     
   27   14   16 ar    
   28   14   28 1     
   29   15   17 2     
   30   16   29 1     
@<TRIPOS>SUBSTRUCTURE
      1 RES1           1
@<TRIPOS>SET
DONOR_HYDROGENS      STATIC     ATOMS    <user>   **** ""
2 22 23
ATOM$RED        STATIC     ATOMS    COLORGROUP SYSTEM
2 22 23
@<TRIPOS>COMMENT
> <Gold.Version>
2022.3.0

> <Gold.Id.Protein>
unknown|4v3u_clean|pdb

> <Gold.Protein.RotatedTorsions>
[  552  517  516  515 ] final   65.62 input   59.99 | X-H torsion
[ 2539 2515 2516 2517 ] final -155.83 input  113.65 | X-H torsion
[ 2615 2585 2586 2587 ] final -127.73 input   46.31 | X-H torsion
[ 26073 26031 26030 26028 ] final   -1.25 input   59.98 | X-H torsion
[ 27148 27102 27101 27097 ] final  -16.68 input   60.00 | X-H torsion
[ 7433 7405 7406 7407 ] final  174.84 input   81.33 | X-H torsion
[ 7467 7446 7447 7448 ] final   92.68 input   92.53 | X-H torsion
[ 7519 7507 7508 7509 ] final   15.60 input   89.47 | X-H torsion
[ 17188 17168 17169 17170 ] final  171.75 input   55.70 | X-H torsion
[ 17240 17210 17211 17212 ] final  173.03 input  101.26 | X-H torsion
[ 18288 18265 18266 18267 ] final  -25.19 input   32.88 | X-H torsion
[ 18322 18307 18308 18309 ] final  108.31 input   53.35 | X-H torsion
[ 18397 18345 18346 18347 ] final -124.08 input   36.30 | X-H torsion
[ 18484 18439 18440 18441 ] final   10.17 input   98.15 | X-H torsion
[ 18560 18519 18520 18521 ] final    5.78 input   94.34 | X-H torsion
[ 17296 17273 17274 17275 ] final -179.74 input   50.38 | X-H torsion
[ 18492 18450 18449 18447 ] final  100.82 input   59.99 | X-H torsion
[ 18232 18190 18191 18192 ] final -123.78 input   49.82 | X-H torsion
[ 18292 18270 18269 18266 ] final   85.87 input   60.01 | X-H torsion
[ 10113 10086 10085 10082 ] final   21.78 input   60.00 | X-H torsion
[ 16984 16942 16941 16939 ] final -174.40 input   60.00 | X-H torsion
[ 11483 11448 11449 11450 ] final   67.35 input   47.08 | X-H torsion
[ 11550 11515 11516 11517 ] final  160.09 input  121.60 | X-H torsion
[ 11626 11591 11592 11593 ] final  -76.74 input   57.19 | X-H torsion
[ 11428 11406 11405 11402 ] final  -49.08 input   60.00 | X-H torsion
[ 27149 27104 27103 27101 ] final  124.65 input   60.02 | X-H torsion
[ 10149 10124 10125 10126 ] final -121.71 input   16.22 | X-H torsion
[ 17349 17319 17320 17321 ] final  134.19 input   65.41 | X-H torsion
[ 27203 2518 2517 2516 ] final  134.88 input    0.00 | X-H torsion
[ 27224 7317 7316 7315 ] final -119.48 input    0.00 | X-H torsion
[ 27227 7408 7407 7406 ] final -159.65 input   -0.00 | X-H torsion
[ 27232 17117 17116 17115 ] final  -39.09 input    0.00 | X-H torsion
[ 27236 18193 18192 18191 ] final -110.41 input    0.00 | X-H torsion
[ 27239 18268 18267 18266 ] final  135.23 input    0.00 | X-H torsion
[ 27242 18310 18309 18308 ] final  159.48 input   -0.00 | X-H torsion
[ 27245 18348 18347 18346 ] final  120.38 input    0.00 | X-H torsion
[ 27253 17171 17170 17169 ] final   34.34 input   -0.00 | X-H torsion
[ 27255 17213 17212 17211 ] final -151.35 input    0.00 | X-H torsion
[ 27257 17042 17041 17040 ] final  -12.01 input    0.00 | X-H torsion
[ 27267 10127 10126 10125 ] final   69.81 input   -0.00 | X-H torsion
[ 27269 11404 11403 11402 ] final  143.11 input    0.00 | X-H torsion
[ 27275 11594 11593 11592 ] final -111.23 input   -0.00 | X-H torsion
[ 27284 18675 18674 18673 ] final  168.89 input    0.00 | X-H torsion

> <Gold.Protein.ActiveResidues>
 LYS309  TRP311  MET341  HIS342  TRP414  ALA417  ARG419  CYS420  VAL421  GLY422 
 ARG423  SER462  ALA463  SER482  GLN483  LEU484  ILE485  ARG486  ALA502  TRP566 
 TYR567  LEU569  PRO570  ALA571  VAL572  SER573  ASN574  MET575  PHE589  SER590 
 GLY591  TRP592  TYR593  MET594  GLU597  ILE598  ARG601  ASP602  ASP605  ARG608 
 TRP683  HIS697  GLU699  TYR711  HEM750  H4B760 

> <Gold.Protein.RotatedAtoms>
  189.2517   23.3598   43.2985 H   0  0  0  0  0  0  0  0  0  0  0  0  # atno 552  bound_to 517 
  188.4219   24.5208   42.4558 H   0  0  0  0  0  0  0  0  0  0  0  0  # atno 553  bound_to 517 
  189.8964   23.9963   41.9117 H   0  0  0  0  0  0  0  0  0  0  0  0  # atno 554  bound_to 517 
  197.4431   19.7822   47.0789 H   0  0  0  0  0  0  0  0  0  0  0  0  # atno 2539 bound_to 2515
  197.0039   17.7798   44.3083 H   0  0  0  0  0  0  0  0  0  0  0  0  # atno 2615 bound_to 2585
  196.6424    6.5728   49.8090 H   0  0  0  0  0  0  0  0  0  0  0  0  # atno 7433 bound_to 7405
  194.7670    5.3551   53.6614 H   0  0  0  0  0  0  0  0  0  0  0  0  # atno 7467 bound_to 7446
  195.5782    2.6252   53.7663 H   0  0  0  0  0  0  0  0  0  0  0  0  # atno 7519 bound_to 7507
  188.7774   -4.2358   51.4202 H   0  0  0  0  0  0  0  0  0  0  0  0  # atno 10113 bound_to 10086
  188.3443   -5.2875   47.6286 H   0  0  0  0  0  0  0  0  0  0  0  0  # atno 10149 bound_to 10124
  181.6491   11.5987   42.4015 H   0  0  0  0  0  0  0  0  0  0  0  0  # atno 11428 bound_to 11406
  181.6580    9.2220   43.0601 H   0  0  0  0  0  0  0  0  0  0  0  0  # atno 11483 bound_to 11448
  181.9725    4.8414   43.1915 H   0  0  0  0  0  0  0  0  0  0  0  0  # atno 11550 bound_to 11515
  178.8900    5.4419   44.1106 H   0  0  0  0  0  0  0  0  0  0  0  0  # atno 11626 bound_to 11591
  181.0906    8.2061   49.6176 H   0  0  0  0  0  0  0  0  0  0  0  0  # atno 16984 bound_to 16942
  182.9534    2.8317   48.2775 H   0  0  0  0  0  0  0  0  0  0  0  0  # atno 17188 bound_to 17168
  185.7926    4.3897   46.2894 H   0  0  0  0  0  0  0  0  0  0  0  0  # atno 17240 bound_to 17210
  185.3764    5.0645   42.8668 H   0  0  0  0  0  0  0  0  0  0  0  0  # atno 17296 bound_to 17273
  185.9000    7.3540   40.6540 H   0  0  0  0  0  0  0  0  0  0  0  0  # atno 17349 bound_to 17319
  186.7401    0.3237   41.9276 H   0  0  0  0  0  0  0  0  0  0  0  0  # atno 18232 bound_to 18190
  187.8724   -0.8914   46.0498 H   0  0  0  0  0  0  0  0  0  0  0  0  # atno 18288 bound_to 18265
  184.6916   -2.4400   48.0865 H   0  0  0  0  0  0  0  0  0  0  0  0  # atno 18292 bound_to 18270
  187.4636    0.4629   49.4395 H   0  0  0  0  0  0  0  0  0  0  0  0  # atno 18322 bound_to 18307
  186.4655   -0.5012   52.1267 H   0  0  0  0  0  0  0  0  0  0  0  0  # atno 18397 bound_to 18345
  185.5926    1.2190   56.0142 H   0  0  0  0  0  0  0  0  0  0  0  0  # atno 18484 bound_to 18439
  182.0941    6.8011   51.2453 H   0  0  0  0  0  0  0  0  0  0  0  0  # atno 18492 bound_to 18450
  186.4344    4.8601   56.8007 H   0  0  0  0  0  0  0  0  0  0  0  0  # atno 18560 bound_to 18519
  193.2250   12.2592   45.4768 H   0  0  0  0  0  0  0  0  0  0  0  0  # atno 26073 bound_to 26031
  192.5338   19.2247   52.3990 H   0  0  0  0  0  0  0  0  0  0  0  0  # atno 27148 bound_to 27102
  196.9644   20.0949   50.1025 H   0  0  0  0  0  0  0  0  0  0  0  0  # atno 27149 bound_to 27104
  197.7181   19.9650   45.3645 LP  0  0  0  0  0  0  0  0  0  0  0  0  # atno 27202 bound_to 2515
  196.4638   15.9021   43.6871 LP  0  0  0  0  0  0  0  0  0  0  0  0  # atno 27203 bound_to 2518
  197.3526   15.8345   45.1721 LP  0  0  0  0  0  0  0  0  0  0  0  0  # atno 27204 bound_to 2518
  196.9889   19.3822   43.6149 LP  0  0  0  0  0  0  0  0  0  0  0  0  # atno 27205 bound_to 2585
  194.2380   13.5322   45.4536 LP  0  0  0  0  0  0  0  0  0  0  0  0  # atno 27209 bound_to 26031
  194.8330   12.0115   45.4598 LP  0  0  0  0  0  0  0  0  0  0  0  0  # atno 27210 bound_to 26031
  192.5363   20.4554   51.3349 LP  0  0  0  0  0  0  0  0  0  0  0  0  # atno 27213 bound_to 27102
  193.4703   20.5266   52.6725 LP  0  0  0  0  0  0  0  0  0  0  0  0  # atno 27214 bound_to 27102
  195.7645    7.8223   52.5234 LP  0  0  0  0  0  0  0  0  0  0  0  0  # atno 27224 bound_to 7317
  195.1488    8.6186   51.1139 LP  0  0  0  0  0  0  0  0  0  0  0  0  # atno 27225 bound_to 7317
  197.7040    6.4333   51.1863 LP  0  0  0  0  0  0  0  0  0  0  0  0  # atno 27226 bound_to 7405
  197.7557    3.5474   53.4875 LP  0  0  0  0  0  0  0  0  0  0  0  0  # atno 27227 bound_to 7408
  198.2054    4.3083   51.9979 LP  0  0  0  0  0  0  0  0  0  0  0  0  # atno 27228 bound_to 7408
  196.2696    4.7693   52.9813 LP  0  0  0  0  0  0  0  0  0  0  0  0  # atno 27229 bound_to 7446
  194.5102    3.1633   55.0388 LP  0  0  0  0  0  0  0  0  0  0  0  0  # atno 27230 bound_to 7507
  185.5881    2.5978   49.6012 LP  0  0  0  0  0  0  0  0  0  0  0  0  # atno 27232 bound_to 17117
  185.0698    1.6602   48.2402 LP  0  0  0  0  0  0  0  0  0  0  0  0  # atno 27233 bound_to 17117
  183.4254    4.4469   47.8171 LP  0  0  0  0  0  0  0  0  0  0  0  0  # atno 27234 bound_to 17168
  185.2508    3.4179   44.9359 LP  0  0  0  0  0  0  0  0  0  0  0  0  # atno 27235 bound_to 17210
  186.9029    2.1254   45.9357 LP  0  0  0  0  0  0  0  0  0  0  0  0  # atno 27236 bound_to 18193
  185.6597    1.7382   44.7935 LP  0  0  0  0  0  0  0  0  0  0  0  0  # atno 27237 bound_to 18193
  186.3659   -0.4630   45.2776 LP  0  0  0  0  0  0  0  0  0  0  0  0  # atno 27238 bound_to 18265
  188.4178   -2.3495   48.7248 LP  0  0  0  0  0  0  0  0  0  0  0  0  # atno 27239 bound_to 18268
  187.0150   -2.8312   47.8303 LP  0  0  0  0  0  0  0  0  0  0  0  0  # atno 27240 bound_to 18268
  186.3076   -0.8212   49.1681 LP  0  0  0  0  0  0  0  0  0  0  0  0  # atno 27241 bound_to 18307
  184.6639   -1.5373   52.5126 LP  0  0  0  0  0  0  0  0  0  0  0  0  # atno 27242 bound_to 18310
  184.9710   -1.5220   50.8080 LP  0  0  0  0  0  0  0  0  0  0  0  0  # atno 27243 bound_to 18310
  187.7283   -0.4114   53.3329 LP  0  0  0  0  0  0  0  0  0  0  0  0  # atno 27244 bound_to 18345
  187.4449    2.7799   54.0646 LP  0  0  0  0  0  0  0  0  0  0  0  0  # atno 27245 bound_to 18348
  188.1468    1.3639   54.7732 LP  0  0  0  0  0  0  0  0  0  0  0  0  # atno 27246 bound_to 18348
  184.8723    1.8608   54.5553 LP  0  0  0  0  0  0  0  0  0  0  0  0  # atno 27247 bound_to 18439
  187.6916    3.6446   56.8144 LP  0  0  0  0  0  0  0  0  0  0  0  0  # atno 27248 bound_to 18519
  182.6821    4.9511   45.3638 LP  0  0  0  0  0  0  0  0  0  0  0  0  # atno 27253 bound_to 17171
  183.7098    5.0926   43.9767 LP  0  0  0  0  0  0  0  0  0  0  0  0  # atno 27254 bound_to 17171
  187.0520    3.5431   41.6676 LP  0  0  0  0  0  0  0  0  0  0  0  0  # atno 27255 bound_to 17213
  186.7269    2.9204   43.2508 LP  0  0  0  0  0  0  0  0  0  0  0  0  # atno 27256 bound_to 17213
  179.6525    2.7582   49.0239 LP  0  0  0  0  0  0  0  0  0  0  0  0  # atno 27257 bound_to 17042
  180.9359    3.9115   49.1752 LP  0  0  0  0  0  0  0  0  0  0  0  0  # atno 27258 bound_to 17042
  186.2039    6.4379   42.1772 LP  0  0  0  0  0  0  0  0  0  0  0  0  # atno 27259 bound_to 17273
  182.5572    8.1183   52.0810 LP  0  0  0  0  0  0  0  0  0  0  0  0  # atno 27260 bound_to 18450
  181.0712    7.4819   52.3120 LP  0  0  0  0  0  0  0  0  0  0  0  0  # atno 27261 bound_to 18450
  187.1724    1.7884   42.7807 LP  0  0  0  0  0  0  0  0  0  0  0  0  # atno 27262 bound_to 18190
  185.3488   -2.3206   46.6031 LP  0  0  0  0  0  0  0  0  0  0  0  0  # atno 27263 bound_to 18270
  183.7400   -2.1263   46.8048 LP  0  0  0  0  0  0  0  0  0  0  0  0  # atno 27264 bound_to 18270
  189.9049   -3.3490   50.6513 LP  0  0  0  0  0  0  0  0  0  0  0  0  # atno 27265 bound_to 10086
  190.3387   -4.6926   51.4719 LP  0  0  0  0  0  0  0  0  0  0  0  0  # atno 27266 bound_to 10086
  188.1790   -2.6592   45.5376 LP  0  0  0  0  0  0  0  0  0  0  0  0  # atno 27267 bound_to 10127
  186.7768   -2.6208   44.5216 LP  0  0  0  0  0  0  0  0  0  0  0  0  # atno 27268 bound_to 10127
  184.7582    7.8890   43.5047 LP  0  0  0  0  0  0  0  0  0  0  0  0  # atno 27269 bound_to 11404
  185.2107    8.0956   41.8456 LP  0  0  0  0  0  0  0  0  0  0  0  0  # atno 27270 bound_to 11404
  180.3585    9.3216   50.5486 LP  0  0  0  0  0  0  0  0  0  0  0  0  # atno 27271 bound_to 16942
  179.9118    9.1348   48.9890 LP  0  0  0  0  0  0  0  0  0  0  0  0  # atno 27272 bound_to 16942
  183.0933    8.6062   42.2774 LP  0  0  0  0  0  0  0  0  0  0  0  0  # atno 27273 bound_to 11448
  180.8822    6.0469   43.8356 LP  0  0  0  0  0  0  0  0  0  0  0  0  # atno 27274 bound_to 11515
  178.4669    7.2485   48.2498 LP  0  0  0  0  0  0  0  0  0  0  0  0  # atno 27275 bound_to 11594
  179.6776    7.0228   47.0319 LP  0  0  0  0  0  0  0  0  0  0  0  0  # atno 27276 bound_to 11594
  179.4494    4.4000   45.3974 LP  0  0  0  0  0  0  0  0  0  0  0  0  # atno 27277 bound_to 11591
  182.5486   12.6647   43.2394 LP  0  0  0  0  0  0  0  0  0  0  0  0  # atno 27282 bound_to 11406
  182.4518   11.1101   43.7298 LP  0  0  0  0  0  0  0  0  0  0  0  0  # atno 27283 bound_to 11406
  183.4703   12.0574   55.5413 LP  0  0  0  0  0  0  0  0  0  0  0  0  # atno 27284 bound_to 18675
  185.1503   12.3493   55.2372 LP  0  0  0  0  0  0  0  0  0  0  0  0  # atno 27285 bound_to 18675

> <Gold.Score>
     Fitness  S(hb_ext) S(vdw_ext)  S(hb_int)    S(int)      intcor
     31.55       4.17      20.27       0.00      -0.49      -0.76

> <Gold.Goldscore.Fitness>
31.5490

> <Gold.Goldscore.Internal.Vdw>
-0.5035

> <Gold.Goldscore.Internal.Torsion>
-0.7488

> <Gold.Goldscore.External.Vdw>
20.2688

> <Gold.Goldscore.Internal.HBond>
0.0000

> <Gold.Goldscore.External.HBond>
4.1667

> <Gold.Goldscore.Internal.Correction>
-0.7650

> <Gold.Goldscore.Hbonds>
donor molecule, donor type, donor heavy atom, donor atom, acceptor molecule, acceptor atom, score
      P1  H 19331 19364       L1     9  0.07
      P1  H 11455 11489       L1     9  0.10
      P1  H 19332 19366       L1     9  0.57
      L1  H     8    22       P1 16942  0.07

> <Gold.Goldscore.Internal.Vdw.Weighted>
-0.5035

> <Gold.Goldscore.Internal.Torsion.Weighted>
-0.7488

> <Gold.Goldscore.External.Vdw.Weighted>
27.8695

> <Gold.Goldscore.Internal.HBond.Weighted>
0.0000

> <Gold.Goldscore.External.HBond.Weighted>
4.1667

> <Gold.Goldscore.Internal.Correction.Weighted>
-0.7650

> <Gold.Rescore>
     Score     S(PLP)   S(hbond)     S(cho)   S(metal)  DE(clash)   DE(tors)     intcor
      4.44      -0.74       1.85       0.00       0.00       0.00       0.93       ----

> <Gold.PLP.Fitness>
4.4392

> <Gold.PLP.PLP>
-0.7433

> <Gold.PLP.part.hbond>
-2.7220

> <Gold.PLP.part.metal>
0.0000

> <Gold.PLP.part.buried>
6.1521

> <Gold.PLP.part.nonpolar>
-14.4034

> <Gold.PLP.part.repulsive>
10.7271

> <Gold.PLP.ligand.clash>
0.0000

> <Gold.PLP.ligand.torsion>
0.9339

> <Gold.PLP.Chemscore.Hbond>
1.8546

> <Gold.PLP.Chemscore.CHOScore>
0.0000

> <Gold.PLP.Chemscore.Metal>
0.0000

> <Gold.Chemscore.Hbonds>
donor molecule, donor type, donor heavy atom, donor atom, acceptor molecule, acceptor atom, score
      P1  H 19331 19364       L1     9  0.08
      P1  H 19332 19366       L1     9  0.88

> <Gold.PLP.Chemscore.Internal.Correction>
   9.000000E+99

