#       Name:                CT1002167954
#       Creating user name   hitesit
#       Creation time:       Sun Apr 16 20:21:57 2023


#       File generated by GOLD software.
#

@<TRIPOS>MOLECULE
CT1002167954|ligand_prepared|mol2|1|dock5
    29    30     1
SMALL
NO_CHARGES


@<TRIPOS>ATOM
      1 C1         187.4825   8.0234  48.9822 C.3            1 RES1               0.0000
      2 C2         187.5687   8.7093  47.6034 C.ar           1 RES1               0.0000
      3 C3         187.4754   9.1436  50.0182 C.2            1 RES1               0.0000
      4 C4         186.2087   7.1857  48.9630 C.2            1 RES1               0.0000
      5 C5         188.6699   7.0805  49.2863 C.3            1 RES1               0.0000
      6 C6         188.7765   8.7656  46.9143 C.ar           1 RES1               0.0000
      7 C7         186.4506   9.2867  47.0077 C.ar           1 RES1               0.0000
      8 N8         186.2947   9.4192  50.6427 N.am           1 RES1               0.0000
      9 O9         188.4811   9.8013  50.2550 O.2            1 RES1               0.0000
     10 N10        185.1937   7.5409  49.8122 N.am           1 RES1               0.0000
     11 O11        186.0685   6.2312  48.2082 O.2            1 RES1               0.0000
     12 C12        188.4719   6.2263  50.5286 C.3            1 RES1               0.0000
     13 C13        188.8627   9.3745  45.6733 C.ar           1 RES1               0.0000
     14 C14        186.5391   9.8954  45.7667 C.ar           1 RES1               0.0000
     15 C15        185.1671   8.6382  50.6293 C.2            1 RES1               0.0000
     16 C16        187.7442   9.9393  45.0985 C.ar           1 RES1               0.0000
     17 O17        184.1954   8.9216  51.3240 O.2            1 RES1               0.0000
     18 H18        188.8258   6.4198  48.4246 H              1 RES1               0.0000
     19 H19        189.5767   7.6845  49.4141 H              1 RES1               0.0000
     20 H20        189.6679   8.3287  47.3519 H              1 RES1               0.0000
     21 H21        185.4923   9.2650  47.5155 H              1 RES1               0.0000
     22 H22        186.2456  10.2863  51.1682 H              1 RES1               0.0000
     23 H23        184.3829   6.9308  49.8378 H              1 RES1               0.0000
     24 H24        189.3336   5.5836  50.6962 H              1 RES1               0.0000
     25 H25        188.3389   6.8512  51.4093 H              1 RES1               0.0000
     26 H26        187.5925   5.5940  50.4257 H              1 RES1               0.0000
     27 H27        189.8138   9.4076  45.1521 H              1 RES1               0.0000
     28 H28        185.6563  10.3392  45.3183 H              1 RES1               0.0000
     29 H29        187.8120  10.4159  44.1261 H              1 RES1               0.0000
@<TRIPOS>BOND
    1    1    2 1     
    2    1    3 1     
    3    1    4 1     
    4    1    5 1     
    5    2    6 ar    
    6    2    7 ar    
    7    3    8 1     
    8    3    9 2     
    9    4   10 1     
   10    4   11 2     
   11    5   12 1     
   12    5   18 1     
   13    5   19 1     
   14    6   13 ar    
   15    6   20 1     
   16    7   14 ar    
   17    7   21 1     
   18    8   15 1     
   19    8   22 1     
   20   10   15 1     
   21   10   23 1     
   22   12   24 1     
   23   12   25 1     
   24   12   26 1     
   25   13   16 ar    
   26   13   27 1     
   27   14   16 ar    
   28   14   28 1     
   29   15   17 2     
   30   16   29 1     
@<TRIPOS>SUBSTRUCTURE
      1 RES1           1
@<TRIPOS>SET
DONOR_HYDROGENS      STATIC     ATOMS    <user>   **** ""
2 22 23
ATOM$RED        STATIC     ATOMS    COLORGROUP SYSTEM
2 22 23
@<TRIPOS>COMMENT
> <Gold.Version>
2022.3.0

> <Gold.Id.Protein>
unknown|4v3u_clean|pdb

> <Gold.Protein.RotatedTorsions>
[  552  517  516  515 ] final  112.25 input   59.99 | X-H torsion
[ 2539 2515 2516 2517 ] final  101.54 input  113.65 | X-H torsion
[ 2615 2585 2586 2587 ] final -139.32 input   46.31 | X-H torsion
[ 26073 26031 26030 26028 ] final    4.11 input   59.98 | X-H torsion
[ 27148 27102 27101 27097 ] final -177.21 input   60.00 | X-H torsion
[ 7433 7405 7406 7407 ] final  -82.89 input   81.33 | X-H torsion
[ 7467 7446 7447 7448 ] final -179.47 input   92.53 | X-H torsion
[ 7519 7507 7508 7509 ] final -175.98 input   89.47 | X-H torsion
[ 17188 17168 17169 17170 ] final  -11.63 input   55.70 | X-H torsion
[ 17240 17210 17211 17212 ] final -168.67 input  101.26 | X-H torsion
[ 18288 18265 18266 18267 ] final  158.14 input   32.88 | X-H torsion
[ 18322 18307 18308 18309 ] final -150.45 input   53.35 | X-H torsion
[ 18397 18345 18346 18347 ] final -137.97 input   36.30 | X-H torsion
[ 18484 18439 18440 18441 ] final   80.09 input   98.15 | X-H torsion
[ 18560 18519 18520 18521 ] final -101.64 input   94.34 | X-H torsion
[ 17296 17273 17274 17275 ] final   66.87 input   50.38 | X-H torsion
[ 18492 18450 18449 18447 ] final  -76.75 input   59.99 | X-H torsion
[ 18232 18190 18191 18192 ] final   -7.85 input   49.82 | X-H torsion
[ 18292 18270 18269 18266 ] final   37.42 input   60.01 | X-H torsion
[ 10113 10086 10085 10082 ] final  -45.61 input   60.00 | X-H torsion
[ 16984 16942 16941 16939 ] final -139.39 input   60.00 | X-H torsion
[ 11483 11448 11449 11450 ] final -133.95 input   47.08 | X-H torsion
[ 11550 11515 11516 11517 ] final  112.93 input  121.60 | X-H torsion
[ 11626 11591 11592 11593 ] final -176.28 input   57.19 | X-H torsion
[ 11428 11406 11405 11402 ] final  116.64 input   60.00 | X-H torsion
[ 27149 27104 27103 27101 ] final   76.67 input   60.02 | X-H torsion
[ 10149 10124 10125 10126 ] final   41.57 input   16.22 | X-H torsion
[ 17349 17319 17320 17321 ] final -179.24 input   65.41 | X-H torsion
[ 27203 2518 2517 2516 ] final  150.24 input    0.00 | X-H torsion
[ 27224 7317 7316 7315 ] final   96.71 input    0.00 | X-H torsion
[ 27227 7408 7407 7406 ] final  141.63 input   -0.00 | X-H torsion
[ 27232 17117 17116 17115 ] final  164.02 input    0.00 | X-H torsion
[ 27236 18193 18192 18191 ] final  161.68 input    0.00 | X-H torsion
[ 27239 18268 18267 18266 ] final  107.83 input    0.00 | X-H torsion
[ 27242 18310 18309 18308 ] final   -8.99 input   -0.00 | X-H torsion
[ 27245 18348 18347 18346 ] final   40.35 input    0.00 | X-H torsion
[ 27253 17171 17170 17169 ] final  -49.94 input   -0.00 | X-H torsion
[ 27255 17213 17212 17211 ] final   61.53 input    0.00 | X-H torsion
[ 27257 17042 17041 17040 ] final   94.22 input    0.00 | X-H torsion
[ 27267 10127 10126 10125 ] final -166.72 input   -0.00 | X-H torsion
[ 27269 11404 11403 11402 ] final  -64.35 input    0.00 | X-H torsion
[ 27275 11594 11593 11592 ] final  111.52 input   -0.00 | X-H torsion
[ 27284 18675 18674 18673 ] final   98.86 input    0.00 | X-H torsion

> <Gold.Protein.ActiveResidues>
 LYS309  TRP311  MET341  HIS342  TRP414  ALA417  ARG419  CYS420  VAL421  GLY422 
 ARG423  SER462  ALA463  SER482  GLN483  LEU484  ILE485  ARG486  ALA502  TRP566 
 TYR567  LEU569  PRO570  ALA571  VAL572  SER573  ASN574  MET575  PHE589  SER590 
 GLY591  TRP592  TYR593  MET594  GLU597  ILE598  ARG601  ASP602  ASP605  ARG608 
 TRP683  HIS697  GLU699  TYR711  HEM750  H4B760 

> <Gold.Protein.RotatedAtoms>
  188.6137   23.7676   43.2943 H   0  0  0  0  0  0  0  0  0  0  0  0  # atno 552  bound_to 517 
  188.9334   24.6120   41.9046 H   0  0  0  0  0  0  0  0  0  0  0  0  # atno 553  bound_to 517 
  190.0230   23.4975   42.4667 H   0  0  0  0  0  0  0  0  0  0  0  0  # atno 554  bound_to 517 
  196.9087   20.3845   45.9643 H   0  0  0  0  0  0  0  0  0  0  0  0  # atno 2539 bound_to 2515
  196.8309   17.7795   44.2659 H   0  0  0  0  0  0  0  0  0  0  0  0  # atno 2615 bound_to 2585
  196.9105    7.1669   51.0108 H   0  0  0  0  0  0  0  0  0  0  0  0  # atno 7433 bound_to 7405
  195.8785    5.8589   53.4809 H   0  0  0  0  0  0  0  0  0  0  0  0  # atno 7467 bound_to 7446
  194.3829    3.1895   54.9188 H   0  0  0  0  0  0  0  0  0  0  0  0  # atno 7519 bound_to 7507
  189.0981   -3.4370   50.8383 H   0  0  0  0  0  0  0  0  0  0  0  0  # atno 10113 bound_to 10086
  187.2735   -3.9686   47.2530 H   0  0  0  0  0  0  0  0  0  0  0  0  # atno 10149 bound_to 10124
  182.7518   11.7564   43.8878 H   0  0  0  0  0  0  0  0  0  0  0  0  # atno 11428 bound_to 11406
  183.2408    8.7447   42.5298 H   0  0  0  0  0  0  0  0  0  0  0  0  # atno 11483 bound_to 11448
  181.8114    4.7421   43.8740 H   0  0  0  0  0  0  0  0  0  0  0  0  # atno 11550 bound_to 11515
  178.7469    4.1716   44.5438 H   0  0  0  0  0  0  0  0  0  0  0  0  # atno 11626 bound_to 11591
  180.8286    8.2675   49.1231 H   0  0  0  0  0  0  0  0  0  0  0  0  # atno 16984 bound_to 16942
  183.4706    4.4533   47.8447 H   0  0  0  0  0  0  0  0  0  0  0  0  # atno 17188 bound_to 17168
  185.5351    4.5038   46.2520 H   0  0  0  0  0  0  0  0  0  0  0  0  # atno 17240 bound_to 17210
  185.2760    6.4610   42.4157 H   0  0  0  0  0  0  0  0  0  0  0  0  # atno 17296 bound_to 17273
  185.5931    6.9796   40.1528 H   0  0  0  0  0  0  0  0  0  0  0  0  # atno 17349 bound_to 17319
  186.3388    1.3984   42.9019 H   0  0  0  0  0  0  0  0  0  0  0  0  # atno 18232 bound_to 18190
  186.3700   -0.4112   45.2650 H   0  0  0  0  0  0  0  0  0  0  0  0  # atno 18288 bound_to 18265
  185.3487   -2.4743   47.6904 H   0  0  0  0  0  0  0  0  0  0  0  0  # atno 18292 bound_to 18270
  187.3562   -0.7511   48.8113 H   0  0  0  0  0  0  0  0  0  0  0  0  # atno 18322 bound_to 18307
  186.4505   -0.7038   52.1951 H   0  0  0  0  0  0  0  0  0  0  0  0  # atno 18397 bound_to 18345
  184.6014    1.4057   55.8874 H   0  0  0  0  0  0  0  0  0  0  0  0  # atno 18484 bound_to 18439
  181.7595    8.1426   52.5075 H   0  0  0  0  0  0  0  0  0  0  0  0  # atno 18492 bound_to 18450
  186.7606    3.5459   57.2563 H   0  0  0  0  0  0  0  0  0  0  0  0  # atno 18560 bound_to 18519
  193.2607   12.1793   45.4771 H   0  0  0  0  0  0  0  0  0  0  0  0  # atno 26073 bound_to 26031
  192.9644   20.8458   51.6310 H   0  0  0  0  0  0  0  0  0  0  0  0  # atno 27148 bound_to 27102
  196.4640   19.6378   49.7566 H   0  0  0  0  0  0  0  0  0  0  0  0  # atno 27149 bound_to 27104
  198.2431   19.3733   46.4594 LP  0  0  0  0  0  0  0  0  0  0  0  0  # atno 27202 bound_to 2515
  196.6764   15.9149   43.5965 LP  0  0  0  0  0  0  0  0  0  0  0  0  # atno 27203 bound_to 2518
  197.1399   15.8217   45.2628 LP  0  0  0  0  0  0  0  0  0  0  0  0  # atno 27204 bound_to 2518
  197.1586   19.3826   43.6565 LP  0  0  0  0  0  0  0  0  0  0  0  0  # atno 27205 bound_to 2585
  194.1504   13.5413   45.4547 LP  0  0  0  0  0  0  0  0  0  0  0  0  # atno 27209 bound_to 26031
  194.8847   12.0828   45.4584 LP  0  0  0  0  0  0  0  0  0  0  0  0  # atno 27210 bound_to 26031
  193.3179   19.9528   52.9444 LP  0  0  0  0  0  0  0  0  0  0  0  0  # atno 27213 bound_to 27102
  192.2549   19.3962   51.8367 LP  0  0  0  0  0  0  0  0  0  0  0  0  # atno 27214 bound_to 27102
  194.9089    8.1388   51.1529 LP  0  0  0  0  0  0  0  0  0  0  0  0  # atno 27224 bound_to 7317
  196.0045    8.3022   52.4844 LP  0  0  0  0  0  0  0  0  0  0  0  0  # atno 27225 bound_to 7317
  197.4393    5.8469   50.0001 LP  0  0  0  0  0  0  0  0  0  0  0  0  # atno 27226 bound_to 7405
  198.1529    4.2978   53.5066 LP  0  0  0  0  0  0  0  0  0  0  0  0  # atno 27227 bound_to 7408
  197.8082    3.5580   51.9789 LP  0  0  0  0  0  0  0  0  0  0  0  0  # atno 27228 bound_to 7408
  195.1931    4.2815   53.1561 LP  0  0  0  0  0  0  0  0  0  0  0  0  # atno 27229 bound_to 7446
  195.6833    2.6096   53.9078 LP  0  0  0  0  0  0  0  0  0  0  0  0  # atno 27230 bound_to 7507
  185.2541    1.9104   48.0861 LP  0  0  0  0  0  0  0  0  0  0  0  0  # atno 27232 bound_to 17117
  185.4038    2.3477   49.7553 LP  0  0  0  0  0  0  0  0  0  0  0  0  # atno 27233 bound_to 17117
  182.9155    2.8482   48.2438 LP  0  0  0  0  0  0  0  0  0  0  0  0  # atno 27234 bound_to 17168
  185.4984    3.3081   44.9718 LP  0  0  0  0  0  0  0  0  0  0  0  0  # atno 27235 bound_to 17210
  185.8068    1.6403   46.0278 LP  0  0  0  0  0  0  0  0  0  0  0  0  # atno 27236 bound_to 18193
  186.7559    2.2233   44.7014 LP  0  0  0  0  0  0  0  0  0  0  0  0  # atno 27237 bound_to 18193
  187.8406   -0.9344   46.0479 LP  0  0  0  0  0  0  0  0  0  0  0  0  # atno 27238 bound_to 18265
  188.5075   -2.2434   48.3388 LP  0  0  0  0  0  0  0  0  0  0  0  0  # atno 27239 bound_to 18268
  186.9253   -2.9372   48.2162 LP  0  0  0  0  0  0  0  0  0  0  0  0  # atno 27240 bound_to 18268
  186.4120    0.3587   49.7787 LP  0  0  0  0  0  0  0  0  0  0  0  0  # atno 27241 bound_to 18307
  185.0270   -1.6846   50.8344 LP  0  0  0  0  0  0  0  0  0  0  0  0  # atno 27242 bound_to 18310
  184.6079   -1.3747   52.4862 LP  0  0  0  0  0  0  0  0  0  0  0  0  # atno 27243 bound_to 18310
  187.7428   -0.2142   53.2664 LP  0  0  0  0  0  0  0  0  0  0  0  0  # atno 27244 bound_to 18345
  187.7587    1.8224   53.5904 LP  0  0  0  0  0  0  0  0  0  0  0  0  # atno 27245 bound_to 18348
  187.8331    2.3214   55.2474 LP  0  0  0  0  0  0  0  0  0  0  0  0  # atno 27246 bound_to 18348
  185.8356    1.6794   54.6786 LP  0  0  0  0  0  0  0  0  0  0  0  0  # atno 27247 bound_to 18439
  187.3743    4.9234   56.3710 LP  0  0  0  0  0  0  0  0  0  0  0  0  # atno 27248 bound_to 18519
  182.7964    4.2995   44.4083 LP  0  0  0  0  0  0  0  0  0  0  0  0  # atno 27253 bound_to 17171
  183.5955    5.7442   44.9323 LP  0  0  0  0  0  0  0  0  0  0  0  0  # atno 27254 bound_to 17171
  186.3273    2.8304   42.9816 LP  0  0  0  0  0  0  0  0  0  0  0  0  # atno 27255 bound_to 17213
  187.4516    3.6331   41.9367 LP  0  0  0  0  0  0  0  0  0  0  0  0  # atno 27256 bound_to 17213
  180.0664    3.8674   49.7434 LP  0  0  0  0  0  0  0  0  0  0  0  0  # atno 27257 bound_to 17042
  180.5219    2.8023   48.4557 LP  0  0  0  0  0  0  0  0  0  0  0  0  # atno 27258 bound_to 17042
  186.3027    5.0646   42.6208 LP  0  0  0  0  0  0  0  0  0  0  0  0  # atno 27259 bound_to 17273
  181.2335    6.8314   51.7000 LP  0  0  0  0  0  0  0  0  0  0  0  0  # atno 27260 bound_to 18450
  182.7318    7.4182   51.4223 LP  0  0  0  0  0  0  0  0  0  0  0  0  # atno 27261 bound_to 18450
  187.5618    0.7455   41.8352 LP  0  0  0  0  0  0  0  0  0  0  0  0  # atno 27262 bound_to 18190
  184.6831   -2.1754   46.2363 LP  0  0  0  0  0  0  0  0  0  0  0  0  # atno 27263 bound_to 18270
  183.7437   -2.2370   47.5706 LP  0  0  0  0  0  0  0  0  0  0  0  0  # atno 27264 bound_to 18270
  190.5966   -4.0502   51.0040 LP  0  0  0  0  0  0  0  0  0  0  0  0  # atno 27265 bound_to 10086
  189.3241   -4.7958   51.7051 LP  0  0  0  0  0  0  0  0  0  0  0  0  # atno 27266 bound_to 10086
  187.5034   -2.4379   44.1879 LP  0  0  0  0  0  0  0  0  0  0  0  0  # atno 27267 bound_to 10127
  187.4523   -2.8421   45.8714 LP  0  0  0  0  0  0  0  0  0  0  0  0  # atno 27268 bound_to 10127
  185.0062    7.7389   41.8473 LP  0  0  0  0  0  0  0  0  0  0  0  0  # atno 27269 bound_to 11404
  184.9627    8.2457   43.5030 LP  0  0  0  0  0  0  0  0  0  0  0  0  # atno 27270 bound_to 11404
  180.7686    8.9340   50.6061 LP  0  0  0  0  0  0  0  0  0  0  0  0  # atno 27271 bound_to 16942
  179.7657    9.4605   49.4298 LP  0  0  0  0  0  0  0  0  0  0  0  0  # atno 27272 bound_to 16942
  181.5457    9.0728   42.7960 LP  0  0  0  0  0  0  0  0  0  0  0  0  # atno 27273 bound_to 11448
  181.0392    6.1438   43.1700 LP  0  0  0  0  0  0  0  0  0  0  0  0  # atno 27274 bound_to 11515
  179.5006    7.6275   47.0711 LP  0  0  0  0  0  0  0  0  0  0  0  0  # atno 27275 bound_to 11594
  178.6440    6.6438   48.2107 LP  0  0  0  0  0  0  0  0  0  0  0  0  # atno 27276 bound_to 11594
  179.5893    5.6412   44.9741 LP  0  0  0  0  0  0  0  0  0  0  0  0  # atno 27277 bound_to 11591
  181.7758   11.0134   42.8187 LP  0  0  0  0  0  0  0  0  0  0  0  0  # atno 27282 bound_to 11406
  182.1136   12.6025   42.6531 LP  0  0  0  0  0  0  0  0  0  0  0  0  # atno 27283 bound_to 11406
  183.9877   11.6744   54.7841 LP  0  0  0  0  0  0  0  0  0  0  0  0  # atno 27284 bound_to 18675
  184.6329   12.7323   55.9944 LP  0  0  0  0  0  0  0  0  0  0  0  0  # atno 27285 bound_to 18675

> <Gold.Score>
     Fitness  S(hb_ext) S(vdw_ext)  S(hb_int)    S(int)      intcor
     31.96       0.20      23.50       0.00      -0.56      -0.76

> <Gold.Goldscore.Fitness>
31.9599

> <Gold.Goldscore.Internal.Vdw>
-0.8031

> <Gold.Goldscore.Internal.Torsion>
-0.5183

> <Gold.Goldscore.External.Vdw>
23.5031

> <Gold.Goldscore.Internal.HBond>
0.0000

> <Gold.Goldscore.External.HBond>
0.1996

> <Gold.Goldscore.Internal.Correction>
-0.7650

> <Gold.Goldscore.Hbonds>
donor molecule, donor type, donor heavy atom, donor atom, acceptor molecule, acceptor atom, score
      P1  H 17210 17240       L1    11  0.10

> <Gold.Goldscore.Internal.Vdw.Weighted>
-0.8031

> <Gold.Goldscore.Internal.Torsion.Weighted>
-0.5183

> <Gold.Goldscore.External.Vdw.Weighted>
32.3167

> <Gold.Goldscore.Internal.HBond.Weighted>
0.0000

> <Gold.Goldscore.External.HBond.Weighted>
0.1996

> <Gold.Goldscore.Internal.Correction.Weighted>
-0.7650

> <Gold.Rescore>
     Score     S(PLP)   S(hbond)     S(cho)   S(metal)  DE(clash)   DE(tors)     intcor
     10.01     -11.16       0.20       0.00       0.00       0.00       0.88       ----

> <Gold.PLP.Fitness>
10.0137

> <Gold.PLP.PLP>
-11.1571

> <Gold.PLP.part.hbond>
-1.7207

> <Gold.PLP.part.metal>
0.0000

> <Gold.PLP.part.buried>
10.5935

> <Gold.PLP.part.nonpolar>
-25.7448

> <Gold.PLP.part.repulsive>
5.0093

> <Gold.PLP.ligand.clash>
0.0000

> <Gold.PLP.ligand.torsion>
0.8759

> <Gold.PLP.Chemscore.Hbond>
0.2028

> <Gold.PLP.Chemscore.CHOScore>
0.0000

> <Gold.PLP.Chemscore.Metal>
0.0000

> <Gold.PLP.Chemscore.Internal.Correction>
   9.000000E+99

