#       Name:                GA Fitting Points
#       Creating user name   hitesit
#       Creation time:       Sun Apr 16 02:22:23 2023


#       Fitting Points Used by GA Software.
#

@<TRIPOS>MOLECULE
GA Fitting Points
 53892    0    0
SMALL
NO_CHARGES


@<TRIPOS>ATOM
      1 ****        92.2500 147.5000 124.7500 Du        
      2 ****        92.2500 147.5000 125.0000 Du        
      3 ****        92.2500 147.7500 124.7500 Du        
      4 ****        92.2500 147.7500 125.0000 Du        
      5 ****        92.2500 148.0000 123.7500 Du        
      6 ****        92.2500 148.0000 124.0000 Du        
      7 ****        92.2500 148.0000 124.2500 Du        
      8 ****        92.2500 148.0000 124.5000 Du        
      9 ****        92.2500 148.0000 124.7500 Du        
     10 ****        92.2500 148.0000 125.0000 Du        
     11 ****        92.2500 148.2500 123.7500 Du        
     12 ****        92.2500 148.2500 124.0000 Du        
     13 ****        92.2500 148.2500 124.2500 Du        
     14 ****        92.2500 148.2500 124.5000 Du        
     15 ****        92.2500 148.2500 124.7500 Du        
     16 ****        92.2500 148.2500 125.0000 Du        
     17 ****        92.2500 148.5000 124.2500 Du        
     18 ****        92.2500 148.5000 124.5000 Du        
     19 ****        92.2500 148.5000 124.7500 Du        
     20 ****        92.2500 148.7500 124.2500 Du        
     21 ****        92.2500 148.7500 124.5000 Du        
     22 ****        92.2500 151.0000 123.2500 Du        
     23 ****        92.2500 151.0000 123.5000 Du        
     24 ****        92.2500 151.2500 122.7500 Du        
     25 ****        92.2500 151.2500 123.0000 Du        
     26 ****        92.2500 151.2500 123.2500 Du        
     27 ****        92.2500 151.2500 123.5000 Du        
     28 ****        92.2500 151.5000 122.7500 Du        
     29 ****        92.2500 151.5000 123.0000 Du        
     30 ****        92.2500 151.5000 123.2500 Du        
     31 ****        92.2500 151.5000 123.5000 Du        
     32 ****        92.2500 151.7500 122.7500 Du        
     33 ****        92.2500 151.7500 123.0000 Du        
     34 ****        92.2500 151.7500 123.2500 Du        
     35 ****        92.2500 151.7500 123.5000 Du        
     36 ****        92.2500 151.7500 123.7500 Du        
     37 ****        92.2500 152.0000 122.7500 Du        
     38 ****        92.2500 152.0000 123.0000 Du        
     39 ****        92.2500 152.0000 123.2500 Du        
     40 ****        92.2500 152.0000 123.5000 Du        
     41 ****        92.2500 152.0000 123.7500 Du        
     42 ****        92.2500 152.2500 122.7500 Du        
     43 ****        92.2500 152.2500 123.0000 Du        
     44 ****        92.2500 152.2500 123.2500 Du        
     45 ****        92.2500 152.2500 123.5000 Du        
     46 ****        92.2500 152.5000 123.0000 Du        
     47 ****        92.2500 152.5000 123.2500 Du        
     48 ****        92.5000 147.5000 124.7500 Du        
     49 ****        92.5000 147.5000 125.0000 Du        
     50 ****        92.5000 147.7500 124.7500 Du        
     51 ****        92.5000 147.7500 125.0000 Du        
     52 ****        92.5000 148.0000 123.7500 Du        
     53 ****        92.5000 148.0000 124.0000 Du        
     54 ****        92.5000 148.0000 124.2500 Du        
     55 ****        92.5000 148.0000 124.5000 Du        
     56 ****        92.5000 148.0000 124.7500 Du        
     57 ****        92.5000 148.0000 125.0000 Du        
     58 ****        92.5000 148.2500 124.0000 Du        
     59 ****        92.5000 148.2500 124.2500 Du        
     60 ****        92.5000 148.2500 124.5000 Du        
     61 ****        92.5000 148.2500 124.7500 Du        
     62 ****        92.5000 148.5000 124.2500 Du        
     63 ****        92.5000 148.5000 124.5000 Du        
     64 ****        92.5000 151.2500 123.0000 Du        
     65 ****        92.5000 151.2500 123.2500 Du        
     66 ****        92.5000 151.5000 122.7500 Du        
     67 ****        92.5000 151.5000 123.0000 Du        
     68 ****        92.5000 151.5000 123.2500 Du        
     69 ****        92.5000 151.5000 123.5000 Du        
     70 ****        92.5000 151.5000 123.7500 Du        
     71 ****        92.5000 151.7500 122.7500 Du        
     72 ****        92.5000 151.7500 123.0000 Du        
     73 ****        92.5000 151.7500 123.2500 Du        
     74 ****        92.5000 151.7500 123.5000 Du        
     75 ****        92.5000 151.7500 123.7500 Du        
     76 ****        92.5000 152.0000 122.7500 Du        
     77 ****        92.5000 152.0000 123.0000 Du        
     78 ****        92.5000 152.0000 123.2500 Du        
     79 ****        92.5000 152.0000 123.5000 Du        
     80 ****        92.5000 152.0000 123.7500 Du        
     81 ****        92.5000 152.2500 122.7500 Du        
     82 ****        92.5000 152.2500 123.0000 Du        
     83 ****        92.5000 152.2500 123.2500 Du        
     84 ****        92.5000 152.2500 123.5000 Du        
     85 ****        92.5000 152.5000 122.7500 Du        
     86 ****        92.5000 152.5000 123.0000 Du        
     87 ****        92.5000 152.5000 123.2500 Du        
     88 ****        92.7500 145.5000 123.7500 Du        
     89 ****        92.7500 145.5000 124.0000 Du        
     90 ****        92.7500 145.7500 123.7500 Du        
     91 ****        92.7500 145.7500 124.0000 Du        
     92 ****        92.7500 145.7500 124.2500 Du        
     93 ****        92.7500 146.0000 122.7500 Du        
     94 ****        92.7500 146.0000 123.0000 Du        
     95 ****        92.7500 146.0000 123.2500 Du        
     96 ****        92.7500 146.0000 123.5000 Du        
     97 ****        92.7500 146.0000 123.7500 Du        
     98 ****        92.7500 146.0000 124.0000 Du        
     99 ****        92.7500 146.0000 124.2500 Du        
    100 ****        92.7500 146.0000 124.5000 Du        
    101 ****        92.7500 146.2500 122.7500 Du        
    102 ****        92.7500 146.2500 123.0000 Du        
    103 ****        92.7500 146.2500 123.2500 Du        
    104 ****        92.7500 146.2500 123.5000 Du        
    105 ****        92.7500 146.2500 123.7500 Du        
    106 ****        92.7500 146.2500 124.0000 Du        
    107 ****        92.7500 146.2500 124.2500 Du        
    108 ****        92.7500 146.2500 124.5000 Du        
    109 ****        92.7500 146.5000 122.5000 Du        
    110 ****        92.7500 146.5000 122.7500 Du        
    111 ****        92.7500 146.5000 123.0000 Du        
    112 ****        92.7500 146.5000 123.2500 Du        
    113 ****        92.7500 146.5000 123.5000 Du        
    114 ****        92.7500 146.5000 123.7500 Du        
    115 ****        92.7500 146.5000 124.0000 Du        
    116 ****        92.7500 146.5000 124.2500 Du        
    117 ****        92.7500 146.5000 124.5000 Du        
    118 ****        92.7500 146.5000 124.7500 Du        
    119 ****        92.7500 146.7500 122.5000 Du        
    120 ****        92.7500 146.7500 122.7500 Du        
    121 ****        92.7500 146.7500 123.0000 Du        
    122 ****        92.7500 146.7500 123.2500 Du        
    123 ****        92.7500 146.7500 123.5000 Du        
    124 ****        92.7500 146.7500 123.7500 Du        
    125 ****        92.7500 146.7500 124.0000 Du        
    126 ****        92.7500 146.7500 124.2500 Du        
    127 ****        92.7500 146.7500 124.5000 Du        
    128 ****        92.7500 146.7500 124.7500 Du        
    129 ****        92.7500 147.0000 122.5000 Du        
    130 ****        92.7500 147.0000 122.7500 Du        
    131 ****        92.7500 147.0000 123.0000 Du        
    132 ****        92.7500 147.0000 123.2500 Du        
    133 ****        92.7500 147.0000 123.5000 Du        
    134 ****        92.7500 147.0000 123.7500 Du        
    135 ****        92.7500 147.0000 124.0000 Du        
    136 ****        92.7500 147.0000 124.2500 Du        
    137 ****        92.7500 147.0000 124.5000 Du        
    138 ****        92.7500 147.0000 124.7500 Du        
    139 ****        92.7500 147.0000 125.0000 Du        
    140 ****        92.7500 147.2500 122.5000 Du        
    141 ****        92.7500 147.2500 122.7500 Du        
    142 ****        92.7500 147.2500 123.0000 Du        
    143 ****        92.7500 147.2500 123.2500 Du        
    144 ****        92.7500 147.2500 123.5000 Du        
    145 ****        92.7500 147.2500 123.7500 Du        
    146 ****        92.7500 147.2500 124.0000 Du        
    147 ****        92.7500 147.2500 124.2500 Du        
    148 ****        92.7500 147.2500 124.5000 Du        
    149 ****        92.7500 147.2500 124.7500 Du        
    150 ****        92.7500 147.2500 125.0000 Du        
    151 ****        92.7500 147.5000 123.0000 Du        
    152 ****        92.7500 147.5000 123.2500 Du        
    153 ****        92.7500 147.5000 123.5000 Du        
    154 ****        92.7500 147.5000 123.7500 Du        
    155 ****        92.7500 147.5000 124.0000 Du        
    156 ****        92.7500 147.5000 124.2500 Du        
    157 ****        92.7500 147.5000 124.5000 Du        
    158 ****        92.7500 147.5000 124.7500 Du        
    159 ****        92.7500 147.5000 125.0000 Du        
    160 ****        92.7500 147.7500 123.2500 Du        
    161 ****        92.7500 147.7500 123.5000 Du        
    162 ****        92.7500 147.7500 123.7500 Du        
    163 ****        92.7500 147.7500 124.0000 Du        
    164 ****        92.7500 147.7500 124.2500 Du        
    165 ****        92.7500 147.7500 124.5000 Du        
    166 ****        92.7500 147.7500 124.7500 Du        
    167 ****        92.7500 147.7500 125.0000 Du        
    168 ****        92.7500 148.0000 123.7500 Du        
    169 ****        92.7500 148.0000 124.0000 Du        
    170 ****        92.7500 148.0000 124.2500 Du        
    171 ****        92.7500 148.0000 124.5000 Du        
    172 ****        92.7500 148.0000 124.7500 Du        
    173 ****        92.7500 148.0000 125.0000 Du        
    174 ****        92.7500 148.2500 123.7500 Du        
    175 ****        92.7500 148.2500 124.0000 Du        
    176 ****        92.7500 148.2500 124.2500 Du        
    177 ****        92.7500 148.2500 124.5000 Du        
    178 ****        92.7500 148.2500 124.7500 Du        
    179 ****        92.7500 148.5000 124.5000 Du        
    180 ****        92.7500 151.2500 123.0000 Du        
    181 ****        92.7500 151.2500 123.2500 Du        
    182 ****        92.7500 151.5000 122.5000 Du        
    183 ****        92.7500 151.5000 122.7500 Du        
    184 ****        92.7500 151.5000 123.0000 Du        
    185 ****        92.7500 151.5000 123.2500 Du        
    186 ****        92.7500 151.5000 123.5000 Du        
    187 ****        92.7500 151.7500 121.2500 Du        
    188 ****        92.7500 151.7500 121.5000 Du        
    189 ****        92.7500 151.7500 121.7500 Du        
    190 ****        92.7500 151.7500 122.0000 Du        
    191 ****        92.7500 151.7500 122.2500 Du        
    192 ****        92.7500 151.7500 122.5000 Du        
    193 ****        92.7500 151.7500 122.7500 Du        
    194 ****        92.7500 151.7500 123.0000 Du        
    195 ****        92.7500 151.7500 123.2500 Du        
    196 ****        92.7500 151.7500 123.5000 Du        
    197 ****        92.7500 151.7500 123.7500 Du        
    198 ****        92.7500 152.0000 120.5000 Du        
    199 ****        92.7500 152.0000 120.7500 Du        
    200 ****        92.7500 152.0000 121.0000 Du        
    201 ****        92.7500 152.0000 121.2500 Du        
    202 ****        92.7500 152.0000 121.5000 Du        
    203 ****        92.7500 152.0000 121.7500 Du        
    204 ****        92.7500 152.0000 122.0000 Du        
    205 ****        92.7500 152.0000 122.2500 Du        
    206 ****        92.7500 152.0000 122.5000 Du        
    207 ****        92.7500 152.0000 122.7500 Du        
    208 ****        92.7500 152.0000 123.0000 Du        
    209 ****        92.7500 152.0000 123.2500 Du        
    210 ****        92.7500 152.0000 123.5000 Du        
    211 ****        92.7500 152.0000 123.7500 Du        
    212 ****        92.7500 152.2500 120.2500 Du        
    213 ****        92.7500 152.2500 120.5000 Du        
    214 ****        92.7500 152.2500 120.7500 Du        
    215 ****        92.7500 152.2500 121.0000 Du        
    216 ****        92.7500 152.2500 121.2500 Du        
    217 ****        92.7500 152.2500 121.5000 Du        
    218 ****        92.7500 152.2500 121.7500 Du        
    219 ****        92.7500 152.2500 122.0000 Du        
    220 ****        92.7500 152.2500 122.2500 Du        
    221 ****        92.7500 152.2500 122.5000 Du        
    222 ****        92.7500 152.2500 122.7500 Du        
    223 ****        92.7500 152.2500 123.0000 Du        
    224 ****        92.7500 152.2500 123.2500 Du        
    225 ****        92.7500 152.2500 123.5000 Du        
    226 ****        92.7500 152.5000 120.2500 Du        
    227 ****        92.7500 152.5000 120.5000 Du        
    228 ****        92.7500 152.5000 120.7500 Du        
    229 ****        92.7500 152.5000 121.0000 Du        
    230 ****        92.7500 152.5000 121.2500 Du        
    231 ****        92.7500 152.5000 121.5000 Du        
    232 ****        92.7500 152.5000 121.7500 Du        
    233 ****        92.7500 152.5000 122.0000 Du        
    234 ****        92.7500 152.5000 122.2500 Du        
    235 ****        92.7500 152.5000 122.5000 Du        
    236 ****        92.7500 152.5000 122.7500 Du        
    237 ****        92.7500 152.5000 123.0000 Du        
    238 ****        92.7500 152.5000 123.2500 Du        
    239 ****        93.0000 145.7500 123.7500 Du        
    240 ****        93.0000 146.0000 123.0000 Du        
    241 ****        93.0000 146.0000 123.2500 Du        
    242 ****        93.0000 146.0000 123.5000 Du        
    243 ****        93.0000 146.0000 123.7500 Du        
    244 ****        93.0000 146.0000 124.0000 Du        
    245 ****        93.0000 146.2500 122.7500 Du        
    246 ****        93.0000 146.2500 123.0000 Du        
    247 ****        93.0000 146.2500 123.2500 Du        
    248 ****        93.0000 146.2500 123.5000 Du        
    249 ****        93.0000 146.2500 123.7500 Du        
    250 ****        93.0000 146.2500 124.0000 Du        
    251 ****        93.0000 146.2500 124.2500 Du        
    252 ****        93.0000 146.5000 122.5000 Du        
    253 ****        93.0000 146.5000 122.7500 Du        
    254 ****        93.0000 146.5000 123.0000 Du        
    255 ****        93.0000 146.5000 123.2500 Du        
    256 ****        93.0000 146.5000 123.5000 Du        
    257 ****        93.0000 146.5000 123.7500 Du        
    258 ****        93.0000 146.5000 124.0000 Du        
    259 ****        93.0000 146.5000 124.2500 Du        
    260 ****        93.0000 146.5000 124.5000 Du        
    261 ****        93.0000 146.7500 122.5000 Du        
    262 ****        93.0000 146.7500 122.7500 Du        
    263 ****        93.0000 146.7500 123.0000 Du        
    264 ****        93.0000 146.7500 123.2500 Du        
    265 ****        93.0000 146.7500 123.5000 Du        
    266 ****        93.0000 146.7500 123.7500 Du        
    267 ****        93.0000 146.7500 124.0000 Du        
    268 ****        93.0000 146.7500 124.2500 Du        
    269 ****        93.0000 146.7500 124.5000 Du        
    270 ****        93.0000 146.7500 124.7500 Du        
    271 ****        93.0000 147.0000 122.2500 Du        
    272 ****        93.0000 147.0000 122.5000 Du        
    273 ****        93.0000 147.0000 122.7500 Du        
    274 ****        93.0000 147.0000 123.0000 Du        
    275 ****        93.0000 147.0000 123.2500 Du        
    276 ****        93.0000 147.0000 123.5000 Du        
    277 ****        93.0000 147.0000 123.7500 Du        
    278 ****        93.0000 147.0000 124.0000 Du        
    279 ****        93.0000 147.0000 124.2500 Du        
    280 ****        93.0000 147.0000 124.5000 Du        
    281 ****        93.0000 147.0000 124.7500 Du        
    282 ****        93.0000 147.0000 125.0000 Du        
    283 ****        93.0000 147.2500 122.0000 Du        
    284 ****        93.0000 147.2500 122.2500 Du        
    285 ****        93.0000 147.2500 122.5000 Du        
    286 ****        93.0000 147.2500 122.7500 Du        
    287 ****        93.0000 147.2500 123.0000 Du        
    288 ****        93.0000 147.2500 123.2500 Du        
    289 ****        93.0000 147.2500 123.5000 Du        
    290 ****        93.0000 147.2500 123.7500 Du        
    291 ****        93.0000 147.2500 124.0000 Du        
    292 ****        93.0000 147.2500 124.2500 Du        
    293 ****        93.0000 147.2500 124.5000 Du        
    294 ****        93.0000 147.2500 124.7500 Du        
    295 ****        93.0000 147.2500 125.0000 Du        
    296 ****        93.0000 147.5000 122.7500 Du        
    297 ****        93.0000 147.5000 123.0000 Du        
    298 ****        93.0000 147.5000 123.2500 Du        
    299 ****        93.0000 147.5000 123.5000 Du        
    300 ****        93.0000 147.5000 123.7500 Du        
    301 ****        93.0000 147.5000 124.0000 Du        
    302 ****        93.0000 147.5000 124.2500 Du        
    303 ****        93.0000 147.5000 124.5000 Du        
    304 ****        93.0000 147.5000 124.7500 Du        
    305 ****        93.0000 147.5000 125.0000 Du        
    306 ****        93.0000 147.7500 123.0000 Du        
    307 ****        93.0000 147.7500 123.2500 Du        
    308 ****        93.0000 147.7500 123.5000 Du        
    309 ****        93.0000 147.7500 123.7500 Du        
    310 ****        93.0000 147.7500 124.0000 Du        
    311 ****        93.0000 147.7500 124.2500 Du        
    312 ****        93.0000 147.7500 124.5000 Du        
    313 ****        93.0000 147.7500 124.7500 Du        
    314 ****        93.0000 147.7500 125.0000 Du        
    315 ****        93.0000 148.0000 123.2500 Du        
    316 ****        93.0000 148.0000 123.5000 Du        
    317 ****        93.0000 148.0000 123.7500 Du        
    318 ****        93.0000 148.0000 124.0000 Du        
    319 ****        93.0000 148.0000 124.2500 Du        
    320 ****        93.0000 148.0000 124.5000 Du        
    321 ****        93.0000 148.0000 124.7500 Du        
    322 ****        93.0000 148.0000 125.0000 Du        
    323 ****        93.0000 148.2500 124.0000 Du        
    324 ****        93.0000 148.2500 124.2500 Du        
    325 ****        93.0000 148.2500 124.5000 Du        
    326 ****        93.0000 148.2500 124.7500 Du        
    327 ****        93.0000 148.5000 124.5000 Du        
    328 ****        93.0000 151.5000 122.5000 Du        
    329 ****        93.0000 151.5000 122.7500 Du        
    330 ****        93.0000 151.5000 123.0000 Du        
    331 ****        93.0000 151.5000 123.2500 Du        
    332 ****        93.0000 151.5000 123.5000 Du        
    333 ****        93.0000 151.7500 121.2500 Du        
    334 ****        93.0000 151.7500 121.7500 Du        
    335 ****        93.0000 151.7500 122.0000 Du        
    336 ****        93.0000 151.7500 122.2500 Du        
    337 ****        93.0000 151.7500 122.5000 Du        
    338 ****        93.0000 151.7500 122.7500 Du        
    339 ****        93.0000 151.7500 123.0000 Du        
    340 ****        93.0000 151.7500 123.2500 Du        
    341 ****        93.0000 151.7500 123.5000 Du        
    342 ****        93.0000 151.7500 123.7500 Du        
    343 ****        93.0000 152.0000 120.2500 Du        
    344 ****        93.0000 152.0000 120.5000 Du        
    345 ****        93.0000 152.0000 120.7500 Du        
    346 ****        93.0000 152.0000 121.0000 Du        
    347 ****        93.0000 152.0000 121.2500 Du        
    348 ****        93.0000 152.0000 121.5000 Du        
    349 ****        93.0000 152.0000 121.7500 Du        
    350 ****        93.0000 152.0000 122.0000 Du        
    351 ****        93.0000 152.0000 122.2500 Du        
    352 ****        93.0000 152.0000 122.5000 Du        
    353 ****        93.0000 152.0000 122.7500 Du        
    354 ****        93.0000 152.0000 123.0000 Du        
    355 ****        93.0000 152.0000 123.2500 Du        
    356 ****        93.0000 152.0000 123.5000 Du        
    357 ****        93.0000 152.0000 123.7500 Du        
    358 ****        93.0000 152.2500 120.2500 Du        
    359 ****        93.0000 152.2500 120.5000 Du        
    360 ****        93.0000 152.2500 120.7500 Du        
    361 ****        93.0000 152.2500 121.0000 Du        
    362 ****        93.0000 152.2500 121.2500 Du        
    363 ****        93.0000 152.2500 121.5000 Du        
    364 ****        93.0000 152.2500 121.7500 Du        
    365 ****        93.0000 152.2500 122.0000 Du        
    366 ****        93.0000 152.2500 122.2500 Du        
    367 ****        93.0000 152.2500 122.5000 Du        
    368 ****        93.0000 152.2500 122.7500 Du        
    369 ****        93.0000 152.2500 123.0000 Du        
    370 ****        93.0000 152.2500 123.2500 Du        
    371 ****        93.0000 152.2500 123.5000 Du        
    372 ****        93.0000 152.2500 123.7500 Du        
    373 ****        93.0000 152.5000 120.2500 Du        
    374 ****        93.0000 152.5000 120.5000 Du        
    375 ****        93.0000 152.5000 120.7500 Du        
    376 ****        93.0000 152.5000 121.0000 Du        
    377 ****        93.0000 152.5000 121.2500 Du        
    378 ****        93.0000 152.5000 121.5000 Du        
    379 ****        93.0000 152.5000 121.7500 Du        
    380 ****        93.0000 152.5000 122.0000 Du        
    381 ****        93.0000 152.5000 122.2500 Du        
    382 ****        93.0000 152.5000 122.5000 Du        
    383 ****        93.0000 152.5000 122.7500 Du        
    384 ****        93.0000 152.5000 123.0000 Du        
    385 ****        93.0000 152.5000 123.2500 Du        
    386 ****        93.0000 152.5000 123.5000 Du        
    387 ****        93.0000 152.7500 120.2500 Du        
    388 ****        93.0000 152.7500 120.5000 Du        
    389 ****        93.0000 152.7500 120.7500 Du        
    390 ****        93.0000 152.7500 121.0000 Du        
    391 ****        93.2500 146.2500 123.2500 Du        
    392 ****        93.2500 146.2500 123.5000 Du        
    393 ****        93.2500 146.2500 123.7500 Du        
    394 ****        93.2500 146.2500 124.0000 Du        
    395 ****        93.2500 146.5000 123.0000 Du        
    396 ****        93.2500 146.5000 123.2500 Du        
    397 ****        93.2500 146.5000 123.5000 Du        
    398 ****        93.2500 146.5000 123.7500 Du        
    399 ****        93.2500 146.5000 124.0000 Du        
    400 ****        93.2500 146.5000 124.2500 Du        
    401 ****        93.2500 146.7500 122.5000 Du        
    402 ****        93.2500 146.7500 122.7500 Du        
    403 ****        93.2500 146.7500 123.0000 Du        
    404 ****        93.2500 146.7500 123.2500 Du        
    405 ****        93.2500 146.7500 123.5000 Du        
    406 ****        93.2500 146.7500 123.7500 Du        
    407 ****        93.2500 146.7500 124.0000 Du        
    408 ****        93.2500 146.7500 124.2500 Du        
    409 ****        93.2500 146.7500 124.5000 Du        
    410 ****        93.2500 146.7500 124.7500 Du        
    411 ****        93.2500 147.0000 122.2500 Du        
    412 ****        93.2500 147.0000 122.5000 Du        
    413 ****        93.2500 147.0000 122.7500 Du        
    414 ****        93.2500 147.0000 123.0000 Du        
    415 ****        93.2500 147.0000 123.2500 Du        
    416 ****        93.2500 147.0000 123.5000 Du        
    417 ****        93.2500 147.0000 123.7500 Du        
    418 ****        93.2500 147.0000 124.0000 Du        
    419 ****        93.2500 147.0000 124.2500 Du        
    420 ****        93.2500 147.0000 124.5000 Du        
    421 ****        93.2500 147.0000 124.7500 Du        
    422 ****        93.2500 147.0000 125.0000 Du        
    423 ****        93.2500 147.2500 122.5000 Du        
    424 ****        93.2500 147.2500 122.7500 Du        
    425 ****        93.2500 147.2500 123.0000 Du        
    426 ****        93.2500 147.2500 123.2500 Du        
    427 ****        93.2500 147.2500 123.5000 Du        
    428 ****        93.2500 147.2500 123.7500 Du        
    429 ****        93.2500 147.2500 124.0000 Du        
    430 ****        93.2500 147.2500 124.2500 Du        
    431 ****        93.2500 147.2500 124.5000 Du        
    432 ****        93.2500 147.2500 124.7500 Du        
    433 ****        93.2500 147.2500 125.0000 Du        
    434 ****        93.2500 147.5000 122.7500 Du        
    435 ****        93.2500 147.5000 123.0000 Du        
    436 ****        93.2500 147.5000 123.2500 Du        
    437 ****        93.2500 147.5000 123.5000 Du        
    438 ****        93.2500 147.5000 123.7500 Du        
    439 ****        93.2500 147.5000 124.0000 Du        
    440 ****        93.2500 147.5000 124.2500 Du        
    441 ****        93.2500 147.5000 124.5000 Du        
    442 ****        93.2500 147.5000 124.7500 Du        
    443 ****        93.2500 147.5000 125.0000 Du        
    444 ****        93.2500 147.7500 123.0000 Du        
    445 ****        93.2500 147.7500 123.2500 Du        
    446 ****        93.2500 147.7500 123.5000 Du        
    447 ****        93.2500 147.7500 123.7500 Du        
    448 ****        93.2500 147.7500 124.0000 Du        
    449 ****        93.2500 147.7500 124.2500 Du        
    450 ****        93.2500 147.7500 124.5000 Du        
    451 ****        93.2500 147.7500 124.7500 Du        
    452 ****        93.2500 147.7500 125.0000 Du        
    453 ****        93.2500 148.0000 123.0000 Du        
    454 ****        93.2500 148.0000 123.2500 Du        
    455 ****        93.2500 148.0000 123.5000 Du        
    456 ****        93.2500 148.0000 123.7500 Du        
    457 ****        93.2500 148.0000 124.0000 Du        
    458 ****        93.2500 148.0000 124.2500 Du        
    459 ****        93.2500 148.0000 124.5000 Du        
    460 ****        93.2500 148.0000 124.7500 Du        
    461 ****        93.2500 148.0000 125.0000 Du        
    462 ****        93.2500 148.2500 123.7500 Du        
    463 ****        93.2500 148.2500 124.0000 Du        
    464 ****        93.2500 148.2500 124.2500 Du        
    465 ****        93.2500 148.2500 124.5000 Du        
    466 ****        93.2500 148.2500 124.7500 Du        
    467 ****        93.2500 151.5000 122.2500 Du        
    468 ****        93.2500 151.5000 122.5000 Du        
    469 ****        93.2500 151.5000 122.7500 Du        
    470 ****        93.2500 151.5000 123.0000 Du        
    471 ****        93.2500 151.5000 123.2500 Du        
    472 ****        93.2500 151.5000 123.5000 Du        
    473 ****        93.2500 151.7500 121.2500 Du        
    474 ****        93.2500 151.7500 121.7500 Du        
    475 ****        93.2500 151.7500 122.0000 Du        
    476 ****        93.2500 151.7500 122.2500 Du        
    477 ****        93.2500 151.7500 122.5000 Du        
    478 ****        93.2500 151.7500 122.7500 Du        
    479 ****        93.2500 151.7500 123.0000 Du        
    480 ****        93.2500 151.7500 123.2500 Du        
    481 ****        93.2500 151.7500 123.5000 Du        
    482 ****        93.2500 152.0000 120.7500 Du        
    483 ****        93.2500 152.0000 121.0000 Du        
    484 ****        93.2500 152.0000 121.2500 Du        
    485 ****        93.2500 152.0000 121.5000 Du        
    486 ****        93.2500 152.0000 121.7500 Du        
    487 ****        93.2500 152.0000 122.0000 Du        
    488 ****        93.2500 152.0000 122.2500 Du        
    489 ****        93.2500 152.0000 122.5000 Du        
    490 ****        93.2500 152.0000 122.7500 Du        
    491 ****        93.2500 152.0000 123.0000 Du        
    492 ****        93.2500 152.0000 123.2500 Du        
    493 ****        93.2500 152.0000 123.5000 Du        
    494 ****        93.2500 152.0000 123.7500 Du        
    495 ****        93.2500 152.2500 119.0000 Du        
    496 ****        93.2500 152.2500 119.2500 Du        
    497 ****        93.2500 152.2500 119.5000 Du        
    498 ****        93.2500 152.2500 119.7500 Du        
    499 ****        93.2500 152.2500 120.0000 Du        
    500 ****        93.2500 152.2500 120.2500 Du        
    501 ****        93.2500 152.2500 120.5000 Du        
    502 ****        93.2500 152.2500 120.7500 Du        
    503 ****        93.2500 152.2500 121.0000 Du        
    504 ****        93.2500 152.2500 121.2500 Du        
    505 ****        93.2500 152.2500 121.5000 Du        
    506 ****        93.2500 152.2500 121.7500 Du        
    507 ****        93.2500 152.2500 122.0000 Du        
    508 ****        93.2500 152.2500 122.2500 Du        
    509 ****        93.2500 152.2500 122.5000 Du        
    510 ****        93.2500 152.2500 122.7500 Du        
    511 ****        93.2500 152.2500 123.0000 Du        
    512 ****        93.2500 152.2500 123.2500 Du        
    513 ****        93.2500 152.2500 123.5000 Du        
    514 ****        93.2500 152.2500 123.7500 Du        
    515 ****        93.2500 152.5000 118.7500 Du        
    516 ****        93.2500 152.5000 119.0000 Du        
    517 ****        93.2500 152.5000 119.2500 Du        
    518 ****        93.2500 152.5000 119.5000 Du        
    519 ****        93.2500 152.5000 119.7500 Du        
    520 ****        93.2500 152.5000 120.0000 Du        
    521 ****        93.2500 152.5000 120.2500 Du        
    522 ****        93.2500 152.5000 120.5000 Du        
    523 ****        93.2500 152.5000 120.7500 Du        
    524 ****        93.2500 152.5000 121.0000 Du        
    525 ****        93.2500 152.5000 121.2500 Du        
    526 ****        93.2500 152.5000 121.5000 Du        
    527 ****        93.2500 152.5000 121.7500 Du        
    528 ****        93.2500 152.5000 122.0000 Du        
    529 ****        93.2500 152.5000 122.2500 Du        
    530 ****        93.2500 152.5000 122.5000 Du        
    531 ****        93.2500 152.5000 122.7500 Du        
    532 ****        93.2500 152.5000 123.0000 Du        
    533 ****        93.2500 152.5000 123.2500 Du        
    534 ****        93.2500 152.5000 123.5000 Du        
    535 ****        93.2500 152.7500 118.7500 Du        
    536 ****        93.2500 152.7500 119.0000 Du        
    537 ****        93.2500 152.7500 119.2500 Du        
    538 ****        93.2500 152.7500 119.5000 Du        
    539 ****        93.2500 152.7500 119.7500 Du        
    540 ****        93.2500 152.7500 120.0000 Du        
    541 ****        93.2500 152.7500 120.2500 Du        
    542 ****        93.2500 152.7500 120.5000 Du        
    543 ****        93.2500 152.7500 120.7500 Du        
    544 ****        93.2500 152.7500 121.0000 Du        
    545 ****        93.2500 152.7500 121.2500 Du        
    546 ****        93.2500 152.7500 121.5000 Du        
    547 ****        93.2500 152.7500 121.7500 Du        
    548 ****        93.2500 152.7500 122.0000 Du        
    549 ****        93.2500 152.7500 122.2500 Du        
    550 ****        93.2500 152.7500 122.5000 Du        
    551 ****        93.2500 152.7500 122.7500 Du        
    552 ****        93.2500 152.7500 123.0000 Du        
    553 ****        93.2500 153.0000 118.7500 Du        
    554 ****        93.5000 146.7500 123.2500 Du        
    555 ****        93.5000 146.7500 123.5000 Du        
    556 ****        93.5000 146.7500 123.7500 Du        
    557 ****        93.5000 146.7500 124.0000 Du        
    558 ****        93.5000 146.7500 124.2500 Du        
    559 ****        93.5000 146.7500 124.5000 Du        
    560 ****        93.5000 147.0000 122.7500 Du        
    561 ****        93.5000 147.0000 123.0000 Du        
    562 ****        93.5000 147.0000 123.2500 Du        
    563 ****        93.5000 147.0000 123.5000 Du        
    564 ****        93.5000 147.0000 123.7500 Du        
    565 ****        93.5000 147.0000 124.0000 Du        
    566 ****        93.5000 147.0000 124.2500 Du        
    567 ****        93.5000 147.0000 124.5000 Du        
    568 ****        93.5000 147.0000 124.7500 Du        
    569 ****        93.5000 147.2500 122.5000 Du        
    570 ****        93.5000 147.2500 122.7500 Du        
    571 ****        93.5000 147.2500 123.0000 Du        
    572 ****        93.5000 147.2500 123.2500 Du        
    573 ****        93.5000 147.2500 123.5000 Du        
    574 ****        93.5000 147.2500 123.7500 Du        
    575 ****        93.5000 147.2500 124.0000 Du        
    576 ****        93.5000 147.2500 124.2500 Du        
    577 ****        93.5000 147.2500 124.5000 Du        
    578 ****        93.5000 147.2500 124.7500 Du        
    579 ****        93.5000 147.2500 125.0000 Du        
    580 ****        93.5000 147.5000 122.7500 Du        
    581 ****        93.5000 147.5000 123.0000 Du        
    582 ****        93.5000 147.5000 123.2500 Du        
    583 ****        93.5000 147.5000 123.5000 Du        
    584 ****        93.5000 147.5000 123.7500 Du        
    585 ****        93.5000 147.5000 124.0000 Du        
    586 ****        93.5000 147.5000 124.2500 Du        
    587 ****        93.5000 147.5000 124.5000 Du        
    588 ****        93.5000 147.5000 124.7500 Du        
    589 ****        93.5000 147.5000 125.0000 Du        
    590 ****        93.5000 147.7500 123.0000 Du        
    591 ****        93.5000 147.7500 123.2500 Du        
    592 ****        93.5000 147.7500 123.5000 Du        
    593 ****        93.5000 147.7500 123.7500 Du        
    594 ****        93.5000 147.7500 124.0000 Du        
    595 ****        93.5000 147.7500 124.2500 Du        
    596 ****        93.5000 147.7500 124.5000 Du        
    597 ****        93.5000 147.7500 124.7500 Du        
    598 ****        93.5000 147.7500 125.0000 Du        
    599 ****        93.5000 148.0000 123.5000 Du        
    600 ****        93.5000 148.0000 123.7500 Du        
    601 ****        93.5000 148.0000 124.0000 Du        
    602 ****        93.5000 148.0000 124.2500 Du        
    603 ****        93.5000 148.0000 124.5000 Du        
    604 ****        93.5000 148.0000 124.7500 Du        
    605 ****        93.5000 148.0000 125.0000 Du        
    606 ****        93.5000 148.2500 123.5000 Du        
    607 ****        93.5000 148.2500 123.7500 Du        
    608 ****        93.5000 148.2500 124.0000 Du        
    609 ****        93.5000 148.2500 124.2500 Du        
    610 ****        93.5000 148.2500 124.5000 Du        
    611 ****        93.5000 148.2500 124.7500 Du        
    612 ****        93.5000 148.5000 124.2500 Du        
    613 ****        93.5000 148.5000 124.5000 Du        
    614 ****        93.5000 151.5000 122.5000 Du        
    615 ****        93.5000 151.5000 122.7500 Du        
    616 ****        93.5000 151.5000 123.0000 Du        
    617 ****        93.5000 151.5000 123.2500 Du        
    618 ****        93.5000 151.7500 121.5000 Du        
    619 ****        93.5000 151.7500 121.7500 Du        
    620 ****        93.5000 151.7500 122.0000 Du        
    621 ****        93.5000 151.7500 122.2500 Du        
    622 ****        93.5000 151.7500 122.5000 Du        
    623 ****        93.5000 151.7500 122.7500 Du        
    624 ****        93.5000 151.7500 123.0000 Du        
    625 ****        93.5000 151.7500 123.2500 Du        
    626 ****        93.5000 151.7500 123.5000 Du        
    627 ****        93.5000 152.0000 118.7500 Du        
    628 ****        93.5000 152.0000 119.2500 Du        
    629 ****        93.5000 152.0000 119.7500 Du        
    630 ****        93.5000 152.0000 120.0000 Du        
    631 ****        93.5000 152.0000 120.2500 Du        
    632 ****        93.5000 152.0000 120.5000 Du        
    633 ****        93.5000 152.0000 120.7500 Du        
    634 ****        93.5000 152.0000 121.0000 Du        
    635 ****        93.5000 152.0000 121.2500 Du        
    636 ****        93.5000 152.0000 121.5000 Du        
    637 ****        93.5000 152.0000 121.7500 Du        
    638 ****        93.5000 152.0000 122.0000 Du        
    639 ****        93.5000 152.0000 122.2500 Du        
    640 ****        93.5000 152.0000 122.5000 Du        
    641 ****        93.5000 152.0000 122.7500 Du        
    642 ****        93.5000 152.0000 123.0000 Du        
    643 ****        93.5000 152.0000 123.2500 Du        
    644 ****        93.5000 152.0000 123.5000 Du        
    645 ****        93.5000 152.0000 123.7500 Du        
    646 ****        93.5000 152.2500 118.7500 Du        
    647 ****        93.5000 152.2500 119.0000 Du        
    648 ****        93.5000 152.2500 119.2500 Du        
    649 ****        93.5000 152.2500 119.5000 Du        
    650 ****        93.5000 152.2500 119.7500 Du        
    651 ****        93.5000 152.2500 120.0000 Du        
    652 ****        93.5000 152.2500 120.2500 Du        
    653 ****        93.5000 152.2500 120.5000 Du        
    654 ****        93.5000 152.2500 120.7500 Du        
    655 ****        93.5000 152.2500 121.0000 Du        
    656 ****        93.5000 152.2500 121.2500 Du        
    657 ****        93.5000 152.2500 121.5000 Du        
    658 ****        93.5000 152.2500 121.7500 Du        
    659 ****        93.5000 152.2500 122.0000 Du        
    660 ****        93.5000 152.2500 122.2500 Du        
    661 ****        93.5000 152.2500 122.5000 Du        
    662 ****        93.5000 152.2500 122.7500 Du        
    663 ****        93.5000 152.2500 123.0000 Du        
    664 ****        93.5000 152.2500 123.2500 Du        
    665 ****        93.5000 152.2500 123.5000 Du        
    666 ****        93.5000 152.2500 123.7500 Du        
    667 ****        93.5000 152.5000 118.7500 Du        
    668 ****        93.5000 152.5000 119.0000 Du        
    669 ****        93.5000 152.5000 119.2500 Du        
    670 ****        93.5000 152.5000 119.5000 Du        
    671 ****        93.5000 152.5000 119.7500 Du        
    672 ****        93.5000 152.5000 120.0000 Du        
    673 ****        93.5000 152.5000 120.2500 Du        
    674 ****        93.5000 152.5000 120.5000 Du        
    675 ****        93.5000 152.5000 120.7500 Du        
    676 ****        93.5000 152.5000 121.0000 Du        
    677 ****        93.5000 152.5000 121.2500 Du        
    678 ****        93.5000 152.5000 121.5000 Du        
    679 ****        93.5000 152.5000 121.7500 Du        
    680 ****        93.5000 152.5000 122.0000 Du        
    681 ****        93.5000 152.5000 122.2500 Du        
    682 ****        93.5000 152.5000 122.5000 Du        
    683 ****        93.5000 152.5000 122.7500 Du        
    684 ****        93.5000 152.5000 123.0000 Du        
    685 ****        93.5000 152.5000 123.2500 Du        
    686 ****        93.5000 152.5000 123.5000 Du        
    687 ****        93.5000 152.7500 118.7500 Du        
    688 ****        93.5000 152.7500 119.0000 Du        
    689 ****        93.5000 152.7500 119.2500 Du        
    690 ****        93.5000 152.7500 119.5000 Du        
    691 ****        93.5000 152.7500 119.7500 Du        
    692 ****        93.5000 152.7500 120.0000 Du        
    693 ****        93.5000 152.7500 120.2500 Du        
    694 ****        93.5000 152.7500 120.5000 Du        
    695 ****        93.5000 152.7500 120.7500 Du        
    696 ****        93.5000 152.7500 121.0000 Du        
    697 ****        93.5000 152.7500 121.2500 Du        
    698 ****        93.5000 152.7500 121.5000 Du        
    699 ****        93.5000 152.7500 121.7500 Du        
    700 ****        93.5000 152.7500 122.0000 Du        
    701 ****        93.5000 152.7500 122.2500 Du        
    702 ****        93.5000 152.7500 122.5000 Du        
    703 ****        93.5000 152.7500 122.7500 Du        
    704 ****        93.5000 152.7500 123.0000 Du        
    705 ****        93.5000 153.0000 118.7500 Du        
    706 ****        93.5000 153.0000 119.0000 Du        
    707 ****        93.5000 153.0000 119.2500 Du        
    708 ****        93.5000 153.0000 120.7500 Du        
    709 ****        93.5000 153.0000 121.0000 Du        
    710 ****        93.7500 147.0000 123.7500 Du        
    711 ****        93.7500 147.0000 124.0000 Du        
    712 ****        93.7500 147.0000 124.2500 Du        
    713 ****        93.7500 147.0000 124.5000 Du        
    714 ****        93.7500 147.0000 124.7500 Du        
    715 ****        93.7500 147.2500 121.0000 Du        
    716 ****        93.7500 147.2500 121.2500 Du        
    717 ****        93.7500 147.2500 121.5000 Du        
    718 ****        93.7500 147.2500 121.7500 Du        
    719 ****        93.7500 147.2500 123.0000 Du        
    720 ****        93.7500 147.2500 123.2500 Du        
    721 ****        93.7500 147.2500 123.5000 Du        
    722 ****        93.7500 147.2500 123.7500 Du        
    723 ****        93.7500 147.2500 124.0000 Du        
    724 ****        93.7500 147.2500 124.2500 Du        
    725 ****        93.7500 147.2500 124.5000 Du        
    726 ****        93.7500 147.2500 124.7500 Du        
    727 ****        93.7500 147.2500 125.0000 Du        
    728 ****        93.7500 147.5000 121.0000 Du        
    729 ****        93.7500 147.5000 121.2500 Du        
    730 ****        93.7500 147.5000 122.7500 Du        
    731 ****        93.7500 147.5000 123.0000 Du        
    732 ****        93.7500 147.5000 123.2500 Du        
    733 ****        93.7500 147.5000 123.5000 Du        
    734 ****        93.7500 147.5000 123.7500 Du        
    735 ****        93.7500 147.5000 124.0000 Du        
    736 ****        93.7500 147.5000 124.2500 Du        
    737 ****        93.7500 147.5000 124.5000 Du        
    738 ****        93.7500 147.5000 124.7500 Du        
    739 ****        93.7500 147.5000 125.0000 Du        
    740 ****        93.7500 147.7500 121.0000 Du        
    741 ****        93.7500 147.7500 121.2500 Du        
    742 ****        93.7500 147.7500 122.7500 Du        
    743 ****        93.7500 147.7500 123.0000 Du        
    744 ****        93.7500 147.7500 123.2500 Du        
    745 ****        93.7500 147.7500 123.5000 Du        
    746 ****        93.7500 147.7500 123.7500 Du        
    747 ****        93.7500 147.7500 124.0000 Du        
    748 ****        93.7500 147.7500 124.2500 Du        
    749 ****        93.7500 147.7500 124.5000 Du        
    750 ****        93.7500 147.7500 124.7500 Du        
    751 ****        93.7500 147.7500 125.0000 Du        
    752 ****        93.7500 148.0000 122.7500 Du        
    753 ****        93.7500 148.0000 123.0000 Du        
    754 ****        93.7500 148.0000 123.2500 Du        
    755 ****        93.7500 148.0000 123.5000 Du        
    756 ****        93.7500 148.0000 123.7500 Du        
    757 ****        93.7500 148.0000 124.0000 Du        
    758 ****        93.7500 148.0000 124.2500 Du        
    759 ****        93.7500 148.0000 124.5000 Du        
    760 ****        93.7500 148.0000 124.7500 Du        
    761 ****        93.7500 148.0000 125.0000 Du        
    762 ****        93.7500 148.2500 123.5000 Du        
    763 ****        93.7500 148.2500 123.7500 Du        
    764 ****        93.7500 148.2500 124.0000 Du        
    765 ****        93.7500 148.2500 124.2500 Du        
    766 ****        93.7500 148.2500 124.5000 Du        
    767 ****        93.7500 148.2500 124.7500 Du        
    768 ****        93.7500 148.5000 124.0000 Du        
    769 ****        93.7500 148.5000 124.2500 Du        
    770 ****        93.7500 148.5000 124.5000 Du        
    771 ****        93.7500 151.5000 122.5000 Du        
    772 ****        93.7500 151.5000 122.7500 Du        
    773 ****        93.7500 151.5000 123.0000 Du        
    774 ****        93.7500 151.5000 123.2500 Du        
    775 ****        93.7500 151.7500 120.2500 Du        
    776 ****        93.7500 151.7500 120.5000 Du        
    777 ****        93.7500 151.7500 120.7500 Du        
    778 ****        93.7500 151.7500 121.0000 Du        
    779 ****        93.7500 151.7500 121.5000 Du        
    780 ****        93.7500 151.7500 121.7500 Du        
    781 ****        93.7500 151.7500 122.0000 Du        
    782 ****        93.7500 151.7500 122.2500 Du        
    783 ****        93.7500 151.7500 122.5000 Du        
    784 ****        93.7500 151.7500 122.7500 Du        
    785 ****        93.7500 151.7500 123.0000 Du        
    786 ****        93.7500 151.7500 123.2500 Du        
    787 ****        93.7500 151.7500 123.5000 Du        
    788 ****        93.7500 152.0000 118.2500 Du        
    789 ****        93.7500 152.0000 118.5000 Du        
    790 ****        93.7500 152.0000 118.7500 Du        
    791 ****        93.7500 152.0000 119.0000 Du        
    792 ****        93.7500 152.0000 119.2500 Du        
    793 ****        93.7500 152.0000 119.7500 Du        
    794 ****        93.7500 152.0000 120.0000 Du        
    795 ****        93.7500 152.0000 120.2500 Du        
    796 ****        93.7500 152.0000 120.5000 Du        
    797 ****        93.7500 152.0000 120.7500 Du        
    798 ****        93.7500 152.0000 121.0000 Du        
    799 ****        93.7500 152.0000 121.2500 Du        
    800 ****        93.7500 152.0000 121.5000 Du        
    801 ****        93.7500 152.0000 121.7500 Du        
    802 ****        93.7500 152.0000 122.0000 Du        
    803 ****        93.7500 152.0000 122.2500 Du        
    804 ****        93.7500 152.0000 122.5000 Du        
    805 ****        93.7500 152.0000 122.7500 Du        
    806 ****        93.7500 152.0000 123.0000 Du        
    807 ****        93.7500 152.0000 123.2500 Du        
    808 ****        93.7500 152.0000 123.5000 Du        
    809 ****        93.7500 152.0000 123.7500 Du        
    810 ****        93.7500 152.2500 118.2500 Du        
    811 ****        93.7500 152.2500 118.5000 Du        
    812 ****        93.7500 152.2500 118.7500 Du        
    813 ****        93.7500 152.2500 119.0000 Du        
    814 ****        93.7500 152.2500 119.2500 Du        
    815 ****        93.7500 152.2500 119.5000 Du        
    816 ****        93.7500 152.2500 119.7500 Du        
    817 ****        93.7500 152.2500 120.0000 Du        
    818 ****        93.7500 152.2500 120.2500 Du        
    819 ****        93.7500 152.2500 120.5000 Du        
    820 ****        93.7500 152.2500 120.7500 Du        
    821 ****        93.7500 152.2500 121.0000 Du        
    822 ****        93.7500 152.2500 121.2500 Du        
    823 ****        93.7500 152.2500 121.5000 Du        
    824 ****        93.7500 152.2500 121.7500 Du        
    825 ****        93.7500 152.2500 122.0000 Du        
    826 ****        93.7500 152.2500 122.2500 Du        
    827 ****        93.7500 152.2500 122.5000 Du        
    828 ****        93.7500 152.2500 122.7500 Du        
    829 ****        93.7500 152.2500 123.0000 Du        
    830 ****        93.7500 152.2500 123.2500 Du        
    831 ****        93.7500 152.2500 123.5000 Du        
    832 ****        93.7500 152.2500 123.7500 Du        
    833 ****        93.7500 152.5000 118.2500 Du        
    834 ****        93.7500 152.5000 118.5000 Du        
    835 ****        93.7500 152.5000 118.7500 Du        
    836 ****        93.7500 152.5000 119.0000 Du        
    837 ****        93.7500 152.5000 119.2500 Du        
    838 ****        93.7500 152.5000 119.5000 Du        
    839 ****        93.7500 152.5000 119.7500 Du        
    840 ****        93.7500 152.5000 120.0000 Du        
    841 ****        93.7500 152.5000 120.2500 Du        
    842 ****        93.7500 152.5000 120.5000 Du        
    843 ****        93.7500 152.5000 120.7500 Du        
    844 ****        93.7500 152.5000 121.0000 Du        
    845 ****        93.7500 152.5000 121.2500 Du        
    846 ****        93.7500 152.5000 121.5000 Du        
    847 ****        93.7500 152.5000 121.7500 Du        
    848 ****        93.7500 152.5000 122.0000 Du        
    849 ****        93.7500 152.5000 122.2500 Du        
    850 ****        93.7500 152.5000 122.5000 Du        
    851 ****        93.7500 152.5000 122.7500 Du        
    852 ****        93.7500 152.5000 123.0000 Du        
    853 ****        93.7500 152.5000 123.2500 Du        
    854 ****        93.7500 152.5000 123.5000 Du        
    855 ****        93.7500 152.5000 123.7500 Du        
    856 ****        93.7500 152.7500 118.2500 Du        
    857 ****        93.7500 152.7500 118.5000 Du        
    858 ****        93.7500 152.7500 118.7500 Du        
    859 ****        93.7500 152.7500 119.0000 Du        
    860 ****        93.7500 152.7500 119.2500 Du        
    861 ****        93.7500 152.7500 119.5000 Du        
    862 ****        93.7500 152.7500 119.7500 Du        
    863 ****        93.7500 152.7500 120.0000 Du        
    864 ****        93.7500 152.7500 120.2500 Du        
    865 ****        93.7500 152.7500 120.5000 Du        
    866 ****        93.7500 152.7500 120.7500 Du        
    867 ****        93.7500 152.7500 121.0000 Du        
    868 ****        93.7500 152.7500 121.2500 Du        
    869 ****        93.7500 152.7500 121.5000 Du        
    870 ****        93.7500 152.7500 121.7500 Du        
    871 ****        93.7500 152.7500 122.0000 Du        
    872 ****        93.7500 152.7500 122.2500 Du        
    873 ****        93.7500 152.7500 122.5000 Du        
    874 ****        93.7500 152.7500 122.7500 Du        
    875 ****        93.7500 152.7500 123.0000 Du        
    876 ****        93.7500 152.7500 123.2500 Du        
    877 ****        93.7500 153.0000 118.2500 Du        
    878 ****        93.7500 153.0000 118.5000 Du        
    879 ****        93.7500 153.0000 118.7500 Du        
    880 ****        93.7500 153.0000 119.0000 Du        
    881 ****        93.7500 153.0000 121.0000 Du        
    882 ****        93.7500 153.0000 121.2500 Du        
    883 ****        93.7500 153.2500 118.2500 Du        
    884 ****        93.7500 153.2500 118.5000 Du        
    885 ****        94.0000 147.0000 124.2500 Du        
    886 ****        94.0000 147.2500 120.7500 Du        
    887 ****        94.0000 147.2500 121.0000 Du        
    888 ****        94.0000 147.2500 121.2500 Du        
    889 ****        94.0000 147.2500 123.7500 Du        
    890 ****        94.0000 147.2500 124.0000 Du        
    891 ****        94.0000 147.2500 124.2500 Du        
    892 ****        94.0000 147.2500 124.5000 Du        
    893 ****        94.0000 147.2500 124.7500 Du        
    894 ****        94.0000 147.2500 125.0000 Du        
    895 ****        94.0000 147.5000 120.7500 Du        
    896 ****        94.0000 147.5000 121.0000 Du        
    897 ****        94.0000 147.5000 121.2500 Du        
    898 ****        94.0000 147.5000 123.2500 Du        
    899 ****        94.0000 147.5000 123.5000 Du        
    900 ****        94.0000 147.5000 123.7500 Du        
    901 ****        94.0000 147.5000 124.0000 Du        
    902 ****        94.0000 147.5000 124.2500 Du        
    903 ****        94.0000 147.5000 124.5000 Du        
    904 ****        94.0000 147.5000 124.7500 Du        
    905 ****        94.0000 147.5000 125.0000 Du        
    906 ****        94.0000 147.7500 120.5000 Du        
    907 ****        94.0000 147.7500 120.7500 Du        
    908 ****        94.0000 147.7500 121.0000 Du        
    909 ****        94.0000 147.7500 121.2500 Du        
    910 ****        94.0000 147.7500 122.7500 Du        
    911 ****        94.0000 147.7500 123.0000 Du        
    912 ****        94.0000 147.7500 123.2500 Du        
    913 ****        94.0000 147.7500 123.5000 Du        
    914 ****        94.0000 147.7500 123.7500 Du        
    915 ****        94.0000 147.7500 124.0000 Du        
    916 ****        94.0000 147.7500 124.2500 Du        
    917 ****        94.0000 147.7500 124.5000 Du        
    918 ****        94.0000 147.7500 124.7500 Du        
    919 ****        94.0000 147.7500 125.0000 Du        
    920 ****        94.0000 148.0000 120.5000 Du        
    921 ****        94.0000 148.0000 120.7500 Du        
    922 ****        94.0000 148.0000 121.0000 Du        
    923 ****        94.0000 148.0000 121.2500 Du        
    924 ****        94.0000 148.0000 122.7500 Du        
    925 ****        94.0000 148.0000 123.0000 Du        
    926 ****        94.0000 148.0000 123.2500 Du        
    927 ****        94.0000 148.0000 123.5000 Du        
    928 ****        94.0000 148.0000 123.7500 Du        
    929 ****        94.0000 148.0000 124.0000 Du        
    930 ****        94.0000 148.0000 124.2500 Du        
    931 ****        94.0000 148.0000 124.5000 Du        
    932 ****        94.0000 148.0000 124.7500 Du        
    933 ****        94.0000 148.0000 125.0000 Du        
    934 ****        94.0000 148.2500 123.5000 Du        
    935 ****        94.0000 148.2500 123.7500 Du        
    936 ****        94.0000 148.2500 124.0000 Du        
    937 ****        94.0000 148.2500 124.2500 Du        
    938 ****        94.0000 148.2500 124.5000 Du        
    939 ****        94.0000 148.2500 124.7500 Du        
    940 ****        94.0000 148.2500 125.0000 Du        
    941 ****        94.0000 148.5000 124.0000 Du        
    942 ****        94.0000 148.5000 124.2500 Du        
    943 ****        94.0000 148.5000 124.5000 Du        
    944 ****        94.0000 151.5000 122.7500 Du        
    945 ****        94.0000 151.5000 123.0000 Du        
    946 ****        94.0000 151.5000 123.2500 Du        
    947 ****        94.0000 151.7500 120.2500 Du        
    948 ****        94.0000 151.7500 120.5000 Du        
    949 ****        94.0000 151.7500 120.7500 Du        
    950 ****        94.0000 151.7500 121.0000 Du        
    951 ****        94.0000 151.7500 121.2500 Du        
    952 ****        94.0000 151.7500 122.0000 Du        
    953 ****        94.0000 151.7500 122.2500 Du        
    954 ****        94.0000 151.7500 122.5000 Du        
    955 ****        94.0000 151.7500 122.7500 Du        
    956 ****        94.0000 151.7500 123.0000 Du        
    957 ****        94.0000 151.7500 123.2500 Du        
    958 ****        94.0000 151.7500 123.5000 Du        
    959 ****        94.0000 152.0000 118.2500 Du        
    960 ****        94.0000 152.0000 118.5000 Du        
    961 ****        94.0000 152.0000 118.7500 Du        
    962 ****        94.0000 152.0000 119.7500 Du        
    963 ****        94.0000 152.0000 120.0000 Du        
    964 ****        94.0000 152.0000 120.2500 Du        
    965 ****        94.0000 152.0000 120.5000 Du        
    966 ****        94.0000 152.0000 120.7500 Du        
    967 ****        94.0000 152.0000 121.0000 Du        
    968 ****        94.0000 152.0000 121.2500 Du        
    969 ****        94.0000 152.0000 121.5000 Du        
    970 ****        94.0000 152.0000 121.7500 Du        
    971 ****        94.0000 152.0000 122.0000 Du        
    972 ****        94.0000 152.0000 122.2500 Du        
    973 ****        94.0000 152.0000 122.5000 Du        
    974 ****        94.0000 152.0000 122.7500 Du        
    975 ****        94.0000 152.0000 123.0000 Du        
    976 ****        94.0000 152.0000 123.2500 Du        
    977 ****        94.0000 152.0000 123.5000 Du        
    978 ****        94.0000 152.0000 123.7500 Du        
    979 ****        94.0000 152.2500 118.2500 Du        
    980 ****        94.0000 152.2500 118.5000 Du        
    981 ****        94.0000 152.2500 118.7500 Du        
    982 ****        94.0000 152.2500 119.0000 Du        
    983 ****        94.0000 152.2500 119.2500 Du        
    984 ****        94.0000 152.2500 119.7500 Du        
    985 ****        94.0000 152.2500 120.0000 Du        
    986 ****        94.0000 152.2500 120.2500 Du        
    987 ****        94.0000 152.2500 120.5000 Du        
    988 ****        94.0000 152.2500 120.7500 Du        
    989 ****        94.0000 152.2500 121.0000 Du        
    990 ****        94.0000 152.2500 121.2500 Du        
    991 ****        94.0000 152.2500 121.5000 Du        
    992 ****        94.0000 152.2500 121.7500 Du        
    993 ****        94.0000 152.2500 122.0000 Du        
    994 ****        94.0000 152.2500 122.2500 Du        
    995 ****        94.0000 152.2500 122.5000 Du        
    996 ****        94.0000 152.2500 122.7500 Du        
    997 ****        94.0000 152.2500 123.0000 Du        
    998 ****        94.0000 152.2500 123.2500 Du        
    999 ****        94.0000 152.2500 123.5000 Du        
   1000 ****        94.0000 152.2500 123.7500 Du        
   1001 ****        94.0000 152.5000 118.2500 Du        
   1002 ****        94.0000 152.5000 118.5000 Du        
   1003 ****        94.0000 152.5000 118.7500 Du        
   1004 ****        94.0000 152.5000 119.0000 Du        
   1005 ****        94.0000 152.5000 119.2500 Du        
   1006 ****        94.0000 152.5000 119.5000 Du        
   1007 ****        94.0000 152.5000 119.7500 Du        
   1008 ****        94.0000 152.5000 120.0000 Du        
   1009 ****        94.0000 152.5000 120.2500 Du        
   1010 ****        94.0000 152.5000 120.5000 Du        
   1011 ****        94.0000 152.5000 120.7500 Du        
   1012 ****        94.0000 152.5000 121.0000 Du        
   1013 ****        94.0000 152.5000 121.2500 Du        
   1014 ****        94.0000 152.5000 121.5000 Du        
   1015 ****        94.0000 152.5000 121.7500 Du        
   1016 ****        94.0000 152.5000 122.0000 Du        
   1017 ****        94.0000 152.5000 122.2500 Du        
   1018 ****        94.0000 152.5000 122.5000 Du        
   1019 ****        94.0000 152.5000 122.7500 Du        
   1020 ****        94.0000 152.5000 123.0000 Du        
   1021 ****        94.0000 152.5000 123.2500 Du        
   1022 ****        94.0000 152.5000 123.5000 Du        
   1023 ****        94.0000 152.5000 123.7500 Du        
   1024 ****        94.0000 152.7500 118.2500 Du        
   1025 ****        94.0000 152.7500 118.5000 Du        
   1026 ****        94.0000 152.7500 118.7500 Du        
   1027 ****        94.0000 152.7500 119.0000 Du        
   1028 ****        94.0000 152.7500 121.5000 Du        
   1029 ****        94.0000 152.7500 121.7500 Du        
   1030 ****        94.0000 152.7500 122.0000 Du        
   1031 ****        94.0000 152.7500 122.2500 Du        
   1032 ****        94.0000 152.7500 122.5000 Du        
   1033 ****        94.0000 152.7500 122.7500 Du        
   1034 ****        94.0000 152.7500 123.0000 Du        
   1035 ****        94.0000 152.7500 123.2500 Du        
   1036 ****        94.0000 152.7500 123.5000 Du        
   1037 ****        94.0000 153.0000 118.2500 Du        
   1038 ****        94.0000 153.0000 118.5000 Du        
   1039 ****        94.0000 153.0000 118.7500 Du        
   1040 ****        94.0000 153.0000 123.0000 Du        
   1041 ****        94.0000 153.2500 118.2500 Du        
   1042 ****        94.2500 147.2500 120.7500 Du        
   1043 ****        94.2500 147.2500 121.0000 Du        
   1044 ****        94.2500 147.2500 121.2500 Du        
   1045 ****        94.2500 147.2500 124.2500 Du        
   1046 ****        94.2500 147.2500 124.5000 Du        
   1047 ****        94.2500 147.2500 124.7500 Du        
   1048 ****        94.2500 147.5000 120.5000 Du        
   1049 ****        94.2500 147.5000 120.7500 Du        
   1050 ****        94.2500 147.5000 121.0000 Du        
   1051 ****        94.2500 147.5000 121.2500 Du        
   1052 ****        94.2500 147.5000 123.7500 Du        
   1053 ****        94.2500 147.5000 124.0000 Du        
   1054 ****        94.2500 147.5000 124.2500 Du        
   1055 ****        94.2500 147.5000 124.5000 Du        
   1056 ****        94.2500 147.5000 124.7500 Du        
   1057 ****        94.2500 147.5000 125.0000 Du        
   1058 ****        94.2500 147.7500 120.2500 Du        
   1059 ****        94.2500 147.7500 120.5000 Du        
   1060 ****        94.2500 147.7500 120.7500 Du        
   1061 ****        94.2500 147.7500 121.0000 Du        
   1062 ****        94.2500 147.7500 121.2500 Du        
   1063 ****        94.2500 147.7500 123.2500 Du        
   1064 ****        94.2500 147.7500 123.5000 Du        
   1065 ****        94.2500 147.7500 123.7500 Du        
   1066 ****        94.2500 147.7500 124.0000 Du        
   1067 ****        94.2500 147.7500 124.2500 Du        
   1068 ****        94.2500 147.7500 124.5000 Du        
   1069 ****        94.2500 147.7500 124.7500 Du        
   1070 ****        94.2500 147.7500 125.0000 Du        
   1071 ****        94.2500 148.0000 120.2500 Du        
   1072 ****        94.2500 148.0000 120.5000 Du        
   1073 ****        94.2500 148.0000 120.7500 Du        
   1074 ****        94.2500 148.0000 121.0000 Du        
   1075 ****        94.2500 148.0000 121.2500 Du        
   1076 ****        94.2500 148.0000 123.0000 Du        
   1077 ****        94.2500 148.0000 123.2500 Du        
   1078 ****        94.2500 148.0000 123.5000 Du        
   1079 ****        94.2500 148.0000 123.7500 Du        
   1080 ****        94.2500 148.0000 124.0000 Du        
   1081 ****        94.2500 148.0000 124.2500 Du        
   1082 ****        94.2500 148.0000 124.5000 Du        
   1083 ****        94.2500 148.0000 124.7500 Du        
   1084 ****        94.2500 148.0000 125.0000 Du        
   1085 ****        94.2500 148.2500 120.2500 Du        
   1086 ****        94.2500 148.2500 120.7500 Du        
   1087 ****        94.2500 148.2500 121.0000 Du        
   1088 ****        94.2500 148.2500 121.2500 Du        
   1089 ****        94.2500 148.2500 123.2500 Du        
   1090 ****        94.2500 148.2500 123.5000 Du        
   1091 ****        94.2500 148.2500 123.7500 Du        
   1092 ****        94.2500 148.2500 124.0000 Du        
   1093 ****        94.2500 148.2500 124.2500 Du        
   1094 ****        94.2500 148.2500 124.5000 Du        
   1095 ****        94.2500 148.2500 124.7500 Du        
   1096 ****        94.2500 148.2500 125.0000 Du        
   1097 ****        94.2500 148.5000 124.0000 Du        
   1098 ****        94.2500 148.5000 124.2500 Du        
   1099 ****        94.2500 148.5000 124.5000 Du        
   1100 ****        94.2500 148.5000 124.7500 Du        
   1101 ****        94.2500 151.5000 123.2500 Du        
   1102 ****        94.2500 151.7500 120.5000 Du        
   1103 ****        94.2500 151.7500 120.7500 Du        
   1104 ****        94.2500 151.7500 121.0000 Du        
   1105 ****        94.2500 151.7500 121.2500 Du        
   1106 ****        94.2500 151.7500 122.5000 Du        
   1107 ****        94.2500 151.7500 122.7500 Du        
   1108 ****        94.2500 151.7500 123.0000 Du        
   1109 ****        94.2500 151.7500 123.2500 Du        
   1110 ****        94.2500 151.7500 123.5000 Du        
   1111 ****        94.2500 152.0000 120.5000 Du        
   1112 ****        94.2500 152.0000 120.7500 Du        
   1113 ****        94.2500 152.0000 121.0000 Du        
   1114 ****        94.2500 152.0000 121.2500 Du        
   1115 ****        94.2500 152.0000 121.5000 Du        
   1116 ****        94.2500 152.0000 121.7500 Du        
   1117 ****        94.2500 152.0000 122.0000 Du        
   1118 ****        94.2500 152.0000 122.2500 Du        
   1119 ****        94.2500 152.0000 122.5000 Du        
   1120 ****        94.2500 152.0000 122.7500 Du        
   1121 ****        94.2500 152.0000 123.0000 Du        
   1122 ****        94.2500 152.0000 123.2500 Du        
   1123 ****        94.2500 152.0000 123.5000 Du        
   1124 ****        94.2500 152.0000 123.7500 Du        
   1125 ****        94.2500 152.2500 120.5000 Du        
   1126 ****        94.2500 152.2500 120.7500 Du        
   1127 ****        94.2500 152.2500 121.0000 Du        
   1128 ****        94.2500 152.2500 121.2500 Du        
   1129 ****        94.2500 152.2500 121.7500 Du        
   1130 ****        94.2500 152.2500 122.0000 Du        
   1131 ****        94.2500 152.2500 122.2500 Du        
   1132 ****        94.2500 152.2500 122.5000 Du        
   1133 ****        94.2500 152.2500 122.7500 Du        
   1134 ****        94.2500 152.2500 123.0000 Du        
   1135 ****        94.2500 152.2500 123.2500 Du        
   1136 ****        94.2500 152.2500 123.5000 Du        
   1137 ****        94.2500 152.2500 123.7500 Du        
   1138 ****        94.2500 152.2500 124.0000 Du        
   1139 ****        94.2500 152.5000 118.2500 Du        
   1140 ****        94.2500 152.5000 122.2500 Du        
   1141 ****        94.2500 152.5000 122.5000 Du        
   1142 ****        94.2500 152.5000 122.7500 Du        
   1143 ****        94.2500 152.5000 123.0000 Du        
   1144 ****        94.2500 152.5000 123.2500 Du        
   1145 ****        94.2500 152.5000 123.5000 Du        
   1146 ****        94.2500 152.5000 123.7500 Du        
   1147 ****        94.2500 152.5000 124.0000 Du        
   1148 ****        94.2500 152.7500 118.2500 Du        
   1149 ****        94.2500 152.7500 118.5000 Du        
   1150 ****        94.2500 152.7500 123.0000 Du        
   1151 ****        94.2500 152.7500 123.2500 Du        
   1152 ****        94.2500 152.7500 123.5000 Du        
   1153 ****        94.2500 152.7500 123.7500 Du        
   1154 ****        94.2500 153.0000 118.2500 Du        
   1155 ****        94.5000 147.0000 120.7500 Du        
   1156 ****        94.5000 147.2500 120.5000 Du        
   1157 ****        94.5000 147.2500 120.7500 Du        
   1158 ****        94.5000 147.2500 121.0000 Du        
   1159 ****        94.5000 147.5000 120.2500 Du        
   1160 ****        94.5000 147.5000 120.5000 Du        
   1161 ****        94.5000 147.5000 120.7500 Du        
   1162 ****        94.5000 147.5000 121.0000 Du        
   1163 ****        94.5000 147.5000 121.2500 Du        
   1164 ****        94.5000 147.5000 124.2500 Du        
   1165 ****        94.5000 147.7500 120.0000 Du        
   1166 ****        94.5000 147.7500 120.2500 Du        
   1167 ****        94.5000 147.7500 120.5000 Du        
   1168 ****        94.5000 147.7500 120.7500 Du        
   1169 ****        94.5000 147.7500 121.0000 Du        
   1170 ****        94.5000 147.7500 121.2500 Du        
   1171 ****        94.5000 147.7500 121.5000 Du        
   1172 ****        94.5000 147.7500 123.5000 Du        
   1173 ****        94.5000 147.7500 123.7500 Du        
   1174 ****        94.5000 147.7500 124.0000 Du        
   1175 ****        94.5000 147.7500 124.2500 Du        
   1176 ****        94.5000 147.7500 124.5000 Du        
   1177 ****        94.5000 147.7500 124.7500 Du        
   1178 ****        94.5000 147.7500 125.0000 Du        
   1179 ****        94.5000 148.0000 119.7500 Du        
   1180 ****        94.5000 148.0000 120.0000 Du        
   1181 ****        94.5000 148.0000 120.2500 Du        
   1182 ****        94.5000 148.0000 120.5000 Du        
   1183 ****        94.5000 148.0000 120.7500 Du        
   1184 ****        94.5000 148.0000 121.0000 Du        
   1185 ****        94.5000 148.0000 121.2500 Du        
   1186 ****        94.5000 148.0000 121.5000 Du        
   1187 ****        94.5000 148.0000 121.7500 Du        
   1188 ****        94.5000 148.0000 122.0000 Du        
   1189 ****        94.5000 148.0000 123.2500 Du        
   1190 ****        94.5000 148.0000 123.5000 Du        
   1191 ****        94.5000 148.0000 123.7500 Du        
   1192 ****        94.5000 148.0000 124.0000 Du        
   1193 ****        94.5000 148.0000 124.2500 Du        
   1194 ****        94.5000 148.0000 124.5000 Du        
   1195 ****        94.5000 148.0000 124.7500 Du        
   1196 ****        94.5000 148.0000 125.0000 Du        
   1197 ****        94.5000 148.2500 119.7500 Du        
   1198 ****        94.5000 148.2500 120.0000 Du        
   1199 ****        94.5000 148.2500 120.2500 Du        
   1200 ****        94.5000 148.2500 120.5000 Du        
   1201 ****        94.5000 148.2500 120.7500 Du        
   1202 ****        94.5000 148.2500 121.0000 Du        
   1203 ****        94.5000 148.2500 121.2500 Du        
   1204 ****        94.5000 148.2500 121.5000 Du        
   1205 ****        94.5000 148.2500 121.7500 Du        
   1206 ****        94.5000 148.2500 122.0000 Du        
   1207 ****        94.5000 148.2500 122.2500 Du        
   1208 ****        94.5000 148.2500 123.0000 Du        
   1209 ****        94.5000 148.2500 123.2500 Du        
   1210 ****        94.5000 148.2500 123.5000 Du        
   1211 ****        94.5000 148.2500 123.7500 Du        
   1212 ****        94.5000 148.2500 124.0000 Du        
   1213 ****        94.5000 148.2500 124.2500 Du        
   1214 ****        94.5000 148.2500 124.5000 Du        
   1215 ****        94.5000 148.2500 124.7500 Du        
   1216 ****        94.5000 148.2500 125.0000 Du        
   1217 ****        94.5000 148.5000 119.5000 Du        
   1218 ****        94.5000 148.5000 119.7500 Du        
   1219 ****        94.5000 148.5000 120.0000 Du        
   1220 ****        94.5000 148.5000 120.2500 Du        
   1221 ****        94.5000 148.5000 120.5000 Du        
   1222 ****        94.5000 148.5000 120.7500 Du        
   1223 ****        94.5000 148.5000 121.0000 Du        
   1224 ****        94.5000 148.5000 121.2500 Du        
   1225 ****        94.5000 148.5000 121.5000 Du        
   1226 ****        94.5000 148.5000 121.7500 Du        
   1227 ****        94.5000 148.5000 124.0000 Du        
   1228 ****        94.5000 148.5000 124.2500 Du        
   1229 ****        94.5000 148.5000 124.5000 Du        
   1230 ****        94.5000 148.5000 124.7500 Du        
   1231 ****        94.5000 148.7500 119.0000 Du        
   1232 ****        94.5000 148.7500 119.2500 Du        
   1233 ****        94.5000 148.7500 119.5000 Du        
   1234 ****        94.5000 148.7500 119.7500 Du        
   1235 ****        94.5000 148.7500 120.0000 Du        
   1236 ****        94.5000 148.7500 120.2500 Du        
   1237 ****        94.5000 148.7500 120.5000 Du        
   1238 ****        94.5000 148.7500 124.2500 Du        
   1239 ****        94.5000 148.7500 124.5000 Du        
   1240 ****        94.5000 149.0000 119.0000 Du        
   1241 ****        94.5000 149.0000 119.2500 Du        
   1242 ****        94.5000 149.0000 119.5000 Du        
   1243 ****        94.5000 151.5000 121.5000 Du        
   1244 ****        94.5000 151.7500 120.7500 Du        
   1245 ****        94.5000 151.7500 121.0000 Du        
   1246 ****        94.5000 151.7500 121.2500 Du        
   1247 ****        94.5000 151.7500 121.5000 Du        
   1248 ****        94.5000 151.7500 121.7500 Du        
   1249 ****        94.5000 151.7500 123.0000 Du        
   1250 ****        94.5000 152.0000 120.7500 Du        
   1251 ****        94.5000 152.0000 121.0000 Du        
   1252 ****        94.5000 152.0000 121.2500 Du        
   1253 ****        94.5000 152.0000 121.5000 Du        
   1254 ****        94.5000 152.0000 121.7500 Du        
   1255 ****        94.5000 152.0000 122.0000 Du        
   1256 ****        94.5000 152.0000 122.7500 Du        
   1257 ****        94.5000 152.0000 123.0000 Du        
   1258 ****        94.5000 152.0000 123.2500 Du        
   1259 ****        94.5000 152.0000 123.5000 Du        
   1260 ****        94.5000 152.0000 123.7500 Du        
   1261 ****        94.5000 152.2500 123.0000 Du        
   1262 ****        94.5000 152.2500 123.2500 Du        
   1263 ****        94.5000 152.2500 123.5000 Du        
   1264 ****        94.5000 152.2500 123.7500 Du        
   1265 ****        94.5000 152.5000 123.2500 Du        
   1266 ****        94.5000 152.5000 123.5000 Du        
   1267 ****        94.5000 152.5000 123.7500 Du        
   1268 ****        94.5000 152.5000 124.0000 Du        
   1269 ****        94.5000 152.7500 123.5000 Du        
   1270 ****        94.5000 152.7500 123.7500 Du        
   1271 ****        94.5000 152.7500 124.0000 Du        
   1272 ****        94.7500 147.0000 120.5000 Du        
   1273 ****        94.7500 147.0000 120.7500 Du        
   1274 ****        94.7500 147.2500 120.2500 Du        
   1275 ****        94.7500 147.2500 120.5000 Du        
   1276 ****        94.7500 147.2500 120.7500 Du        
   1277 ****        94.7500 147.2500 121.0000 Du        
   1278 ****        94.7500 147.5000 120.0000 Du        
   1279 ****        94.7500 147.5000 120.2500 Du        
   1280 ****        94.7500 147.5000 120.5000 Du        
   1281 ****        94.7500 147.5000 120.7500 Du        
   1282 ****        94.7500 147.5000 121.0000 Du        
   1283 ****        94.7500 147.5000 121.2500 Du        
   1284 ****        94.7500 147.7500 119.7500 Du        
   1285 ****        94.7500 147.7500 120.0000 Du        
   1286 ****        94.7500 147.7500 120.2500 Du        
   1287 ****        94.7500 147.7500 120.5000 Du        
   1288 ****        94.7500 147.7500 120.7500 Du        
   1289 ****        94.7500 147.7500 121.0000 Du        
   1290 ****        94.7500 147.7500 121.2500 Du        
   1291 ****        94.7500 147.7500 121.5000 Du        
   1292 ****        94.7500 147.7500 124.0000 Du        
   1293 ****        94.7500 147.7500 124.2500 Du        
   1294 ****        94.7500 147.7500 124.5000 Du        
   1295 ****        94.7500 148.0000 119.5000 Du        
   1296 ****        94.7500 148.0000 119.7500 Du        
   1297 ****        94.7500 148.0000 120.0000 Du        
   1298 ****        94.7500 148.0000 120.2500 Du        
   1299 ****        94.7500 148.0000 120.5000 Du        
   1300 ****        94.7500 148.0000 120.7500 Du        
   1301 ****        94.7500 148.0000 121.0000 Du        
   1302 ****        94.7500 148.0000 121.2500 Du        
   1303 ****        94.7500 148.0000 121.5000 Du        
   1304 ****        94.7500 148.0000 121.7500 Du        
   1305 ****        94.7500 148.0000 122.0000 Du        
   1306 ****        94.7500 148.0000 122.2500 Du        
   1307 ****        94.7500 148.0000 123.5000 Du        
   1308 ****        94.7500 148.0000 123.7500 Du        
   1309 ****        94.7500 148.0000 124.0000 Du        
   1310 ****        94.7500 148.0000 124.2500 Du        
   1311 ****        94.7500 148.0000 124.5000 Du        
   1312 ****        94.7500 148.0000 124.7500 Du        
   1313 ****        94.7500 148.0000 125.0000 Du        
   1314 ****        94.7500 148.2500 119.2500 Du        
   1315 ****        94.7500 148.2500 119.5000 Du        
   1316 ****        94.7500 148.2500 119.7500 Du        
   1317 ****        94.7500 148.2500 120.0000 Du        
   1318 ****        94.7500 148.2500 120.2500 Du        
   1319 ****        94.7500 148.2500 120.5000 Du        
   1320 ****        94.7500 148.2500 120.7500 Du        
   1321 ****        94.7500 148.2500 121.0000 Du        
   1322 ****        94.7500 148.2500 121.2500 Du        
   1323 ****        94.7500 148.2500 121.5000 Du        
   1324 ****        94.7500 148.2500 121.7500 Du        
   1325 ****        94.7500 148.2500 122.0000 Du        
   1326 ****        94.7500 148.2500 122.2500 Du        
   1327 ****        94.7500 148.2500 123.0000 Du        
   1328 ****        94.7500 148.2500 123.2500 Du        
   1329 ****        94.7500 148.2500 123.5000 Du        
   1330 ****        94.7500 148.2500 123.7500 Du        
   1331 ****        94.7500 148.2500 124.0000 Du        
   1332 ****        94.7500 148.2500 124.2500 Du        
   1333 ****        94.7500 148.2500 124.5000 Du        
   1334 ****        94.7500 148.2500 124.7500 Du        
   1335 ****        94.7500 148.2500 125.0000 Du        
   1336 ****        94.7500 148.5000 119.0000 Du        
   1337 ****        94.7500 148.5000 119.2500 Du        
   1338 ****        94.7500 148.5000 119.5000 Du        
   1339 ****        94.7500 148.5000 119.7500 Du        
   1340 ****        94.7500 148.5000 120.0000 Du        
   1341 ****        94.7500 148.5000 120.2500 Du        
   1342 ****        94.7500 148.5000 120.5000 Du        
   1343 ****        94.7500 148.5000 120.7500 Du        
   1344 ****        94.7500 148.5000 121.0000 Du        
   1345 ****        94.7500 148.5000 121.2500 Du        
   1346 ****        94.7500 148.5000 121.5000 Du        
   1347 ****        94.7500 148.5000 121.7500 Du        
   1348 ****        94.7500 148.5000 122.0000 Du        
   1349 ****        94.7500 148.5000 122.2500 Du        
   1350 ****        94.7500 148.5000 124.0000 Du        
   1351 ****        94.7500 148.5000 124.2500 Du        
   1352 ****        94.7500 148.5000 124.5000 Du        
   1353 ****        94.7500 148.5000 124.7500 Du        
   1354 ****        94.7500 148.7500 118.7500 Du        
   1355 ****        94.7500 148.7500 119.0000 Du        
   1356 ****        94.7500 148.7500 119.2500 Du        
   1357 ****        94.7500 148.7500 119.5000 Du        
   1358 ****        94.7500 148.7500 119.7500 Du        
   1359 ****        94.7500 148.7500 120.0000 Du        
   1360 ****        94.7500 148.7500 120.2500 Du        
   1361 ****        94.7500 148.7500 120.5000 Du        
   1362 ****        94.7500 148.7500 120.7500 Du        
   1363 ****        94.7500 148.7500 121.0000 Du        
   1364 ****        94.7500 148.7500 121.2500 Du        
   1365 ****        94.7500 148.7500 121.5000 Du        
   1366 ****        94.7500 148.7500 121.7500 Du        
   1367 ****        94.7500 148.7500 122.0000 Du        
   1368 ****        94.7500 148.7500 124.0000 Du        
   1369 ****        94.7500 148.7500 124.2500 Du        
   1370 ****        94.7500 148.7500 124.5000 Du        
   1371 ****        94.7500 148.7500 124.7500 Du        
   1372 ****        94.7500 149.0000 119.0000 Du        
   1373 ****        94.7500 149.0000 119.2500 Du        
   1374 ****        94.7500 149.0000 119.5000 Du        
   1375 ****        94.7500 149.0000 119.7500 Du        
   1376 ****        94.7500 149.0000 120.0000 Du        
   1377 ****        94.7500 149.0000 120.2500 Du        
   1378 ****        94.7500 149.0000 120.5000 Du        
   1379 ****        94.7500 149.0000 121.0000 Du        
   1380 ****        94.7500 149.0000 121.2500 Du        
   1381 ****        94.7500 149.0000 121.5000 Du        
   1382 ****        94.7500 149.0000 121.7500 Du        
   1383 ****        94.7500 149.2500 119.5000 Du        
   1384 ****        94.7500 149.2500 119.7500 Du        
   1385 ****        94.7500 151.7500 121.5000 Du        
   1386 ****        94.7500 152.0000 123.2500 Du        
   1387 ****        94.7500 152.0000 123.5000 Du        
   1388 ****        94.7500 152.0000 123.7500 Du        
   1389 ****        94.7500 152.2500 123.5000 Du        
   1390 ****        94.7500 152.2500 123.7500 Du        
   1391 ****        94.7500 152.2500 124.0000 Du        
   1392 ****        94.7500 152.5000 123.5000 Du        
   1393 ****        94.7500 152.5000 123.7500 Du        
   1394 ****        94.7500 152.5000 124.0000 Du        
   1395 ****        94.7500 152.5000 124.2500 Du        
   1396 ****        94.7500 152.7500 123.7500 Du        
   1397 ****        94.7500 152.7500 124.0000 Du        
   1398 ****        94.7500 152.7500 124.2500 Du        
   1399 ****        95.0000 147.0000 120.2500 Du        
   1400 ****        95.0000 147.0000 120.5000 Du        
   1401 ****        95.0000 147.0000 120.7500 Du        
   1402 ****        95.0000 147.2500 120.0000 Du        
   1403 ****        95.0000 147.2500 120.2500 Du        
   1404 ****        95.0000 147.2500 120.5000 Du        
   1405 ****        95.0000 147.2500 120.7500 Du        
   1406 ****        95.0000 147.2500 121.0000 Du        
   1407 ****        95.0000 147.5000 119.7500 Du        
   1408 ****        95.0000 147.5000 120.0000 Du        
   1409 ****        95.0000 147.5000 120.2500 Du        
   1410 ****        95.0000 147.5000 120.5000 Du        
   1411 ****        95.0000 147.5000 120.7500 Du        
   1412 ****        95.0000 147.5000 121.0000 Du        
   1413 ****        95.0000 147.5000 121.2500 Du        
   1414 ****        95.0000 147.7500 119.5000 Du        
   1415 ****        95.0000 147.7500 119.7500 Du        
   1416 ****        95.0000 147.7500 120.0000 Du        
   1417 ****        95.0000 147.7500 120.2500 Du        
   1418 ****        95.0000 147.7500 120.5000 Du        
   1419 ****        95.0000 147.7500 120.7500 Du        
   1420 ****        95.0000 147.7500 121.0000 Du        
   1421 ****        95.0000 147.7500 121.2500 Du        
   1422 ****        95.0000 147.7500 121.5000 Du        
   1423 ****        95.0000 148.0000 119.2500 Du        
   1424 ****        95.0000 148.0000 119.5000 Du        
   1425 ****        95.0000 148.0000 119.7500 Du        
   1426 ****        95.0000 148.0000 120.0000 Du        
   1427 ****        95.0000 148.0000 120.2500 Du        
   1428 ****        95.0000 148.0000 120.5000 Du        
   1429 ****        95.0000 148.0000 120.7500 Du        
   1430 ****        95.0000 148.0000 121.0000 Du        
   1431 ****        95.0000 148.0000 121.2500 Du        
   1432 ****        95.0000 148.0000 121.5000 Du        
   1433 ****        95.0000 148.0000 121.7500 Du        
   1434 ****        95.0000 148.0000 122.0000 Du        
   1435 ****        95.0000 148.0000 123.7500 Du        
   1436 ****        95.0000 148.0000 124.0000 Du        
   1437 ****        95.0000 148.0000 124.2500 Du        
   1438 ****        95.0000 148.0000 124.5000 Du        
   1439 ****        95.0000 148.2500 119.0000 Du        
   1440 ****        95.0000 148.2500 119.2500 Du        
   1441 ****        95.0000 148.2500 119.5000 Du        
   1442 ****        95.0000 148.2500 119.7500 Du        
   1443 ****        95.0000 148.2500 120.0000 Du        
   1444 ****        95.0000 148.2500 120.2500 Du        
   1445 ****        95.0000 148.2500 120.5000 Du        
   1446 ****        95.0000 148.2500 120.7500 Du        
   1447 ****        95.0000 148.2500 121.0000 Du        
   1448 ****        95.0000 148.2500 121.2500 Du        
   1449 ****        95.0000 148.2500 121.5000 Du        
   1450 ****        95.0000 148.2500 121.7500 Du        
   1451 ****        95.0000 148.2500 122.0000 Du        
   1452 ****        95.0000 148.2500 122.2500 Du        
   1453 ****        95.0000 148.2500 123.0000 Du        
   1454 ****        95.0000 148.2500 123.5000 Du        
   1455 ****        95.0000 148.2500 123.7500 Du        
   1456 ****        95.0000 148.2500 124.0000 Du        
   1457 ****        95.0000 148.2500 124.2500 Du        
   1458 ****        95.0000 148.2500 124.5000 Du        
   1459 ****        95.0000 148.2500 124.7500 Du        
   1460 ****        95.0000 148.5000 118.7500 Du        
   1461 ****        95.0000 148.5000 119.0000 Du        
   1462 ****        95.0000 148.5000 119.2500 Du        
   1463 ****        95.0000 148.5000 119.5000 Du        
   1464 ****        95.0000 148.5000 119.7500 Du        
   1465 ****        95.0000 148.5000 120.0000 Du        
   1466 ****        95.0000 148.5000 120.2500 Du        
   1467 ****        95.0000 148.5000 120.5000 Du        
   1468 ****        95.0000 148.5000 120.7500 Du        
   1469 ****        95.0000 148.5000 121.0000 Du        
   1470 ****        95.0000 148.5000 121.2500 Du        
   1471 ****        95.0000 148.5000 121.5000 Du        
   1472 ****        95.0000 148.5000 121.7500 Du        
   1473 ****        95.0000 148.5000 122.0000 Du        
   1474 ****        95.0000 148.5000 122.2500 Du        
   1475 ****        95.0000 148.5000 124.0000 Du        
   1476 ****        95.0000 148.5000 124.2500 Du        
   1477 ****        95.0000 148.5000 124.5000 Du        
   1478 ****        95.0000 148.5000 124.7500 Du        
   1479 ****        95.0000 148.7500 118.7500 Du        
   1480 ****        95.0000 148.7500 119.0000 Du        
   1481 ****        95.0000 148.7500 119.2500 Du        
   1482 ****        95.0000 148.7500 119.5000 Du        
   1483 ****        95.0000 148.7500 119.7500 Du        
   1484 ****        95.0000 148.7500 120.0000 Du        
   1485 ****        95.0000 148.7500 120.2500 Du        
   1486 ****        95.0000 148.7500 120.5000 Du        
   1487 ****        95.0000 148.7500 120.7500 Du        
   1488 ****        95.0000 148.7500 121.0000 Du        
   1489 ****        95.0000 148.7500 121.2500 Du        
   1490 ****        95.0000 148.7500 121.5000 Du        
   1491 ****        95.0000 148.7500 121.7500 Du        
   1492 ****        95.0000 148.7500 122.0000 Du        
   1493 ****        95.0000 148.7500 122.2500 Du        
   1494 ****        95.0000 148.7500 124.0000 Du        
   1495 ****        95.0000 148.7500 124.2500 Du        
   1496 ****        95.0000 148.7500 124.5000 Du        
   1497 ****        95.0000 148.7500 124.7500 Du        
   1498 ****        95.0000 149.0000 119.0000 Du        
   1499 ****        95.0000 149.0000 119.2500 Du        
   1500 ****        95.0000 149.0000 119.5000 Du        
   1501 ****        95.0000 149.0000 119.7500 Du        
   1502 ****        95.0000 149.0000 120.0000 Du        
   1503 ****        95.0000 149.0000 120.2500 Du        
   1504 ****        95.0000 149.0000 120.5000 Du        
   1505 ****        95.0000 149.0000 120.7500 Du        
   1506 ****        95.0000 149.0000 121.0000 Du        
   1507 ****        95.0000 149.0000 121.2500 Du        
   1508 ****        95.0000 149.0000 121.5000 Du        
   1509 ****        95.0000 149.0000 121.7500 Du        
   1510 ****        95.0000 149.0000 122.0000 Du        
   1511 ****        95.0000 149.0000 124.0000 Du        
   1512 ****        95.0000 149.0000 124.2500 Du        
   1513 ****        95.0000 149.0000 124.5000 Du        
   1514 ****        95.0000 149.2500 119.5000 Du        
   1515 ****        95.0000 149.2500 119.7500 Du        
   1516 ****        95.0000 149.2500 120.0000 Du        
   1517 ****        95.0000 149.2500 120.2500 Du        
   1518 ****        95.0000 149.2500 120.5000 Du        
   1519 ****        95.0000 149.2500 120.7500 Du        
   1520 ****        95.0000 149.2500 121.0000 Du        
   1521 ****        95.0000 152.0000 123.7500 Du        
   1522 ****        95.0000 152.0000 124.0000 Du        
   1523 ****        95.0000 152.2500 123.7500 Du        
   1524 ****        95.0000 152.2500 124.0000 Du        
   1525 ****        95.0000 152.5000 124.0000 Du        
   1526 ****        95.0000 152.5000 124.2500 Du        
   1527 ****        95.0000 152.7500 124.0000 Du        
   1528 ****        95.0000 152.7500 124.2500 Du        
   1529 ****        95.0000 152.7500 124.5000 Du        
   1530 ****        95.0000 153.0000 124.2500 Du        
   1531 ****        95.0000 153.0000 124.5000 Du        
   1532 ****        95.0000 153.0000 124.7500 Du        
   1533 ****        95.2500 147.2500 120.0000 Du        
   1534 ****        95.2500 147.2500 120.2500 Du        
   1535 ****        95.2500 147.2500 120.5000 Du        
   1536 ****        95.2500 147.2500 120.7500 Du        
   1537 ****        95.2500 147.5000 119.7500 Du        
   1538 ****        95.2500 147.5000 120.0000 Du        
   1539 ****        95.2500 147.5000 120.2500 Du        
   1540 ****        95.2500 147.5000 120.5000 Du        
   1541 ****        95.2500 147.5000 120.7500 Du        
   1542 ****        95.2500 147.5000 121.0000 Du        
   1543 ****        95.2500 147.7500 119.5000 Du        
   1544 ****        95.2500 147.7500 119.7500 Du        
   1545 ****        95.2500 147.7500 120.0000 Du        
   1546 ****        95.2500 147.7500 120.2500 Du        
   1547 ****        95.2500 147.7500 120.5000 Du        
   1548 ****        95.2500 147.7500 120.7500 Du        
   1549 ****        95.2500 147.7500 121.0000 Du        
   1550 ****        95.2500 147.7500 121.2500 Du        
   1551 ****        95.2500 148.0000 119.2500 Du        
   1552 ****        95.2500 148.0000 119.5000 Du        
   1553 ****        95.2500 148.0000 119.7500 Du        
   1554 ****        95.2500 148.0000 120.0000 Du        
   1555 ****        95.2500 148.0000 120.2500 Du        
   1556 ****        95.2500 148.0000 120.5000 Du        
   1557 ****        95.2500 148.0000 120.7500 Du        
   1558 ****        95.2500 148.0000 121.0000 Du        
   1559 ****        95.2500 148.0000 121.2500 Du        
   1560 ****        95.2500 148.0000 121.5000 Du        
   1561 ****        95.2500 148.0000 121.7500 Du        
   1562 ****        95.2500 148.0000 122.0000 Du        
   1563 ****        95.2500 148.2500 119.0000 Du        
   1564 ****        95.2500 148.2500 119.2500 Du        
   1565 ****        95.2500 148.2500 119.5000 Du        
   1566 ****        95.2500 148.2500 119.7500 Du        
   1567 ****        95.2500 148.2500 120.0000 Du        
   1568 ****        95.2500 148.2500 120.2500 Du        
   1569 ****        95.2500 148.2500 120.5000 Du        
   1570 ****        95.2500 148.2500 120.7500 Du        
   1571 ****        95.2500 148.2500 121.0000 Du        
   1572 ****        95.2500 148.2500 121.2500 Du        
   1573 ****        95.2500 148.2500 121.5000 Du        
   1574 ****        95.2500 148.2500 121.7500 Du        
   1575 ****        95.2500 148.2500 122.0000 Du        
   1576 ****        95.2500 148.2500 122.2500 Du        
   1577 ****        95.2500 148.2500 123.0000 Du        
   1578 ****        95.2500 148.2500 123.2500 Du        
   1579 ****        95.2500 148.2500 123.5000 Du        
   1580 ****        95.2500 148.2500 123.7500 Du        
   1581 ****        95.2500 148.2500 124.0000 Du        
   1582 ****        95.2500 148.2500 124.2500 Du        
   1583 ****        95.2500 148.2500 124.5000 Du        
   1584 ****        95.2500 148.5000 119.0000 Du        
   1585 ****        95.2500 148.5000 119.2500 Du        
   1586 ****        95.2500 148.5000 119.5000 Du        
   1587 ****        95.2500 148.5000 119.7500 Du        
   1588 ****        95.2500 148.5000 120.0000 Du        
   1589 ****        95.2500 148.5000 120.2500 Du        
   1590 ****        95.2500 148.5000 120.5000 Du        
   1591 ****        95.2500 148.5000 120.7500 Du        
   1592 ****        95.2500 148.5000 121.0000 Du        
   1593 ****        95.2500 148.5000 121.2500 Du        
   1594 ****        95.2500 148.5000 121.5000 Du        
   1595 ****        95.2500 148.5000 121.7500 Du        
   1596 ****        95.2500 148.5000 122.0000 Du        
   1597 ****        95.2500 148.5000 122.2500 Du        
   1598 ****        95.2500 148.5000 124.2500 Du        
   1599 ****        95.2500 148.5000 124.5000 Du        
   1600 ****        95.2500 148.5000 124.7500 Du        
   1601 ****        95.2500 148.7500 119.0000 Du        
   1602 ****        95.2500 148.7500 119.2500 Du        
   1603 ****        95.2500 148.7500 119.5000 Du        
   1604 ****        95.2500 148.7500 119.7500 Du        
   1605 ****        95.2500 148.7500 120.0000 Du        
   1606 ****        95.2500 148.7500 120.2500 Du        
   1607 ****        95.2500 148.7500 120.5000 Du        
   1608 ****        95.2500 148.7500 120.7500 Du        
   1609 ****        95.2500 148.7500 121.0000 Du        
   1610 ****        95.2500 148.7500 121.2500 Du        
   1611 ****        95.2500 148.7500 121.5000 Du        
   1612 ****        95.2500 148.7500 121.7500 Du        
   1613 ****        95.2500 148.7500 122.0000 Du        
   1614 ****        95.2500 148.7500 122.2500 Du        
   1615 ****        95.2500 148.7500 123.0000 Du        
   1616 ****        95.2500 148.7500 124.0000 Du        
   1617 ****        95.2500 148.7500 124.2500 Du        
   1618 ****        95.2500 148.7500 124.5000 Du        
   1619 ****        95.2500 148.7500 124.7500 Du        
   1620 ****        95.2500 149.0000 119.2500 Du        
   1621 ****        95.2500 149.0000 119.5000 Du        
   1622 ****        95.2500 149.0000 119.7500 Du        
   1623 ****        95.2500 149.0000 120.0000 Du        
   1624 ****        95.2500 149.0000 120.2500 Du        
   1625 ****        95.2500 149.0000 120.5000 Du        
   1626 ****        95.2500 149.0000 120.7500 Du        
   1627 ****        95.2500 149.0000 121.0000 Du        
   1628 ****        95.2500 149.0000 121.2500 Du        
   1629 ****        95.2500 149.0000 121.5000 Du        
   1630 ****        95.2500 149.0000 121.7500 Du        
   1631 ****        95.2500 149.0000 122.0000 Du        
   1632 ****        95.2500 149.0000 122.2500 Du        
   1633 ****        95.2500 149.0000 124.0000 Du        
   1634 ****        95.2500 149.0000 124.2500 Du        
   1635 ****        95.2500 149.0000 124.5000 Du        
   1636 ****        95.2500 149.0000 124.7500 Du        
   1637 ****        95.2500 149.2500 119.5000 Du        
   1638 ****        95.2500 149.2500 119.7500 Du        
   1639 ****        95.2500 149.2500 120.0000 Du        
   1640 ****        95.2500 149.2500 120.2500 Du        
   1641 ****        95.2500 149.2500 120.5000 Du        
   1642 ****        95.2500 149.2500 120.7500 Du        
   1643 ****        95.2500 149.2500 121.0000 Du        
   1644 ****        95.2500 149.2500 121.2500 Du        
   1645 ****        95.2500 149.2500 121.7500 Du        
   1646 ****        95.2500 149.2500 122.0000 Du        
   1647 ****        95.2500 149.2500 124.5000 Du        
   1648 ****        95.2500 149.5000 120.5000 Du        
   1649 ****        95.2500 149.5000 120.7500 Du        
   1650 ****        95.2500 149.5000 121.0000 Du        
   1651 ****        95.2500 149.7500 120.5000 Du        
   1652 ****        95.2500 149.7500 120.7500 Du        
   1653 ****        95.2500 149.7500 121.0000 Du        
   1654 ****        95.2500 150.0000 121.0000 Du        
   1655 ****        95.2500 152.2500 124.2500 Du        
   1656 ****        95.2500 152.5000 124.2500 Du        
   1657 ****        95.2500 152.7500 124.7500 Du        
   1658 ****        95.2500 153.0000 124.7500 Du        
   1659 ****        95.2500 153.0000 125.0000 Du        
   1660 ****        95.2500 153.0000 125.2500 Du        
   1661 ****        95.2500 153.2500 124.7500 Du        
   1662 ****        95.2500 153.2500 125.0000 Du        
   1663 ****        95.2500 153.2500 125.2500 Du        
   1664 ****        95.2500 153.5000 125.0000 Du        
   1665 ****        95.2500 153.5000 125.2500 Du        
   1666 ****        95.5000 147.5000 120.0000 Du        
   1667 ****        95.5000 147.5000 120.2500 Du        
   1668 ****        95.5000 147.5000 120.5000 Du        
   1669 ****        95.5000 147.5000 120.7500 Du        
   1670 ****        95.5000 147.7500 119.5000 Du        
   1671 ****        95.5000 147.7500 119.7500 Du        
   1672 ****        95.5000 147.7500 120.0000 Du        
   1673 ****        95.5000 147.7500 120.2500 Du        
   1674 ****        95.5000 147.7500 120.5000 Du        
   1675 ****        95.5000 147.7500 120.7500 Du        
   1676 ****        95.5000 147.7500 121.0000 Du        
   1677 ****        95.5000 147.7500 121.2500 Du        
   1678 ****        95.5000 148.0000 119.2500 Du        
   1679 ****        95.5000 148.0000 119.5000 Du        
   1680 ****        95.5000 148.0000 119.7500 Du        
   1681 ****        95.5000 148.0000 120.0000 Du        
   1682 ****        95.5000 148.0000 120.2500 Du        
   1683 ****        95.5000 148.0000 120.5000 Du        
   1684 ****        95.5000 148.0000 120.7500 Du        
   1685 ****        95.5000 148.0000 121.0000 Du        
   1686 ****        95.5000 148.0000 121.2500 Du        
   1687 ****        95.5000 148.0000 121.5000 Du        
   1688 ****        95.5000 148.0000 121.7500 Du        
   1689 ****        95.5000 148.0000 122.0000 Du        
   1690 ****        95.5000 148.2500 119.2500 Du        
   1691 ****        95.5000 148.2500 119.5000 Du        
   1692 ****        95.5000 148.2500 119.7500 Du        
   1693 ****        95.5000 148.2500 120.0000 Du        
   1694 ****        95.5000 148.2500 120.2500 Du        
   1695 ****        95.5000 148.2500 120.5000 Du        
   1696 ****        95.5000 148.2500 120.7500 Du        
   1697 ****        95.5000 148.2500 121.0000 Du        
   1698 ****        95.5000 148.2500 121.2500 Du        
   1699 ****        95.5000 148.2500 121.5000 Du        
   1700 ****        95.5000 148.2500 121.7500 Du        
   1701 ****        95.5000 148.2500 122.0000 Du        
   1702 ****        95.5000 148.2500 122.2500 Du        
   1703 ****        95.5000 148.2500 122.5000 Du        
   1704 ****        95.5000 148.2500 122.7500 Du        
   1705 ****        95.5000 148.2500 123.0000 Du        
   1706 ****        95.5000 148.2500 123.2500 Du        
   1707 ****        95.5000 148.2500 123.5000 Du        
   1708 ****        95.5000 148.2500 123.7500 Du        
   1709 ****        95.5000 148.5000 119.2500 Du        
   1710 ****        95.5000 148.5000 119.5000 Du        
   1711 ****        95.5000 148.5000 119.7500 Du        
   1712 ****        95.5000 148.5000 120.0000 Du        
   1713 ****        95.5000 148.5000 120.2500 Du        
   1714 ****        95.5000 148.5000 120.5000 Du        
   1715 ****        95.5000 148.5000 120.7500 Du        
   1716 ****        95.5000 148.5000 121.0000 Du        
   1717 ****        95.5000 148.5000 121.2500 Du        
   1718 ****        95.5000 148.5000 121.5000 Du        
   1719 ****        95.5000 148.5000 121.7500 Du        
   1720 ****        95.5000 148.5000 122.0000 Du        
   1721 ****        95.5000 148.5000 122.2500 Du        
   1722 ****        95.5000 148.5000 122.5000 Du        
   1723 ****        95.5000 148.5000 122.7500 Du        
   1724 ****        95.5000 148.5000 123.0000 Du        
   1725 ****        95.5000 148.5000 123.2500 Du        
   1726 ****        95.5000 148.5000 123.5000 Du        
   1727 ****        95.5000 148.5000 124.5000 Du        
   1728 ****        95.5000 148.7500 119.2500 Du        
   1729 ****        95.5000 148.7500 119.5000 Du        
   1730 ****        95.5000 148.7500 119.7500 Du        
   1731 ****        95.5000 148.7500 120.0000 Du        
   1732 ****        95.5000 148.7500 120.2500 Du        
   1733 ****        95.5000 148.7500 120.5000 Du        
   1734 ****        95.5000 148.7500 120.7500 Du        
   1735 ****        95.5000 148.7500 121.0000 Du        
   1736 ****        95.5000 148.7500 121.2500 Du        
   1737 ****        95.5000 148.7500 121.5000 Du        
   1738 ****        95.5000 148.7500 121.7500 Du        
   1739 ****        95.5000 148.7500 122.0000 Du        
   1740 ****        95.5000 148.7500 122.2500 Du        
   1741 ****        95.5000 148.7500 122.5000 Du        
   1742 ****        95.5000 148.7500 122.7500 Du        
   1743 ****        95.5000 148.7500 123.0000 Du        
   1744 ****        95.5000 148.7500 123.2500 Du        
   1745 ****        95.5000 148.7500 123.5000 Du        
   1746 ****        95.5000 148.7500 123.7500 Du        
   1747 ****        95.5000 148.7500 124.0000 Du        
   1748 ****        95.5000 148.7500 124.2500 Du        
   1749 ****        95.5000 148.7500 124.5000 Du        
   1750 ****        95.5000 148.7500 124.7500 Du        
   1751 ****        95.5000 149.0000 119.5000 Du        
   1752 ****        95.5000 149.0000 119.7500 Du        
   1753 ****        95.5000 149.0000 120.0000 Du        
   1754 ****        95.5000 149.0000 120.2500 Du        
   1755 ****        95.5000 149.0000 120.5000 Du        
   1756 ****        95.5000 149.0000 120.7500 Du        
   1757 ****        95.5000 149.0000 121.0000 Du        
   1758 ****        95.5000 149.0000 121.2500 Du        
   1759 ****        95.5000 149.0000 121.5000 Du        
   1760 ****        95.5000 149.0000 121.7500 Du        
   1761 ****        95.5000 149.0000 122.0000 Du        
   1762 ****        95.5000 149.0000 122.2500 Du        
   1763 ****        95.5000 149.0000 122.5000 Du        
   1764 ****        95.5000 149.0000 122.7500 Du        
   1765 ****        95.5000 149.0000 123.0000 Du        
   1766 ****        95.5000 149.0000 123.2500 Du        
   1767 ****        95.5000 149.0000 123.5000 Du        
   1768 ****        95.5000 149.0000 123.7500 Du        
   1769 ****        95.5000 149.0000 124.0000 Du        
   1770 ****        95.5000 149.0000 124.2500 Du        
   1771 ****        95.5000 149.0000 124.5000 Du        
   1772 ****        95.5000 149.0000 124.7500 Du        
   1773 ****        95.5000 149.2500 119.7500 Du        
   1774 ****        95.5000 149.2500 120.0000 Du        
   1775 ****        95.5000 149.2500 120.2500 Du        
   1776 ****        95.5000 149.2500 120.5000 Du        
   1777 ****        95.5000 149.2500 120.7500 Du        
   1778 ****        95.5000 149.2500 121.0000 Du        
   1779 ****        95.5000 149.2500 121.2500 Du        
   1780 ****        95.5000 149.2500 121.5000 Du        
   1781 ****        95.5000 149.2500 121.7500 Du        
   1782 ****        95.5000 149.2500 122.0000 Du        
   1783 ****        95.5000 149.2500 122.2500 Du        
   1784 ****        95.5000 149.2500 122.5000 Du        
   1785 ****        95.5000 149.2500 123.7500 Du        
   1786 ****        95.5000 149.2500 124.0000 Du        
   1787 ****        95.5000 149.2500 124.2500 Du        
   1788 ****        95.5000 149.2500 124.5000 Du        
   1789 ****        95.5000 149.2500 124.7500 Du        
   1790 ****        95.5000 149.5000 120.5000 Du        
   1791 ****        95.5000 149.5000 120.7500 Du        
   1792 ****        95.5000 149.5000 121.0000 Du        
   1793 ****        95.5000 149.5000 121.2500 Du        
   1794 ****        95.5000 149.5000 121.5000 Du        
   1795 ****        95.5000 149.5000 121.7500 Du        
   1796 ****        95.5000 149.5000 122.0000 Du        
   1797 ****        95.5000 149.5000 123.7500 Du        
   1798 ****        95.5000 149.5000 124.0000 Du        
   1799 ****        95.5000 149.5000 124.2500 Du        
   1800 ****        95.5000 149.5000 124.5000 Du        
   1801 ****        95.5000 149.7500 120.5000 Du        
   1802 ****        95.5000 149.7500 120.7500 Du        
   1803 ****        95.5000 149.7500 121.0000 Du        
   1804 ****        95.5000 149.7500 121.2500 Du        
   1805 ****        95.5000 149.7500 121.5000 Du        
   1806 ****        95.5000 149.7500 121.7500 Du        
   1807 ****        95.5000 149.7500 122.0000 Du        
   1808 ****        95.5000 149.7500 124.0000 Du        
   1809 ****        95.5000 150.0000 121.0000 Du        
   1810 ****        95.5000 150.0000 121.2500 Du        
   1811 ****        95.5000 150.0000 121.5000 Du        
   1812 ****        95.5000 150.0000 121.7500 Du        
   1813 ****        95.5000 150.2500 121.7500 Du        
   1814 ****        95.5000 152.7500 124.7500 Du        
   1815 ****        95.5000 152.7500 125.0000 Du        
   1816 ****        95.5000 153.0000 124.7500 Du        
   1817 ****        95.5000 153.0000 125.0000 Du        
   1818 ****        95.5000 153.0000 125.2500 Du        
   1819 ****        95.5000 153.0000 125.5000 Du        
   1820 ****        95.5000 153.2500 125.0000 Du        
   1821 ****        95.5000 153.2500 125.2500 Du        
   1822 ****        95.5000 153.2500 125.5000 Du        
   1823 ****        95.5000 153.5000 125.0000 Du        
   1824 ****        95.5000 153.5000 125.2500 Du        
   1825 ****        95.5000 153.5000 125.5000 Du        
   1826 ****        95.5000 153.7500 125.0000 Du        
   1827 ****        95.5000 153.7500 125.2500 Du        
   1828 ****        95.5000 153.7500 125.5000 Du        
   1829 ****        95.5000 154.0000 125.2500 Du        
   1830 ****        95.7500 147.7500 120.7500 Du        
   1831 ****        95.7500 147.7500 121.0000 Du        
   1832 ****        95.7500 147.7500 121.2500 Du        
   1833 ****        95.7500 148.0000 119.7500 Du        
   1834 ****        95.7500 148.0000 120.0000 Du        
   1835 ****        95.7500 148.0000 120.2500 Du        
   1836 ****        95.7500 148.0000 120.5000 Du        
   1837 ****        95.7500 148.0000 120.7500 Du        
   1838 ****        95.7500 148.0000 121.0000 Du        
   1839 ****        95.7500 148.0000 121.2500 Du        
   1840 ****        95.7500 148.0000 121.5000 Du        
   1841 ****        95.7500 148.0000 121.7500 Du        
   1842 ****        95.7500 148.0000 122.0000 Du        
   1843 ****        95.7500 148.0000 122.2500 Du        
   1844 ****        95.7500 148.2500 119.5000 Du        
   1845 ****        95.7500 148.2500 119.7500 Du        
   1846 ****        95.7500 148.2500 120.0000 Du        
   1847 ****        95.7500 148.2500 120.2500 Du        
   1848 ****        95.7500 148.2500 120.5000 Du        
   1849 ****        95.7500 148.2500 120.7500 Du        
   1850 ****        95.7500 148.2500 121.0000 Du        
   1851 ****        95.7500 148.2500 121.2500 Du        
   1852 ****        95.7500 148.2500 121.5000 Du        
   1853 ****        95.7500 148.2500 121.7500 Du        
   1854 ****        95.7500 148.2500 122.0000 Du        
   1855 ****        95.7500 148.2500 122.2500 Du        
   1856 ****        95.7500 148.2500 122.5000 Du        
   1857 ****        95.7500 148.2500 122.7500 Du        
   1858 ****        95.7500 148.2500 123.0000 Du        
   1859 ****        95.7500 148.2500 123.2500 Du        
   1860 ****        95.7500 148.5000 119.5000 Du        
   1861 ****        95.7500 148.5000 119.7500 Du        
   1862 ****        95.7500 148.5000 120.0000 Du        
   1863 ****        95.7500 148.5000 120.2500 Du        
   1864 ****        95.7500 148.5000 120.5000 Du        
   1865 ****        95.7500 148.5000 120.7500 Du        
   1866 ****        95.7500 148.5000 121.0000 Du        
   1867 ****        95.7500 148.5000 121.2500 Du        
   1868 ****        95.7500 148.5000 121.5000 Du        
   1869 ****        95.7500 148.5000 121.7500 Du        
   1870 ****        95.7500 148.5000 122.0000 Du        
   1871 ****        95.7500 148.5000 122.2500 Du        
   1872 ****        95.7500 148.5000 122.5000 Du        
   1873 ****        95.7500 148.5000 122.7500 Du        
   1874 ****        95.7500 148.5000 123.0000 Du        
   1875 ****        95.7500 148.5000 123.2500 Du        
   1876 ****        95.7500 148.7500 119.5000 Du        
   1877 ****        95.7500 148.7500 119.7500 Du        
   1878 ****        95.7500 148.7500 120.0000 Du        
   1879 ****        95.7500 148.7500 120.2500 Du        
   1880 ****        95.7500 148.7500 120.5000 Du        
   1881 ****        95.7500 148.7500 120.7500 Du        
   1882 ****        95.7500 148.7500 121.0000 Du        
   1883 ****        95.7500 148.7500 121.2500 Du        
   1884 ****        95.7500 148.7500 121.5000 Du        
   1885 ****        95.7500 148.7500 121.7500 Du        
   1886 ****        95.7500 148.7500 122.0000 Du        
   1887 ****        95.7500 148.7500 122.2500 Du        
   1888 ****        95.7500 148.7500 122.5000 Du        
   1889 ****        95.7500 148.7500 122.7500 Du        
   1890 ****        95.7500 148.7500 123.0000 Du        
   1891 ****        95.7500 148.7500 123.2500 Du        
   1892 ****        95.7500 148.7500 123.5000 Du        
   1893 ****        95.7500 148.7500 123.7500 Du        
   1894 ****        95.7500 148.7500 124.0000 Du        
   1895 ****        95.7500 148.7500 124.2500 Du        
   1896 ****        95.7500 148.7500 124.5000 Du        
   1897 ****        95.7500 148.7500 124.7500 Du        
   1898 ****        95.7500 149.0000 119.7500 Du        
   1899 ****        95.7500 149.0000 120.0000 Du        
   1900 ****        95.7500 149.0000 120.2500 Du        
   1901 ****        95.7500 149.0000 120.5000 Du        
   1902 ****        95.7500 149.0000 120.7500 Du        
   1903 ****        95.7500 149.0000 121.0000 Du        
   1904 ****        95.7500 149.0000 121.2500 Du        
   1905 ****        95.7500 149.0000 121.5000 Du        
   1906 ****        95.7500 149.0000 121.7500 Du        
   1907 ****        95.7500 149.0000 122.0000 Du        
   1908 ****        95.7500 149.0000 122.2500 Du        
   1909 ****        95.7500 149.0000 122.5000 Du        
   1910 ****        95.7500 149.0000 122.7500 Du        
   1911 ****        95.7500 149.0000 123.0000 Du        
   1912 ****        95.7500 149.0000 123.2500 Du        
   1913 ****        95.7500 149.0000 123.5000 Du        
   1914 ****        95.7500 149.0000 123.7500 Du        
   1915 ****        95.7500 149.0000 124.0000 Du        
   1916 ****        95.7500 149.0000 124.2500 Du        
   1917 ****        95.7500 149.0000 124.5000 Du        
   1918 ****        95.7500 149.0000 124.7500 Du        
   1919 ****        95.7500 149.0000 125.0000 Du        
   1920 ****        95.7500 149.2500 120.0000 Du        
   1921 ****        95.7500 149.2500 120.2500 Du        
   1922 ****        95.7500 149.2500 120.5000 Du        
   1923 ****        95.7500 149.2500 120.7500 Du        
   1924 ****        95.7500 149.2500 121.0000 Du        
   1925 ****        95.7500 149.2500 121.2500 Du        
   1926 ****        95.7500 149.2500 121.5000 Du        
   1927 ****        95.7500 149.2500 121.7500 Du        
   1928 ****        95.7500 149.2500 122.0000 Du        
   1929 ****        95.7500 149.2500 122.2500 Du        
   1930 ****        95.7500 149.2500 122.5000 Du        
   1931 ****        95.7500 149.2500 122.7500 Du        
   1932 ****        95.7500 149.2500 123.0000 Du        
   1933 ****        95.7500 149.2500 123.2500 Du        
   1934 ****        95.7500 149.2500 123.5000 Du        
   1935 ****        95.7500 149.2500 123.7500 Du        
   1936 ****        95.7500 149.2500 124.0000 Du        
   1937 ****        95.7500 149.2500 124.2500 Du        
   1938 ****        95.7500 149.2500 124.5000 Du        
   1939 ****        95.7500 149.2500 124.7500 Du        
   1940 ****        95.7500 149.2500 125.0000 Du        
   1941 ****        95.7500 149.5000 120.5000 Du        
   1942 ****        95.7500 149.5000 120.7500 Du        
   1943 ****        95.7500 149.5000 121.0000 Du        
   1944 ****        95.7500 149.5000 121.2500 Du        
   1945 ****        95.7500 149.5000 121.5000 Du        
   1946 ****        95.7500 149.5000 121.7500 Du        
   1947 ****        95.7500 149.5000 122.0000 Du        
   1948 ****        95.7500 149.5000 122.2500 Du        
   1949 ****        95.7500 149.5000 122.5000 Du        
   1950 ****        95.7500 149.5000 122.7500 Du        
   1951 ****        95.7500 149.5000 123.7500 Du        
   1952 ****        95.7500 149.5000 124.0000 Du        
   1953 ****        95.7500 149.5000 124.2500 Du        
   1954 ****        95.7500 149.5000 124.5000 Du        
   1955 ****        95.7500 149.5000 124.7500 Du        
   1956 ****        95.7500 149.7500 120.7500 Du        
   1957 ****        95.7500 149.7500 121.0000 Du        
   1958 ****        95.7500 149.7500 121.2500 Du        
   1959 ****        95.7500 149.7500 121.5000 Du        
   1960 ****        95.7500 149.7500 121.7500 Du        
   1961 ****        95.7500 149.7500 122.0000 Du        
   1962 ****        95.7500 149.7500 122.2500 Du        
   1963 ****        95.7500 149.7500 122.7500 Du        
   1964 ****        95.7500 149.7500 123.0000 Du        
   1965 ****        95.7500 149.7500 123.7500 Du        
   1966 ****        95.7500 149.7500 124.0000 Du        
   1967 ****        95.7500 149.7500 124.2500 Du        
   1968 ****        95.7500 149.7500 124.5000 Du        
   1969 ****        95.7500 149.7500 124.7500 Du        
   1970 ****        95.7500 150.0000 121.0000 Du        
   1971 ****        95.7500 150.0000 121.2500 Du        
   1972 ****        95.7500 150.0000 121.5000 Du        
   1973 ****        95.7500 150.0000 121.7500 Du        
   1974 ****        95.7500 150.0000 122.0000 Du        
   1975 ****        95.7500 150.0000 122.2500 Du        
   1976 ****        95.7500 150.0000 124.0000 Du        
   1977 ****        95.7500 150.0000 124.2500 Du        
   1978 ****        95.7500 150.2500 121.0000 Du        
   1979 ****        95.7500 150.2500 121.2500 Du        
   1980 ****        95.7500 150.2500 121.5000 Du        
   1981 ****        95.7500 150.2500 121.7500 Du        
   1982 ****        95.7500 150.2500 122.0000 Du        
   1983 ****        95.7500 150.2500 122.2500 Du        
   1984 ****        95.7500 150.5000 121.7500 Du        
   1985 ****        95.7500 150.5000 122.0000 Du        
   1986 ****        95.7500 150.7500 121.7500 Du        
   1987 ****        95.7500 150.7500 122.0000 Du        
   1988 ****        95.7500 152.7500 125.0000 Du        
   1989 ****        95.7500 152.7500 125.2500 Du        
   1990 ****        95.7500 152.7500 125.5000 Du        
   1991 ****        95.7500 153.0000 125.0000 Du        
   1992 ****        95.7500 153.0000 125.2500 Du        
   1993 ****        95.7500 153.0000 125.5000 Du        
   1994 ****        95.7500 153.0000 125.7500 Du        
   1995 ****        95.7500 153.2500 125.2500 Du        
   1996 ****        95.7500 153.2500 125.5000 Du        
   1997 ****        95.7500 153.2500 125.7500 Du        
   1998 ****        95.7500 153.5000 125.2500 Du        
   1999 ****        95.7500 153.5000 125.5000 Du        
   2000 ****        95.7500 153.5000 125.7500 Du        
   2001 ****        95.7500 153.7500 125.2500 Du        
   2002 ****        95.7500 153.7500 125.5000 Du        
   2003 ****        95.7500 153.7500 125.7500 Du        
   2004 ****        95.7500 154.0000 125.2500 Du        
   2005 ****        95.7500 154.0000 125.5000 Du        
   2006 ****        95.7500 154.0000 125.7500 Du        
   2007 ****        95.7500 154.2500 125.5000 Du        
   2008 ****        95.7500 154.2500 125.7500 Du        
   2009 ****        96.0000 148.0000 121.0000 Du        
   2010 ****        96.0000 148.0000 121.2500 Du        
   2011 ****        96.0000 148.0000 121.5000 Du        
   2012 ****        96.0000 148.0000 121.7500 Du        
   2013 ****        96.0000 148.0000 122.0000 Du        
   2014 ****        96.0000 148.0000 122.2500 Du        
   2015 ****        96.0000 148.0000 122.5000 Du        
   2016 ****        96.0000 148.0000 122.7500 Du        
   2017 ****        96.0000 148.2500 120.2500 Du        
   2018 ****        96.0000 148.2500 120.5000 Du        
   2019 ****        96.0000 148.2500 120.7500 Du        
   2020 ****        96.0000 148.2500 121.0000 Du        
   2021 ****        96.0000 148.2500 121.2500 Du        
   2022 ****        96.0000 148.2500 121.5000 Du        
   2023 ****        96.0000 148.2500 121.7500 Du        
   2024 ****        96.0000 148.2500 122.0000 Du        
   2025 ****        96.0000 148.2500 122.2500 Du        
   2026 ****        96.0000 148.2500 122.5000 Du        
   2027 ****        96.0000 148.2500 122.7500 Du        
   2028 ****        96.0000 148.2500 123.0000 Du        
   2029 ****        96.0000 148.2500 123.2500 Du        
   2030 ****        96.0000 148.5000 120.0000 Du        
   2031 ****        96.0000 148.5000 120.2500 Du        
   2032 ****        96.0000 148.5000 120.5000 Du        
   2033 ****        96.0000 148.5000 120.7500 Du        
   2034 ****        96.0000 148.5000 121.0000 Du        
   2035 ****        96.0000 148.5000 121.2500 Du        
   2036 ****        96.0000 148.5000 121.5000 Du        
   2037 ****        96.0000 148.5000 121.7500 Du        
   2038 ****        96.0000 148.5000 122.0000 Du        
   2039 ****        96.0000 148.5000 122.2500 Du        
   2040 ****        96.0000 148.5000 122.5000 Du        
   2041 ****        96.0000 148.5000 122.7500 Du        
   2042 ****        96.0000 148.5000 123.0000 Du        
   2043 ****        96.0000 148.5000 123.2500 Du        
   2044 ****        96.0000 148.7500 120.0000 Du        
   2045 ****        96.0000 148.7500 120.2500 Du        
   2046 ****        96.0000 148.7500 120.5000 Du        
   2047 ****        96.0000 148.7500 120.7500 Du        
   2048 ****        96.0000 148.7500 121.0000 Du        
   2049 ****        96.0000 148.7500 121.2500 Du        
   2050 ****        96.0000 148.7500 121.5000 Du        
   2051 ****        96.0000 148.7500 121.7500 Du        
   2052 ****        96.0000 148.7500 122.0000 Du        
   2053 ****        96.0000 148.7500 122.2500 Du        
   2054 ****        96.0000 148.7500 122.5000 Du        
   2055 ****        96.0000 148.7500 122.7500 Du        
   2056 ****        96.0000 148.7500 123.0000 Du        
   2057 ****        96.0000 148.7500 123.2500 Du        
   2058 ****        96.0000 148.7500 123.5000 Du        
   2059 ****        96.0000 148.7500 123.7500 Du        
   2060 ****        96.0000 148.7500 124.0000 Du        
   2061 ****        96.0000 148.7500 124.2500 Du        
   2062 ****        96.0000 149.0000 120.0000 Du        
   2063 ****        96.0000 149.0000 120.2500 Du        
   2064 ****        96.0000 149.0000 120.5000 Du        
   2065 ****        96.0000 149.0000 120.7500 Du        
   2066 ****        96.0000 149.0000 121.0000 Du        
   2067 ****        96.0000 149.0000 121.2500 Du        
   2068 ****        96.0000 149.0000 121.5000 Du        
   2069 ****        96.0000 149.0000 121.7500 Du        
   2070 ****        96.0000 149.0000 122.0000 Du        
   2071 ****        96.0000 149.0000 122.2500 Du        
   2072 ****        96.0000 149.0000 122.5000 Du        
   2073 ****        96.0000 149.0000 122.7500 Du        
   2074 ****        96.0000 149.0000 123.0000 Du        
   2075 ****        96.0000 149.0000 123.2500 Du        
   2076 ****        96.0000 149.0000 123.5000 Du        
   2077 ****        96.0000 149.0000 123.7500 Du        
   2078 ****        96.0000 149.0000 124.0000 Du        
   2079 ****        96.0000 149.0000 124.2500 Du        
   2080 ****        96.0000 149.0000 124.5000 Du        
   2081 ****        96.0000 149.0000 124.7500 Du        
   2082 ****        96.0000 149.0000 125.0000 Du        
   2083 ****        96.0000 149.2500 120.2500 Du        
   2084 ****        96.0000 149.2500 120.5000 Du        
   2085 ****        96.0000 149.2500 120.7500 Du        
   2086 ****        96.0000 149.2500 121.0000 Du        
   2087 ****        96.0000 149.2500 121.2500 Du        
   2088 ****        96.0000 149.2500 121.5000 Du        
   2089 ****        96.0000 149.2500 121.7500 Du        
   2090 ****        96.0000 149.2500 122.0000 Du        
   2091 ****        96.0000 149.2500 122.2500 Du        
   2092 ****        96.0000 149.2500 122.5000 Du        
   2093 ****        96.0000 149.2500 122.7500 Du        
   2094 ****        96.0000 149.2500 123.0000 Du        
   2095 ****        96.0000 149.2500 123.2500 Du        
   2096 ****        96.0000 149.2500 123.5000 Du        
   2097 ****        96.0000 149.2500 123.7500 Du        
   2098 ****        96.0000 149.2500 124.0000 Du        
   2099 ****        96.0000 149.2500 124.2500 Du        
   2100 ****        96.0000 149.2500 124.5000 Du        
   2101 ****        96.0000 149.2500 124.7500 Du        
   2102 ****        96.0000 149.2500 125.0000 Du        
   2103 ****        96.0000 149.2500 125.2500 Du        
   2104 ****        96.0000 149.5000 120.5000 Du        
   2105 ****        96.0000 149.5000 120.7500 Du        
   2106 ****        96.0000 149.5000 121.0000 Du        
   2107 ****        96.0000 149.5000 121.2500 Du        
   2108 ****        96.0000 149.5000 121.5000 Du        
   2109 ****        96.0000 149.5000 121.7500 Du        
   2110 ****        96.0000 149.5000 122.0000 Du        
   2111 ****        96.0000 149.5000 122.2500 Du        
   2112 ****        96.0000 149.5000 122.5000 Du        
   2113 ****        96.0000 149.5000 122.7500 Du        
   2114 ****        96.0000 149.5000 123.0000 Du        
   2115 ****        96.0000 149.5000 123.2500 Du        
   2116 ****        96.0000 149.5000 123.5000 Du        
   2117 ****        96.0000 149.5000 123.7500 Du        
   2118 ****        96.0000 149.5000 124.0000 Du        
   2119 ****        96.0000 149.5000 124.2500 Du        
   2120 ****        96.0000 149.5000 124.5000 Du        
   2121 ****        96.0000 149.5000 124.7500 Du        
   2122 ****        96.0000 149.5000 125.0000 Du        
   2123 ****        96.0000 149.7500 120.7500 Du        
   2124 ****        96.0000 149.7500 121.0000 Du        
   2125 ****        96.0000 149.7500 121.2500 Du        
   2126 ****        96.0000 149.7500 121.5000 Du        
   2127 ****        96.0000 149.7500 121.7500 Du        
   2128 ****        96.0000 149.7500 122.0000 Du        
   2129 ****        96.0000 149.7500 122.2500 Du        
   2130 ****        96.0000 149.7500 122.5000 Du        
   2131 ****        96.0000 149.7500 122.7500 Du        
   2132 ****        96.0000 149.7500 123.0000 Du        
   2133 ****        96.0000 149.7500 123.2500 Du        
   2134 ****        96.0000 149.7500 123.7500 Du        
   2135 ****        96.0000 149.7500 124.0000 Du        
   2136 ****        96.0000 149.7500 124.2500 Du        
   2137 ****        96.0000 149.7500 124.5000 Du        
   2138 ****        96.0000 149.7500 124.7500 Du        
   2139 ****        96.0000 149.7500 125.0000 Du        
   2140 ****        96.0000 150.0000 121.0000 Du        
   2141 ****        96.0000 150.0000 121.2500 Du        
   2142 ****        96.0000 150.0000 121.5000 Du        
   2143 ****        96.0000 150.0000 121.7500 Du        
   2144 ****        96.0000 150.0000 122.0000 Du        
   2145 ****        96.0000 150.0000 122.2500 Du        
   2146 ****        96.0000 150.0000 122.5000 Du        
   2147 ****        96.0000 150.0000 122.7500 Du        
   2148 ****        96.0000 150.0000 123.0000 Du        
   2149 ****        96.0000 150.0000 123.2500 Du        
   2150 ****        96.0000 150.0000 123.7500 Du        
   2151 ****        96.0000 150.0000 124.0000 Du        
   2152 ****        96.0000 150.0000 124.2500 Du        
   2153 ****        96.0000 150.0000 124.5000 Du        
   2154 ****        96.0000 150.0000 124.7500 Du        
   2155 ****        96.0000 150.2500 121.2500 Du        
   2156 ****        96.0000 150.2500 121.5000 Du        
   2157 ****        96.0000 150.2500 121.7500 Du        
   2158 ****        96.0000 150.2500 122.0000 Du        
   2159 ****        96.0000 150.2500 122.2500 Du        
   2160 ****        96.0000 150.2500 123.0000 Du        
   2161 ****        96.0000 150.2500 124.0000 Du        
   2162 ****        96.0000 150.2500 124.2500 Du        
   2163 ****        96.0000 150.2500 124.5000 Du        
   2164 ****        96.0000 150.5000 121.5000 Du        
   2165 ****        96.0000 150.5000 121.7500 Du        
   2166 ****        96.0000 150.5000 122.0000 Du        
   2167 ****        96.0000 150.5000 122.2500 Du        
   2168 ****        96.0000 150.7500 121.7500 Du        
   2169 ****        96.0000 150.7500 122.0000 Du        
   2170 ****        96.0000 150.7500 122.2500 Du        
   2171 ****        96.0000 150.7500 122.5000 Du        
   2172 ****        96.0000 150.7500 123.7500 Du        
   2173 ****        96.0000 151.0000 121.7500 Du        
   2174 ****        96.0000 151.0000 122.0000 Du        
   2175 ****        96.0000 152.5000 125.5000 Du        
   2176 ****        96.0000 152.5000 125.7500 Du        
   2177 ****        96.0000 152.7500 125.5000 Du        
   2178 ****        96.0000 152.7500 125.7500 Du        
   2179 ****        96.0000 152.7500 126.0000 Du        
   2180 ****        96.0000 153.0000 125.5000 Du        
   2181 ****        96.0000 153.0000 125.7500 Du        
   2182 ****        96.0000 153.0000 126.0000 Du        
   2183 ****        96.0000 153.2500 125.5000 Du        
   2184 ****        96.0000 153.2500 125.7500 Du        
   2185 ****        96.0000 153.2500 126.0000 Du        
   2186 ****        96.0000 153.5000 125.5000 Du        
   2187 ****        96.0000 153.5000 125.7500 Du        
   2188 ****        96.0000 153.7500 125.5000 Du        
   2189 ****        96.0000 153.7500 125.7500 Du        
   2190 ****        96.0000 154.0000 125.5000 Du        
   2191 ****        96.0000 154.0000 125.7500 Du        
   2192 ****        96.0000 154.2500 125.5000 Du        
   2193 ****        96.0000 154.2500 125.7500 Du        
   2194 ****        96.0000 154.5000 125.5000 Du        
   2195 ****        96.0000 154.5000 125.7500 Du        
   2196 ****        96.2500 148.0000 121.5000 Du        
   2197 ****        96.2500 148.0000 121.7500 Du        
   2198 ****        96.2500 148.0000 122.0000 Du        
   2199 ****        96.2500 148.0000 122.2500 Du        
   2200 ****        96.2500 148.0000 122.5000 Du        
   2201 ****        96.2500 148.0000 122.7500 Du        
   2202 ****        96.2500 148.2500 121.0000 Du        
   2203 ****        96.2500 148.2500 121.2500 Du        
   2204 ****        96.2500 148.2500 121.5000 Du        
   2205 ****        96.2500 148.2500 121.7500 Du        
   2206 ****        96.2500 148.2500 122.0000 Du        
   2207 ****        96.2500 148.2500 122.2500 Du        
   2208 ****        96.2500 148.2500 122.5000 Du        
   2209 ****        96.2500 148.2500 122.7500 Du        
   2210 ****        96.2500 148.2500 123.0000 Du        
   2211 ****        96.2500 148.2500 123.2500 Du        
   2212 ****        96.2500 148.5000 120.7500 Du        
   2213 ****        96.2500 148.5000 121.0000 Du        
   2214 ****        96.2500 148.5000 121.2500 Du        
   2215 ****        96.2500 148.5000 121.5000 Du        
   2216 ****        96.2500 148.5000 121.7500 Du        
   2217 ****        96.2500 148.5000 122.0000 Du        
   2218 ****        96.2500 148.5000 122.2500 Du        
   2219 ****        96.2500 148.5000 122.5000 Du        
   2220 ****        96.2500 148.5000 122.7500 Du        
   2221 ****        96.2500 148.5000 123.0000 Du        
   2222 ****        96.2500 148.5000 123.2500 Du        
   2223 ****        96.2500 148.7500 120.5000 Du        
   2224 ****        96.2500 148.7500 120.7500 Du        
   2225 ****        96.2500 148.7500 121.0000 Du        
   2226 ****        96.2500 148.7500 121.2500 Du        
   2227 ****        96.2500 148.7500 121.5000 Du        
   2228 ****        96.2500 148.7500 121.7500 Du        
   2229 ****        96.2500 148.7500 122.0000 Du        
   2230 ****        96.2500 148.7500 122.2500 Du        
   2231 ****        96.2500 148.7500 122.5000 Du        
   2232 ****        96.2500 148.7500 122.7500 Du        
   2233 ****        96.2500 148.7500 123.0000 Du        
   2234 ****        96.2500 148.7500 123.2500 Du        
   2235 ****        96.2500 148.7500 123.5000 Du        
   2236 ****        96.2500 148.7500 123.7500 Du        
   2237 ****        96.2500 148.7500 124.0000 Du        
   2238 ****        96.2500 149.0000 120.2500 Du        
   2239 ****        96.2500 149.0000 120.5000 Du        
   2240 ****        96.2500 149.0000 120.7500 Du        
   2241 ****        96.2500 149.0000 121.0000 Du        
   2242 ****        96.2500 149.0000 121.2500 Du        
   2243 ****        96.2500 149.0000 121.5000 Du        
   2244 ****        96.2500 149.0000 121.7500 Du        
   2245 ****        96.2500 149.0000 122.0000 Du        
   2246 ****        96.2500 149.0000 122.2500 Du        
   2247 ****        96.2500 149.0000 122.5000 Du        
   2248 ****        96.2500 149.0000 122.7500 Du        
   2249 ****        96.2500 149.0000 123.0000 Du        
   2250 ****        96.2500 149.0000 123.2500 Du        
   2251 ****        96.2500 149.0000 123.5000 Du        
   2252 ****        96.2500 149.0000 123.7500 Du        
   2253 ****        96.2500 149.0000 124.0000 Du        
   2254 ****        96.2500 149.0000 124.2500 Du        
   2255 ****        96.2500 149.0000 124.5000 Du        
   2256 ****        96.2500 149.2500 120.5000 Du        
   2257 ****        96.2500 149.2500 120.7500 Du        
   2258 ****        96.2500 149.2500 121.0000 Du        
   2259 ****        96.2500 149.2500 121.2500 Du        
   2260 ****        96.2500 149.2500 121.5000 Du        
   2261 ****        96.2500 149.2500 121.7500 Du        
   2262 ****        96.2500 149.2500 122.0000 Du        
   2263 ****        96.2500 149.2500 122.2500 Du        
   2264 ****        96.2500 149.2500 122.5000 Du        
   2265 ****        96.2500 149.2500 122.7500 Du        
   2266 ****        96.2500 149.2500 123.0000 Du        
   2267 ****        96.2500 149.2500 123.2500 Du        
   2268 ****        96.2500 149.2500 123.5000 Du        
   2269 ****        96.2500 149.2500 123.7500 Du        
   2270 ****        96.2500 149.2500 124.0000 Du        
   2271 ****        96.2500 149.2500 124.2500 Du        
   2272 ****        96.2500 149.2500 124.5000 Du        
   2273 ****        96.2500 149.2500 124.7500 Du        
   2274 ****        96.2500 149.2500 125.0000 Du        
   2275 ****        96.2500 149.5000 120.7500 Du        
   2276 ****        96.2500 149.5000 121.0000 Du        
   2277 ****        96.2500 149.5000 121.2500 Du        
   2278 ****        96.2500 149.5000 121.5000 Du        
   2279 ****        96.2500 149.5000 121.7500 Du        
   2280 ****        96.2500 149.5000 122.0000 Du        
   2281 ****        96.2500 149.5000 122.2500 Du        
   2282 ****        96.2500 149.5000 122.5000 Du        
   2283 ****        96.2500 149.5000 122.7500 Du        
   2284 ****        96.2500 149.5000 123.0000 Du        
   2285 ****        96.2500 149.5000 123.2500 Du        
   2286 ****        96.2500 149.5000 123.5000 Du        
   2287 ****        96.2500 149.5000 123.7500 Du        
   2288 ****        96.2500 149.5000 124.0000 Du        
   2289 ****        96.2500 149.5000 124.2500 Du        
   2290 ****        96.2500 149.5000 124.5000 Du        
   2291 ****        96.2500 149.5000 124.7500 Du        
   2292 ****        96.2500 149.5000 125.0000 Du        
   2293 ****        96.2500 149.5000 125.2500 Du        
   2294 ****        96.2500 149.7500 120.7500 Du        
   2295 ****        96.2500 149.7500 121.0000 Du        
   2296 ****        96.2500 149.7500 121.2500 Du        
   2297 ****        96.2500 149.7500 121.5000 Du        
   2298 ****        96.2500 149.7500 121.7500 Du        
   2299 ****        96.2500 149.7500 122.0000 Du        
   2300 ****        96.2500 149.7500 122.2500 Du        
   2301 ****        96.2500 149.7500 122.5000 Du        
   2302 ****        96.2500 149.7500 122.7500 Du        
   2303 ****        96.2500 149.7500 123.0000 Du        
   2304 ****        96.2500 149.7500 123.2500 Du        
   2305 ****        96.2500 149.7500 123.5000 Du        
   2306 ****        96.2500 149.7500 123.7500 Du        
   2307 ****        96.2500 149.7500 124.0000 Du        
   2308 ****        96.2500 149.7500 124.2500 Du        
   2309 ****        96.2500 149.7500 124.5000 Du        
   2310 ****        96.2500 149.7500 124.7500 Du        
   2311 ****        96.2500 149.7500 125.0000 Du        
   2312 ****        96.2500 149.7500 125.2500 Du        
   2313 ****        96.2500 150.0000 121.0000 Du        
   2314 ****        96.2500 150.0000 121.2500 Du        
   2315 ****        96.2500 150.0000 121.5000 Du        
   2316 ****        96.2500 150.0000 121.7500 Du        
   2317 ****        96.2500 150.0000 122.0000 Du        
   2318 ****        96.2500 150.0000 122.2500 Du        
   2319 ****        96.2500 150.0000 122.5000 Du        
   2320 ****        96.2500 150.0000 122.7500 Du        
   2321 ****        96.2500 150.0000 123.0000 Du        
   2322 ****        96.2500 150.0000 123.2500 Du        
   2323 ****        96.2500 150.0000 123.7500 Du        
   2324 ****        96.2500 150.0000 124.0000 Du        
   2325 ****        96.2500 150.0000 124.2500 Du        
   2326 ****        96.2500 150.0000 124.5000 Du        
   2327 ****        96.2500 150.0000 124.7500 Du        
   2328 ****        96.2500 150.0000 125.0000 Du        
   2329 ****        96.2500 150.0000 125.2500 Du        
   2330 ****        96.2500 150.2500 121.2500 Du        
   2331 ****        96.2500 150.2500 121.5000 Du        
   2332 ****        96.2500 150.2500 121.7500 Du        
   2333 ****        96.2500 150.2500 122.0000 Du        
   2334 ****        96.2500 150.2500 122.2500 Du        
   2335 ****        96.2500 150.2500 122.5000 Du        
   2336 ****        96.2500 150.2500 122.7500 Du        
   2337 ****        96.2500 150.2500 123.0000 Du        
   2338 ****        96.2500 150.2500 123.2500 Du        
   2339 ****        96.2500 150.2500 123.7500 Du        
   2340 ****        96.2500 150.2500 124.0000 Du        
   2341 ****        96.2500 150.2500 124.2500 Du        
   2342 ****        96.2500 150.2500 124.5000 Du        
   2343 ****        96.2500 150.2500 124.7500 Du        
   2344 ****        96.2500 150.2500 125.0000 Du        
   2345 ****        96.2500 150.5000 121.5000 Du        
   2346 ****        96.2500 150.5000 121.7500 Du        
   2347 ****        96.2500 150.5000 122.0000 Du        
   2348 ****        96.2500 150.5000 122.2500 Du        
   2349 ****        96.2500 150.5000 122.5000 Du        
   2350 ****        96.2500 150.5000 124.0000 Du        
   2351 ****        96.2500 150.7500 121.7500 Du        
   2352 ****        96.2500 150.7500 122.0000 Du        
   2353 ****        96.2500 150.7500 122.2500 Du        
   2354 ****        96.2500 150.7500 122.5000 Du        
   2355 ****        96.2500 150.7500 124.0000 Du        
   2356 ****        96.2500 150.7500 124.2500 Du        
   2357 ****        96.2500 150.7500 124.7500 Du        
   2358 ****        96.2500 151.0000 122.0000 Du        
   2359 ****        96.2500 151.0000 122.2500 Du        
   2360 ****        96.2500 152.0000 125.7500 Du        
   2361 ****        96.2500 152.0000 126.0000 Du        
   2362 ****        96.2500 152.2500 125.7500 Du        
   2363 ****        96.2500 152.2500 126.0000 Du        
   2364 ****        96.2500 152.2500 126.2500 Du        
   2365 ****        96.2500 152.5000 125.7500 Du        
   2366 ****        96.2500 152.5000 126.0000 Du        
   2367 ****        96.2500 152.5000 126.2500 Du        
   2368 ****        96.2500 152.7500 125.7500 Du        
   2369 ****        96.2500 152.7500 126.0000 Du        
   2370 ****        96.2500 152.7500 126.2500 Du        
   2371 ****        96.2500 153.0000 125.7500 Du        
   2372 ****        96.2500 153.0000 126.0000 Du        
   2373 ****        96.2500 153.2500 125.7500 Du        
   2374 ****        96.2500 153.2500 126.0000 Du        
   2375 ****        96.2500 153.5000 125.7500 Du        
   2376 ****        96.2500 153.5000 126.0000 Du        
   2377 ****        96.2500 153.7500 125.7500 Du        
   2378 ****        96.2500 153.7500 126.0000 Du        
   2379 ****        96.2500 154.0000 125.5000 Du        
   2380 ****        96.2500 154.0000 125.7500 Du        
   2381 ****        96.2500 154.0000 126.0000 Du        
   2382 ****        96.2500 154.2500 125.5000 Du        
   2383 ****        96.2500 154.2500 125.7500 Du        
   2384 ****        96.2500 154.2500 126.0000 Du        
   2385 ****        96.2500 154.5000 125.5000 Du        
   2386 ****        96.2500 154.5000 125.7500 Du        
   2387 ****        96.2500 154.5000 126.0000 Du        
   2388 ****        96.2500 154.7500 125.7500 Du        
   2389 ****        96.5000 148.0000 121.7500 Du        
   2390 ****        96.5000 148.0000 122.0000 Du        
   2391 ****        96.5000 148.0000 122.2500 Du        
   2392 ****        96.5000 148.0000 122.5000 Du        
   2393 ****        96.5000 148.0000 122.7500 Du        
   2394 ****        96.5000 148.2500 121.5000 Du        
   2395 ****        96.5000 148.2500 121.7500 Du        
   2396 ****        96.5000 148.2500 122.0000 Du        
   2397 ****        96.5000 148.2500 122.2500 Du        
   2398 ****        96.5000 148.2500 122.5000 Du        
   2399 ****        96.5000 148.2500 122.7500 Du        
   2400 ****        96.5000 148.2500 123.0000 Du        
   2401 ****        96.5000 148.5000 121.2500 Du        
   2402 ****        96.5000 148.5000 121.5000 Du        
   2403 ****        96.5000 148.5000 121.7500 Du        
   2404 ****        96.5000 148.5000 122.0000 Du        
   2405 ****        96.5000 148.5000 122.2500 Du        
   2406 ****        96.5000 148.5000 122.5000 Du        
   2407 ****        96.5000 148.5000 122.7500 Du        
   2408 ****        96.5000 148.5000 123.0000 Du        
   2409 ****        96.5000 148.5000 123.2500 Du        
   2410 ****        96.5000 148.5000 123.5000 Du        
   2411 ****        96.5000 148.7500 120.7500 Du        
   2412 ****        96.5000 148.7500 121.0000 Du        
   2413 ****        96.5000 148.7500 121.2500 Du        
   2414 ****        96.5000 148.7500 121.5000 Du        
   2415 ****        96.5000 148.7500 121.7500 Du        
   2416 ****        96.5000 148.7500 122.0000 Du        
   2417 ****        96.5000 148.7500 122.2500 Du        
   2418 ****        96.5000 148.7500 122.5000 Du        
   2419 ****        96.5000 148.7500 122.7500 Du        
   2420 ****        96.5000 148.7500 123.0000 Du        
   2421 ****        96.5000 148.7500 123.2500 Du        
   2422 ****        96.5000 148.7500 123.5000 Du        
   2423 ****        96.5000 148.7500 123.7500 Du        
   2424 ****        96.5000 149.0000 120.7500 Du        
   2425 ****        96.5000 149.0000 121.0000 Du        
   2426 ****        96.5000 149.0000 121.2500 Du        
   2427 ****        96.5000 149.0000 121.5000 Du        
   2428 ****        96.5000 149.0000 121.7500 Du        
   2429 ****        96.5000 149.0000 122.0000 Du        
   2430 ****        96.5000 149.0000 122.2500 Du        
   2431 ****        96.5000 149.0000 122.5000 Du        
   2432 ****        96.5000 149.0000 122.7500 Du        
   2433 ****        96.5000 149.0000 123.0000 Du        
   2434 ****        96.5000 149.0000 123.2500 Du        
   2435 ****        96.5000 149.0000 123.5000 Du        
   2436 ****        96.5000 149.0000 123.7500 Du        
   2437 ****        96.5000 149.0000 124.0000 Du        
   2438 ****        96.5000 149.2500 120.7500 Du        
   2439 ****        96.5000 149.2500 121.0000 Du        
   2440 ****        96.5000 149.2500 121.2500 Du        
   2441 ****        96.5000 149.2500 121.5000 Du        
   2442 ****        96.5000 149.2500 121.7500 Du        
   2443 ****        96.5000 149.2500 122.0000 Du        
   2444 ****        96.5000 149.2500 122.2500 Du        
   2445 ****        96.5000 149.2500 122.5000 Du        
   2446 ****        96.5000 149.2500 122.7500 Du        
   2447 ****        96.5000 149.2500 123.0000 Du        
   2448 ****        96.5000 149.2500 123.2500 Du        
   2449 ****        96.5000 149.2500 123.5000 Du        
   2450 ****        96.5000 149.2500 123.7500 Du        
   2451 ****        96.5000 149.2500 124.0000 Du        
   2452 ****        96.5000 149.2500 124.2500 Du        
   2453 ****        96.5000 149.2500 124.5000 Du        
   2454 ****        96.5000 149.2500 124.7500 Du        
   2455 ****        96.5000 149.2500 125.0000 Du        
   2456 ****        96.5000 149.5000 120.7500 Du        
   2457 ****        96.5000 149.5000 121.0000 Du        
   2458 ****        96.5000 149.5000 121.2500 Du        
   2459 ****        96.5000 149.5000 121.5000 Du        
   2460 ****        96.5000 149.5000 121.7500 Du        
   2461 ****        96.5000 149.5000 122.0000 Du        
   2462 ****        96.5000 149.5000 122.2500 Du        
   2463 ****        96.5000 149.5000 122.5000 Du        
   2464 ****        96.5000 149.5000 122.7500 Du        
   2465 ****        96.5000 149.5000 123.0000 Du        
   2466 ****        96.5000 149.5000 123.2500 Du        
   2467 ****        96.5000 149.5000 123.5000 Du        
   2468 ****        96.5000 149.5000 123.7500 Du        
   2469 ****        96.5000 149.5000 124.0000 Du        
   2470 ****        96.5000 149.5000 124.2500 Du        
   2471 ****        96.5000 149.5000 124.5000 Du        
   2472 ****        96.5000 149.5000 124.7500 Du        
   2473 ****        96.5000 149.5000 125.0000 Du        
   2474 ****        96.5000 149.5000 125.2500 Du        
   2475 ****        96.5000 149.7500 121.0000 Du        
   2476 ****        96.5000 149.7500 121.2500 Du        
   2477 ****        96.5000 149.7500 121.5000 Du        
   2478 ****        96.5000 149.7500 121.7500 Du        
   2479 ****        96.5000 149.7500 122.0000 Du        
   2480 ****        96.5000 149.7500 122.2500 Du        
   2481 ****        96.5000 149.7500 122.5000 Du        
   2482 ****        96.5000 149.7500 122.7500 Du        
   2483 ****        96.5000 149.7500 123.0000 Du        
   2484 ****        96.5000 149.7500 123.2500 Du        
   2485 ****        96.5000 149.7500 123.5000 Du        
   2486 ****        96.5000 149.7500 123.7500 Du        
   2487 ****        96.5000 149.7500 124.0000 Du        
   2488 ****        96.5000 149.7500 124.2500 Du        
   2489 ****        96.5000 149.7500 124.5000 Du        
   2490 ****        96.5000 149.7500 124.7500 Du        
   2491 ****        96.5000 149.7500 125.0000 Du        
   2492 ****        96.5000 149.7500 125.2500 Du        
   2493 ****        96.5000 149.7500 125.5000 Du        
   2494 ****        96.5000 150.0000 121.2500 Du        
   2495 ****        96.5000 150.0000 121.5000 Du        
   2496 ****        96.5000 150.0000 121.7500 Du        
   2497 ****        96.5000 150.0000 122.0000 Du        
   2498 ****        96.5000 150.0000 122.2500 Du        
   2499 ****        96.5000 150.0000 122.5000 Du        
   2500 ****        96.5000 150.0000 122.7500 Du        
   2501 ****        96.5000 150.0000 123.0000 Du        
   2502 ****        96.5000 150.0000 123.2500 Du        
   2503 ****        96.5000 150.0000 123.5000 Du        
   2504 ****        96.5000 150.0000 123.7500 Du        
   2505 ****        96.5000 150.0000 124.0000 Du        
   2506 ****        96.5000 150.0000 124.2500 Du        
   2507 ****        96.5000 150.0000 124.5000 Du        
   2508 ****        96.5000 150.0000 124.7500 Du        
   2509 ****        96.5000 150.0000 125.0000 Du        
   2510 ****        96.5000 150.0000 125.2500 Du        
   2511 ****        96.5000 150.0000 125.5000 Du        
   2512 ****        96.5000 150.0000 125.7500 Du        
   2513 ****        96.5000 150.2500 121.2500 Du        
   2514 ****        96.5000 150.2500 121.5000 Du        
   2515 ****        96.5000 150.2500 121.7500 Du        
   2516 ****        96.5000 150.2500 122.0000 Du        
   2517 ****        96.5000 150.2500 122.2500 Du        
   2518 ****        96.5000 150.2500 122.5000 Du        
   2519 ****        96.5000 150.2500 122.7500 Du        
   2520 ****        96.5000 150.2500 123.0000 Du        
   2521 ****        96.5000 150.2500 123.2500 Du        
   2522 ****        96.5000 150.2500 123.5000 Du        
   2523 ****        96.5000 150.2500 123.7500 Du        
   2524 ****        96.5000 150.2500 124.0000 Du        
   2525 ****        96.5000 150.2500 124.2500 Du        
   2526 ****        96.5000 150.2500 124.5000 Du        
   2527 ****        96.5000 150.2500 124.7500 Du        
   2528 ****        96.5000 150.2500 125.0000 Du        
   2529 ****        96.5000 150.2500 125.2500 Du        
   2530 ****        96.5000 150.2500 125.5000 Du        
   2531 ****        96.5000 150.2500 125.7500 Du        
   2532 ****        96.5000 150.5000 121.5000 Du        
   2533 ****        96.5000 150.5000 121.7500 Du        
   2534 ****        96.5000 150.5000 122.0000 Du        
   2535 ****        96.5000 150.5000 122.2500 Du        
   2536 ****        96.5000 150.5000 122.5000 Du        
   2537 ****        96.5000 150.5000 122.7500 Du        
   2538 ****        96.5000 150.5000 123.0000 Du        
   2539 ****        96.5000 150.5000 123.2500 Du        
   2540 ****        96.5000 150.5000 123.5000 Du        
   2541 ****        96.5000 150.5000 123.7500 Du        
   2542 ****        96.5000 150.5000 124.0000 Du        
   2543 ****        96.5000 150.5000 124.2500 Du        
   2544 ****        96.5000 150.5000 124.5000 Du        
   2545 ****        96.5000 150.5000 124.7500 Du        
   2546 ****        96.5000 150.5000 125.0000 Du        
   2547 ****        96.5000 150.5000 125.2500 Du        
   2548 ****        96.5000 150.5000 125.5000 Du        
   2549 ****        96.5000 150.5000 125.7500 Du        
   2550 ****        96.5000 150.7500 121.7500 Du        
   2551 ****        96.5000 150.7500 122.0000 Du        
   2552 ****        96.5000 150.7500 122.2500 Du        
   2553 ****        96.5000 150.7500 122.5000 Du        
   2554 ****        96.5000 150.7500 122.7500 Du        
   2555 ****        96.5000 150.7500 123.0000 Du        
   2556 ****        96.5000 150.7500 123.7500 Du        
   2557 ****        96.5000 150.7500 124.0000 Du        
   2558 ****        96.5000 150.7500 124.7500 Du        
   2559 ****        96.5000 150.7500 125.0000 Du        
   2560 ****        96.5000 150.7500 125.2500 Du        
   2561 ****        96.5000 150.7500 125.5000 Du        
   2562 ****        96.5000 150.7500 125.7500 Du        
   2563 ****        96.5000 151.0000 122.0000 Du        
   2564 ****        96.5000 151.0000 122.2500 Du        
   2565 ****        96.5000 151.0000 124.7500 Du        
   2566 ****        96.5000 151.0000 125.0000 Du        
   2567 ****        96.5000 151.0000 125.5000 Du        
   2568 ****        96.5000 151.0000 125.7500 Du        
   2569 ****        96.5000 151.2500 125.5000 Du        
   2570 ****        96.5000 151.5000 126.0000 Du        
   2571 ****        96.5000 151.7500 125.7500 Du        
   2572 ****        96.5000 151.7500 126.0000 Du        
   2573 ****        96.5000 151.7500 126.2500 Du        
   2574 ****        96.5000 151.7500 126.5000 Du        
   2575 ****        96.5000 152.0000 125.7500 Du        
   2576 ****        96.5000 152.0000 126.0000 Du        
   2577 ****        96.5000 152.0000 126.2500 Du        
   2578 ****        96.5000 152.0000 126.5000 Du        
   2579 ****        96.5000 152.2500 125.7500 Du        
   2580 ****        96.5000 152.2500 126.0000 Du        
   2581 ****        96.5000 152.2500 126.2500 Du        
   2582 ****        96.5000 152.2500 126.5000 Du        
   2583 ****        96.5000 152.5000 125.7500 Du        
   2584 ****        96.5000 152.5000 126.0000 Du        
   2585 ****        96.5000 152.5000 126.2500 Du        
   2586 ****        96.5000 152.5000 126.5000 Du        
   2587 ****        96.5000 152.7500 125.7500 Du        
   2588 ****        96.5000 152.7500 126.0000 Du        
   2589 ****        96.5000 152.7500 126.2500 Du        
   2590 ****        96.5000 152.7500 126.5000 Du        
   2591 ****        96.5000 153.0000 126.0000 Du        
   2592 ****        96.5000 153.0000 126.2500 Du        
   2593 ****        96.5000 153.2500 126.0000 Du        
   2594 ****        96.5000 153.5000 126.0000 Du        
   2595 ****        96.5000 153.7500 126.0000 Du        
   2596 ****        96.5000 154.0000 125.7500 Du        
   2597 ****        96.5000 154.0000 126.0000 Du        
   2598 ****        96.5000 154.2500 125.7500 Du        
   2599 ****        96.5000 154.2500 126.0000 Du        
   2600 ****        96.5000 154.5000 125.7500 Du        
   2601 ****        96.5000 154.5000 126.0000 Du        
   2602 ****        96.5000 154.7500 125.7500 Du        
   2603 ****        96.5000 154.7500 126.0000 Du        
   2604 ****        96.7500 148.0000 122.0000 Du        
   2605 ****        96.7500 148.0000 122.2500 Du        
   2606 ****        96.7500 148.0000 122.5000 Du        
   2607 ****        96.7500 148.0000 122.7500 Du        
   2608 ****        96.7500 148.2500 121.7500 Du        
   2609 ****        96.7500 148.2500 122.0000 Du        
   2610 ****        96.7500 148.2500 122.2500 Du        
   2611 ****        96.7500 148.2500 122.5000 Du        
   2612 ****        96.7500 148.2500 122.7500 Du        
   2613 ****        96.7500 148.2500 123.0000 Du        
   2614 ****        96.7500 148.5000 121.5000 Du        
   2615 ****        96.7500 148.5000 121.7500 Du        
   2616 ****        96.7500 148.5000 122.0000 Du        
   2617 ****        96.7500 148.5000 122.2500 Du        
   2618 ****        96.7500 148.5000 122.5000 Du        
   2619 ****        96.7500 148.5000 122.7500 Du        
   2620 ****        96.7500 148.5000 123.0000 Du        
   2621 ****        96.7500 148.5000 123.2500 Du        
   2622 ****        96.7500 148.7500 121.2500 Du        
   2623 ****        96.7500 148.7500 121.5000 Du        
   2624 ****        96.7500 148.7500 121.7500 Du        
   2625 ****        96.7500 148.7500 122.0000 Du        
   2626 ****        96.7500 148.7500 122.2500 Du        
   2627 ****        96.7500 148.7500 122.5000 Du        
   2628 ****        96.7500 148.7500 122.7500 Du        
   2629 ****        96.7500 148.7500 123.0000 Du        
   2630 ****        96.7500 148.7500 123.2500 Du        
   2631 ****        96.7500 148.7500 123.5000 Du        
   2632 ****        96.7500 148.7500 123.7500 Du        
   2633 ****        96.7500 149.0000 121.0000 Du        
   2634 ****        96.7500 149.0000 121.2500 Du        
   2635 ****        96.7500 149.0000 121.5000 Du        
   2636 ****        96.7500 149.0000 121.7500 Du        
   2637 ****        96.7500 149.0000 122.0000 Du        
   2638 ****        96.7500 149.0000 122.2500 Du        
   2639 ****        96.7500 149.0000 122.5000 Du        
   2640 ****        96.7500 149.0000 122.7500 Du        
   2641 ****        96.7500 149.0000 123.0000 Du        
   2642 ****        96.7500 149.0000 123.2500 Du        
   2643 ****        96.7500 149.0000 123.5000 Du        
   2644 ****        96.7500 149.0000 123.7500 Du        
   2645 ****        96.7500 149.0000 124.0000 Du        
   2646 ****        96.7500 149.2500 121.0000 Du        
   2647 ****        96.7500 149.2500 121.2500 Du        
   2648 ****        96.7500 149.2500 121.5000 Du        
   2649 ****        96.7500 149.2500 121.7500 Du        
   2650 ****        96.7500 149.2500 122.0000 Du        
   2651 ****        96.7500 149.2500 122.2500 Du        
   2652 ****        96.7500 149.2500 122.5000 Du        
   2653 ****        96.7500 149.2500 122.7500 Du        
   2654 ****        96.7500 149.2500 123.0000 Du        
   2655 ****        96.7500 149.2500 123.2500 Du        
   2656 ****        96.7500 149.2500 123.5000 Du        
   2657 ****        96.7500 149.2500 123.7500 Du        
   2658 ****        96.7500 149.2500 124.0000 Du        
   2659 ****        96.7500 149.2500 124.2500 Du        
   2660 ****        96.7500 149.5000 121.0000 Du        
   2661 ****        96.7500 149.5000 121.2500 Du        
   2662 ****        96.7500 149.5000 121.5000 Du        
   2663 ****        96.7500 149.5000 121.7500 Du        
   2664 ****        96.7500 149.5000 122.0000 Du        
   2665 ****        96.7500 149.5000 122.2500 Du        
   2666 ****        96.7500 149.5000 122.5000 Du        
   2667 ****        96.7500 149.5000 122.7500 Du        
   2668 ****        96.7500 149.5000 123.0000 Du        
   2669 ****        96.7500 149.5000 123.2500 Du        
   2670 ****        96.7500 149.5000 123.5000 Du        
   2671 ****        96.7500 149.5000 123.7500 Du        
   2672 ****        96.7500 149.5000 124.0000 Du        
   2673 ****        96.7500 149.5000 124.2500 Du        
   2674 ****        96.7500 149.5000 124.5000 Du        
   2675 ****        96.7500 149.5000 124.7500 Du        
   2676 ****        96.7500 149.5000 125.0000 Du        
   2677 ****        96.7500 149.5000 125.2500 Du        
   2678 ****        96.7500 149.7500 121.0000 Du        
   2679 ****        96.7500 149.7500 121.2500 Du        
   2680 ****        96.7500 149.7500 121.5000 Du        
   2681 ****        96.7500 149.7500 121.7500 Du        
   2682 ****        96.7500 149.7500 122.0000 Du        
   2683 ****        96.7500 149.7500 122.2500 Du        
   2684 ****        96.7500 149.7500 122.5000 Du        
   2685 ****        96.7500 149.7500 122.7500 Du        
   2686 ****        96.7500 149.7500 123.0000 Du        
   2687 ****        96.7500 149.7500 123.2500 Du        
   2688 ****        96.7500 149.7500 123.5000 Du        
   2689 ****        96.7500 149.7500 123.7500 Du        
   2690 ****        96.7500 149.7500 124.0000 Du        
   2691 ****        96.7500 149.7500 124.2500 Du        
   2692 ****        96.7500 149.7500 124.5000 Du        
   2693 ****        96.7500 149.7500 124.7500 Du        
   2694 ****        96.7500 149.7500 125.0000 Du        
   2695 ****        96.7500 149.7500 125.2500 Du        
   2696 ****        96.7500 149.7500 125.5000 Du        
   2697 ****        96.7500 150.0000 121.2500 Du        
   2698 ****        96.7500 150.0000 121.5000 Du        
   2699 ****        96.7500 150.0000 121.7500 Du        
   2700 ****        96.7500 150.0000 122.0000 Du        
   2701 ****        96.7500 150.0000 122.2500 Du        
   2702 ****        96.7500 150.0000 122.5000 Du        
   2703 ****        96.7500 150.0000 122.7500 Du        
   2704 ****        96.7500 150.0000 123.0000 Du        
   2705 ****        96.7500 150.0000 123.2500 Du        
   2706 ****        96.7500 150.0000 123.5000 Du        
   2707 ****        96.7500 150.0000 123.7500 Du        
   2708 ****        96.7500 150.0000 124.0000 Du        
   2709 ****        96.7500 150.0000 124.2500 Du        
   2710 ****        96.7500 150.0000 124.5000 Du        
   2711 ****        96.7500 150.0000 124.7500 Du        
   2712 ****        96.7500 150.0000 125.0000 Du        
   2713 ****        96.7500 150.0000 125.2500 Du        
   2714 ****        96.7500 150.0000 125.5000 Du        
   2715 ****        96.7500 150.0000 125.7500 Du        
   2716 ****        96.7500 150.2500 121.5000 Du        
   2717 ****        96.7500 150.2500 121.7500 Du        
   2718 ****        96.7500 150.2500 122.0000 Du        
   2719 ****        96.7500 150.2500 122.2500 Du        
   2720 ****        96.7500 150.2500 122.5000 Du        
   2721 ****        96.7500 150.2500 122.7500 Du        
   2722 ****        96.7500 150.2500 123.0000 Du        
   2723 ****        96.7500 150.2500 123.2500 Du        
   2724 ****        96.7500 150.2500 123.5000 Du        
   2725 ****        96.7500 150.2500 123.7500 Du        
   2726 ****        96.7500 150.2500 124.0000 Du        
   2727 ****        96.7500 150.2500 124.2500 Du        
   2728 ****        96.7500 150.2500 124.5000 Du        
   2729 ****        96.7500 150.2500 124.7500 Du        
   2730 ****        96.7500 150.2500 125.0000 Du        
   2731 ****        96.7500 150.2500 125.2500 Du        
   2732 ****        96.7500 150.2500 125.5000 Du        
   2733 ****        96.7500 150.2500 125.7500 Du        
   2734 ****        96.7500 150.2500 126.0000 Du        
   2735 ****        96.7500 150.5000 121.5000 Du        
   2736 ****        96.7500 150.5000 121.7500 Du        
   2737 ****        96.7500 150.5000 122.0000 Du        
   2738 ****        96.7500 150.5000 122.2500 Du        
   2739 ****        96.7500 150.5000 122.5000 Du        
   2740 ****        96.7500 150.5000 122.7500 Du        
   2741 ****        96.7500 150.5000 123.0000 Du        
   2742 ****        96.7500 150.5000 123.2500 Du        
   2743 ****        96.7500 150.5000 123.5000 Du        
   2744 ****        96.7500 150.5000 123.7500 Du        
   2745 ****        96.7500 150.5000 124.0000 Du        
   2746 ****        96.7500 150.5000 124.2500 Du        
   2747 ****        96.7500 150.5000 124.5000 Du        
   2748 ****        96.7500 150.5000 124.7500 Du        
   2749 ****        96.7500 150.5000 125.0000 Du        
   2750 ****        96.7500 150.5000 125.2500 Du        
   2751 ****        96.7500 150.5000 125.5000 Du        
   2752 ****        96.7500 150.5000 125.7500 Du        
   2753 ****        96.7500 150.5000 126.0000 Du        
   2754 ****        96.7500 150.7500 121.7500 Du        
   2755 ****        96.7500 150.7500 122.0000 Du        
   2756 ****        96.7500 150.7500 122.2500 Du        
   2757 ****        96.7500 150.7500 122.5000 Du        
   2758 ****        96.7500 150.7500 122.7500 Du        
   2759 ****        96.7500 150.7500 123.0000 Du        
   2760 ****        96.7500 150.7500 123.2500 Du        
   2761 ****        96.7500 150.7500 123.5000 Du        
   2762 ****        96.7500 150.7500 123.7500 Du        
   2763 ****        96.7500 150.7500 124.0000 Du        
   2764 ****        96.7500 150.7500 124.2500 Du        
   2765 ****        96.7500 150.7500 124.5000 Du        
   2766 ****        96.7500 150.7500 124.7500 Du        
   2767 ****        96.7500 150.7500 125.0000 Du        
   2768 ****        96.7500 150.7500 125.2500 Du        
   2769 ****        96.7500 150.7500 125.5000 Du        
   2770 ****        96.7500 150.7500 125.7500 Du        
   2771 ****        96.7500 150.7500 126.0000 Du        
   2772 ****        96.7500 150.7500 126.2500 Du        
   2773 ****        96.7500 151.0000 122.2500 Du        
   2774 ****        96.7500 151.0000 122.5000 Du        
   2775 ****        96.7500 151.0000 122.7500 Du        
   2776 ****        96.7500 151.0000 124.7500 Du        
   2777 ****        96.7500 151.0000 125.0000 Du        
   2778 ****        96.7500 151.0000 125.2500 Du        
   2779 ****        96.7500 151.0000 125.5000 Du        
   2780 ****        96.7500 151.0000 125.7500 Du        
   2781 ****        96.7500 151.0000 126.0000 Du        
   2782 ****        96.7500 151.0000 126.2500 Du        
   2783 ****        96.7500 151.0000 126.5000 Du        
   2784 ****        96.7500 151.2500 125.0000 Du        
   2785 ****        96.7500 151.2500 125.2500 Du        
   2786 ****        96.7500 151.2500 125.5000 Du        
   2787 ****        96.7500 151.2500 125.7500 Du        
   2788 ****        96.7500 151.2500 126.0000 Du        
   2789 ****        96.7500 151.2500 126.2500 Du        
   2790 ****        96.7500 151.2500 126.5000 Du        
   2791 ****        96.7500 151.5000 125.5000 Du        
   2792 ****        96.7500 151.5000 125.7500 Du        
   2793 ****        96.7500 151.5000 126.0000 Du        
   2794 ****        96.7500 151.5000 126.2500 Du        
   2795 ****        96.7500 151.5000 126.5000 Du        
   2796 ****        96.7500 151.7500 125.7500 Du        
   2797 ****        96.7500 151.7500 126.0000 Du        
   2798 ****        96.7500 151.7500 126.2500 Du        
   2799 ****        96.7500 151.7500 126.5000 Du        
   2800 ****        96.7500 151.7500 126.7500 Du        
   2801 ****        96.7500 152.0000 125.7500 Du        
   2802 ****        96.7500 152.0000 126.0000 Du        
   2803 ****        96.7500 152.0000 126.2500 Du        
   2804 ****        96.7500 152.0000 126.5000 Du        
   2805 ****        96.7500 152.0000 126.7500 Du        
   2806 ****        96.7500 152.2500 125.7500 Du        
   2807 ****        96.7500 152.2500 126.0000 Du        
   2808 ****        96.7500 152.2500 126.2500 Du        
   2809 ****        96.7500 152.2500 126.5000 Du        
   2810 ****        96.7500 152.2500 126.7500 Du        
   2811 ****        96.7500 152.5000 126.0000 Du        
   2812 ****        96.7500 152.5000 126.2500 Du        
   2813 ****        96.7500 152.5000 126.5000 Du        
   2814 ****        96.7500 152.5000 126.7500 Du        
   2815 ****        96.7500 152.7500 126.0000 Du        
   2816 ****        96.7500 152.7500 126.2500 Du        
   2817 ****        96.7500 152.7500 126.5000 Du        
   2818 ****        96.7500 152.7500 126.7500 Du        
   2819 ****        96.7500 153.0000 126.0000 Du        
   2820 ****        96.7500 153.0000 126.2500 Du        
   2821 ****        96.7500 153.0000 126.5000 Du        
   2822 ****        96.7500 153.2500 126.2500 Du        
   2823 ****        96.7500 153.2500 126.5000 Du        
   2824 ****        96.7500 153.5000 126.2500 Du        
   2825 ****        96.7500 153.7500 126.0000 Du        
   2826 ****        96.7500 153.7500 126.2500 Du        
   2827 ****        96.7500 154.0000 126.0000 Du        
   2828 ****        96.7500 154.0000 126.2500 Du        
   2829 ****        96.7500 154.2500 126.0000 Du        
   2830 ****        96.7500 154.2500 126.2500 Du        
   2831 ****        96.7500 154.5000 125.7500 Du        
   2832 ****        96.7500 154.5000 126.0000 Du        
   2833 ****        96.7500 154.5000 126.2500 Du        
   2834 ****        96.7500 154.7500 125.7500 Du        
   2835 ****        96.7500 154.7500 126.0000 Du        
   2836 ****        96.7500 154.7500 126.2500 Du        
   2837 ****        96.7500 155.0000 126.0000 Du        
   2838 ****        96.7500 155.0000 126.2500 Du        
   2839 ****        97.0000 148.0000 122.0000 Du        
   2840 ****        97.0000 148.0000 122.2500 Du        
   2841 ****        97.0000 148.0000 122.5000 Du        
   2842 ****        97.0000 148.0000 122.7500 Du        
   2843 ****        97.0000 148.2500 121.7500 Du        
   2844 ****        97.0000 148.2500 122.0000 Du        
   2845 ****        97.0000 148.2500 122.2500 Du        
   2846 ****        97.0000 148.2500 122.5000 Du        
   2847 ****        97.0000 148.2500 122.7500 Du        
   2848 ****        97.0000 148.2500 123.0000 Du        
   2849 ****        97.0000 148.5000 121.7500 Du        
   2850 ****        97.0000 148.5000 122.0000 Du        
   2851 ****        97.0000 148.5000 122.2500 Du        
   2852 ****        97.0000 148.5000 122.5000 Du        
   2853 ****        97.0000 148.5000 122.7500 Du        
   2854 ****        97.0000 148.5000 123.0000 Du        
   2855 ****        97.0000 148.5000 123.2500 Du        
   2856 ****        97.0000 148.7500 121.5000 Du        
   2857 ****        97.0000 148.7500 121.7500 Du        
   2858 ****        97.0000 148.7500 122.0000 Du        
   2859 ****        97.0000 148.7500 122.2500 Du        
   2860 ****        97.0000 148.7500 122.5000 Du        
   2861 ****        97.0000 148.7500 122.7500 Du        
   2862 ****        97.0000 148.7500 123.0000 Du        
   2863 ****        97.0000 148.7500 123.2500 Du        
   2864 ****        97.0000 148.7500 123.5000 Du        
   2865 ****        97.0000 149.0000 121.2500 Du        
   2866 ****        97.0000 149.0000 121.5000 Du        
   2867 ****        97.0000 149.0000 121.7500 Du        
   2868 ****        97.0000 149.0000 122.0000 Du        
   2869 ****        97.0000 149.0000 122.2500 Du        
   2870 ****        97.0000 149.0000 122.5000 Du        
   2871 ****        97.0000 149.0000 122.7500 Du        
   2872 ****        97.0000 149.0000 123.0000 Du        
   2873 ****        97.0000 149.0000 123.2500 Du        
   2874 ****        97.0000 149.0000 123.5000 Du        
   2875 ****        97.0000 149.0000 123.7500 Du        
   2876 ****        97.0000 149.2500 121.2500 Du        
   2877 ****        97.0000 149.2500 121.5000 Du        
   2878 ****        97.0000 149.2500 121.7500 Du        
   2879 ****        97.0000 149.2500 122.0000 Du        
   2880 ****        97.0000 149.2500 122.2500 Du        
   2881 ****        97.0000 149.2500 122.5000 Du        
   2882 ****        97.0000 149.2500 122.7500 Du        
   2883 ****        97.0000 149.2500 123.0000 Du        
   2884 ****        97.0000 149.2500 123.2500 Du        
   2885 ****        97.0000 149.2500 123.5000 Du        
   2886 ****        97.0000 149.2500 123.7500 Du        
   2887 ****        97.0000 149.2500 124.0000 Du        
   2888 ****        97.0000 149.5000 121.2500 Du        
   2889 ****        97.0000 149.5000 121.5000 Du        
   2890 ****        97.0000 149.5000 121.7500 Du        
   2891 ****        97.0000 149.5000 122.0000 Du        
   2892 ****        97.0000 149.5000 122.2500 Du        
   2893 ****        97.0000 149.5000 122.5000 Du        
   2894 ****        97.0000 149.5000 122.7500 Du        
   2895 ****        97.0000 149.5000 123.0000 Du        
   2896 ****        97.0000 149.5000 123.2500 Du        
   2897 ****        97.0000 149.5000 123.5000 Du        
   2898 ****        97.0000 149.5000 123.7500 Du        
   2899 ****        97.0000 149.5000 124.0000 Du        
   2900 ****        97.0000 149.5000 124.2500 Du        
   2901 ****        97.0000 149.5000 124.5000 Du        
   2902 ****        97.0000 149.5000 124.7500 Du        
   2903 ****        97.0000 149.7500 121.2500 Du        
   2904 ****        97.0000 149.7500 121.5000 Du        
   2905 ****        97.0000 149.7500 121.7500 Du        
   2906 ****        97.0000 149.7500 122.0000 Du        
   2907 ****        97.0000 149.7500 122.2500 Du        
   2908 ****        97.0000 149.7500 122.5000 Du        
   2909 ****        97.0000 149.7500 122.7500 Du        
   2910 ****        97.0000 149.7500 123.0000 Du        
   2911 ****        97.0000 149.7500 123.2500 Du        
   2912 ****        97.0000 149.7500 123.5000 Du        
   2913 ****        97.0000 149.7500 123.7500 Du        
   2914 ****        97.0000 149.7500 124.0000 Du        
   2915 ****        97.0000 149.7500 124.2500 Du        
   2916 ****        97.0000 149.7500 124.5000 Du        
   2917 ****        97.0000 149.7500 124.7500 Du        
   2918 ****        97.0000 149.7500 125.0000 Du        
   2919 ****        97.0000 149.7500 125.2500 Du        
   2920 ****        97.0000 149.7500 125.5000 Du        
   2921 ****        97.0000 150.0000 121.2500 Du        
   2922 ****        97.0000 150.0000 121.5000 Du        
   2923 ****        97.0000 150.0000 121.7500 Du        
   2924 ****        97.0000 150.0000 122.0000 Du        
   2925 ****        97.0000 150.0000 122.2500 Du        
   2926 ****        97.0000 150.0000 122.5000 Du        
   2927 ****        97.0000 150.0000 122.7500 Du        
   2928 ****        97.0000 150.0000 123.0000 Du        
   2929 ****        97.0000 150.0000 123.2500 Du        
   2930 ****        97.0000 150.0000 123.5000 Du        
   2931 ****        97.0000 150.0000 123.7500 Du        
   2932 ****        97.0000 150.0000 124.0000 Du        
   2933 ****        97.0000 150.0000 124.2500 Du        
   2934 ****        97.0000 150.0000 124.5000 Du        
   2935 ****        97.0000 150.0000 124.7500 Du        
   2936 ****        97.0000 150.0000 125.0000 Du        
   2937 ****        97.0000 150.0000 125.2500 Du        
   2938 ****        97.0000 150.0000 125.5000 Du        
   2939 ****        97.0000 150.0000 125.7500 Du        
   2940 ****        97.0000 150.0000 126.0000 Du        
   2941 ****        97.0000 150.2500 121.5000 Du        
   2942 ****        97.0000 150.2500 121.7500 Du        
   2943 ****        97.0000 150.2500 122.0000 Du        
   2944 ****        97.0000 150.2500 122.2500 Du        
   2945 ****        97.0000 150.2500 122.5000 Du        
   2946 ****        97.0000 150.2500 122.7500 Du        
   2947 ****        97.0000 150.2500 123.0000 Du        
   2948 ****        97.0000 150.2500 123.2500 Du        
   2949 ****        97.0000 150.2500 123.5000 Du        
   2950 ****        97.0000 150.2500 123.7500 Du        
   2951 ****        97.0000 150.2500 124.0000 Du        
   2952 ****        97.0000 150.2500 124.2500 Du        
   2953 ****        97.0000 150.2500 124.5000 Du        
   2954 ****        97.0000 150.2500 124.7500 Du        
   2955 ****        97.0000 150.2500 125.0000 Du        
   2956 ****        97.0000 150.2500 125.2500 Du        
   2957 ****        97.0000 150.2500 125.5000 Du        
   2958 ****        97.0000 150.2500 125.7500 Du        
   2959 ****        97.0000 150.2500 126.0000 Du        
   2960 ****        97.0000 150.5000 121.7500 Du        
   2961 ****        97.0000 150.5000 122.0000 Du        
   2962 ****        97.0000 150.5000 122.2500 Du        
   2963 ****        97.0000 150.5000 122.5000 Du        
   2964 ****        97.0000 150.5000 122.7500 Du        
   2965 ****        97.0000 150.5000 123.0000 Du        
   2966 ****        97.0000 150.5000 123.2500 Du        
   2967 ****        97.0000 150.5000 123.5000 Du        
   2968 ****        97.0000 150.5000 123.7500 Du        
   2969 ****        97.0000 150.5000 124.0000 Du        
   2970 ****        97.0000 150.5000 124.2500 Du        
   2971 ****        97.0000 150.5000 124.5000 Du        
   2972 ****        97.0000 150.5000 124.7500 Du        
   2973 ****        97.0000 150.5000 125.0000 Du        
   2974 ****        97.0000 150.5000 125.2500 Du        
   2975 ****        97.0000 150.5000 125.5000 Du        
   2976 ****        97.0000 150.5000 125.7500 Du        
   2977 ****        97.0000 150.5000 126.0000 Du        
   2978 ****        97.0000 150.5000 126.2500 Du        
   2979 ****        97.0000 150.7500 122.0000 Du        
   2980 ****        97.0000 150.7500 122.2500 Du        
   2981 ****        97.0000 150.7500 122.5000 Du        
   2982 ****        97.0000 150.7500 122.7500 Du        
   2983 ****        97.0000 150.7500 123.0000 Du        
   2984 ****        97.0000 150.7500 123.2500 Du        
   2985 ****        97.0000 150.7500 123.5000 Du        
   2986 ****        97.0000 150.7500 123.7500 Du        
   2987 ****        97.0000 150.7500 124.0000 Du        
   2988 ****        97.0000 150.7500 124.2500 Du        
   2989 ****        97.0000 150.7500 124.5000 Du        
   2990 ****        97.0000 150.7500 124.7500 Du        
   2991 ****        97.0000 150.7500 125.0000 Du        
   2992 ****        97.0000 150.7500 125.2500 Du        
   2993 ****        97.0000 150.7500 125.5000 Du        
   2994 ****        97.0000 150.7500 125.7500 Du        
   2995 ****        97.0000 150.7500 126.0000 Du        
   2996 ****        97.0000 150.7500 126.2500 Du        
   2997 ****        97.0000 150.7500 126.5000 Du        
   2998 ****        97.0000 151.0000 124.7500 Du        
   2999 ****        97.0000 151.0000 125.0000 Du        
   3000 ****        97.0000 151.0000 125.2500 Du        
   3001 ****        97.0000 151.0000 125.5000 Du        
   3002 ****        97.0000 151.0000 125.7500 Du        
   3003 ****        97.0000 151.0000 126.0000 Du        
   3004 ****        97.0000 151.0000 126.2500 Du        
   3005 ****        97.0000 151.0000 126.5000 Du        
   3006 ****        97.0000 151.0000 126.7500 Du        
   3007 ****        97.0000 151.2500 125.2500 Du        
   3008 ****        97.0000 151.2500 125.5000 Du        
   3009 ****        97.0000 151.2500 125.7500 Du        
   3010 ****        97.0000 151.2500 126.0000 Du        
   3011 ****        97.0000 151.2500 126.2500 Du        
   3012 ****        97.0000 151.2500 126.5000 Du        
   3013 ****        97.0000 151.2500 126.7500 Du        
   3014 ****        97.0000 151.5000 125.5000 Du        
   3015 ****        97.0000 151.5000 125.7500 Du        
   3016 ****        97.0000 151.5000 126.0000 Du        
   3017 ****        97.0000 151.5000 126.2500 Du        
   3018 ****        97.0000 151.5000 126.5000 Du        
   3019 ****        97.0000 151.5000 126.7500 Du        
   3020 ****        97.0000 151.7500 125.7500 Du        
   3021 ****        97.0000 151.7500 126.0000 Du        
   3022 ****        97.0000 151.7500 126.2500 Du        
   3023 ****        97.0000 151.7500 126.5000 Du        
   3024 ****        97.0000 151.7500 126.7500 Du        
   3025 ****        97.0000 152.0000 125.7500 Du        
   3026 ****        97.0000 152.0000 126.0000 Du        
   3027 ****        97.0000 152.0000 126.2500 Du        
   3028 ****        97.0000 152.0000 126.5000 Du        
   3029 ****        97.0000 152.0000 126.7500 Du        
   3030 ****        97.0000 152.2500 126.0000 Du        
   3031 ****        97.0000 152.2500 126.2500 Du        
   3032 ****        97.0000 152.2500 126.5000 Du        
   3033 ****        97.0000 152.2500 126.7500 Du        
   3034 ****        97.0000 152.2500 127.0000 Du        
   3035 ****        97.0000 152.5000 126.0000 Du        
   3036 ****        97.0000 152.5000 126.2500 Du        
   3037 ****        97.0000 152.5000 126.5000 Du        
   3038 ****        97.0000 152.5000 126.7500 Du        
   3039 ****        97.0000 152.5000 127.0000 Du        
   3040 ****        97.0000 152.7500 126.0000 Du        
   3041 ****        97.0000 152.7500 126.2500 Du        
   3042 ****        97.0000 152.7500 126.5000 Du        
   3043 ****        97.0000 152.7500 126.7500 Du        
   3044 ****        97.0000 152.7500 127.0000 Du        
   3045 ****        97.0000 153.0000 126.2500 Du        
   3046 ****        97.0000 153.0000 126.5000 Du        
   3047 ****        97.0000 153.0000 126.7500 Du        
   3048 ****        97.0000 153.2500 126.2500 Du        
   3049 ****        97.0000 153.2500 126.5000 Du        
   3050 ****        97.0000 153.2500 126.7500 Du        
   3051 ****        97.0000 153.5000 126.2500 Du        
   3052 ****        97.0000 153.5000 126.5000 Du        
   3053 ****        97.0000 153.7500 126.2500 Du        
   3054 ****        97.0000 153.7500 126.5000 Du        
   3055 ****        97.0000 154.0000 126.2500 Du        
   3056 ****        97.0000 154.0000 126.5000 Du        
   3057 ****        97.0000 154.2500 126.0000 Du        
   3058 ****        97.0000 154.2500 126.2500 Du        
   3059 ****        97.0000 154.2500 126.5000 Du        
   3060 ****        97.0000 154.5000 126.0000 Du        
   3061 ****        97.0000 154.5000 126.2500 Du        
   3062 ****        97.0000 154.5000 126.5000 Du        
   3063 ****        97.0000 154.7500 125.7500 Du        
   3064 ****        97.0000 154.7500 126.0000 Du        
   3065 ****        97.0000 154.7500 126.2500 Du        
   3066 ****        97.0000 154.7500 126.5000 Du        
   3067 ****        97.0000 155.0000 125.7500 Du        
   3068 ****        97.0000 155.0000 126.0000 Du        
   3069 ****        97.0000 155.0000 126.2500 Du        
   3070 ****        97.0000 155.0000 126.5000 Du        
   3071 ****        97.0000 155.2500 126.0000 Du        
   3072 ****        97.0000 155.2500 126.2500 Du        
   3073 ****        97.0000 155.2500 126.5000 Du        
   3074 ****        97.2500 148.0000 122.2500 Du        
   3075 ****        97.2500 148.0000 122.5000 Du        
   3076 ****        97.2500 148.0000 122.7500 Du        
   3077 ****        97.2500 148.2500 122.0000 Du        
   3078 ****        97.2500 148.2500 122.2500 Du        
   3079 ****        97.2500 148.2500 122.5000 Du        
   3080 ****        97.2500 148.2500 122.7500 Du        
   3081 ****        97.2500 148.2500 123.0000 Du        
   3082 ****        97.2500 148.5000 121.7500 Du        
   3083 ****        97.2500 148.5000 122.0000 Du        
   3084 ****        97.2500 148.5000 122.2500 Du        
   3085 ****        97.2500 148.5000 122.5000 Du        
   3086 ****        97.2500 148.5000 122.7500 Du        
   3087 ****        97.2500 148.5000 123.0000 Du        
   3088 ****        97.2500 148.5000 123.2500 Du        
   3089 ****        97.2500 148.7500 121.7500 Du        
   3090 ****        97.2500 148.7500 122.0000 Du        
   3091 ****        97.2500 148.7500 122.2500 Du        
   3092 ****        97.2500 148.7500 122.5000 Du        
   3093 ****        97.2500 148.7500 122.7500 Du        
   3094 ****        97.2500 148.7500 123.0000 Du        
   3095 ****        97.2500 148.7500 123.2500 Du        
   3096 ****        97.2500 149.0000 121.7500 Du        
   3097 ****        97.2500 149.0000 122.0000 Du        
   3098 ****        97.2500 149.0000 122.2500 Du        
   3099 ****        97.2500 149.0000 122.5000 Du        
   3100 ****        97.2500 149.0000 122.7500 Du        
   3101 ****        97.2500 149.0000 123.0000 Du        
   3102 ****        97.2500 149.0000 123.2500 Du        
   3103 ****        97.2500 149.0000 123.5000 Du        
   3104 ****        97.2500 149.2500 121.5000 Du        
   3105 ****        97.2500 149.2500 121.7500 Du        
   3106 ****        97.2500 149.2500 122.0000 Du        
   3107 ****        97.2500 149.2500 122.2500 Du        
   3108 ****        97.2500 149.2500 122.5000 Du        
   3109 ****        97.2500 149.2500 122.7500 Du        
   3110 ****        97.2500 149.2500 123.0000 Du        
   3111 ****        97.2500 149.2500 123.2500 Du        
   3112 ****        97.2500 149.2500 123.5000 Du        
   3113 ****        97.2500 149.2500 123.7500 Du        
   3114 ****        97.2500 149.2500 124.0000 Du        
   3115 ****        97.2500 149.5000 121.5000 Du        
   3116 ****        97.2500 149.5000 121.7500 Du        
   3117 ****        97.2500 149.5000 122.0000 Du        
   3118 ****        97.2500 149.5000 122.2500 Du        
   3119 ****        97.2500 149.5000 122.5000 Du        
   3120 ****        97.2500 149.5000 122.7500 Du        
   3121 ****        97.2500 149.5000 123.0000 Du        
   3122 ****        97.2500 149.5000 123.2500 Du        
   3123 ****        97.2500 149.5000 123.5000 Du        
   3124 ****        97.2500 149.5000 123.7500 Du        
   3125 ****        97.2500 149.5000 124.0000 Du        
   3126 ****        97.2500 149.7500 121.5000 Du        
   3127 ****        97.2500 149.7500 121.7500 Du        
   3128 ****        97.2500 149.7500 122.0000 Du        
   3129 ****        97.2500 149.7500 122.2500 Du        
   3130 ****        97.2500 149.7500 122.5000 Du        
   3131 ****        97.2500 149.7500 122.7500 Du        
   3132 ****        97.2500 149.7500 123.0000 Du        
   3133 ****        97.2500 149.7500 123.2500 Du        
   3134 ****        97.2500 149.7500 123.5000 Du        
   3135 ****        97.2500 149.7500 123.7500 Du        
   3136 ****        97.2500 149.7500 124.0000 Du        
   3137 ****        97.2500 149.7500 124.2500 Du        
   3138 ****        97.2500 149.7500 124.5000 Du        
   3139 ****        97.2500 149.7500 124.7500 Du        
   3140 ****        97.2500 149.7500 125.0000 Du        
   3141 ****        97.2500 150.0000 121.5000 Du        
   3142 ****        97.2500 150.0000 121.7500 Du        
   3143 ****        97.2500 150.0000 122.0000 Du        
   3144 ****        97.2500 150.0000 122.2500 Du        
   3145 ****        97.2500 150.0000 122.5000 Du        
   3146 ****        97.2500 150.0000 122.7500 Du        
   3147 ****        97.2500 150.0000 123.0000 Du        
   3148 ****        97.2500 150.0000 123.2500 Du        
   3149 ****        97.2500 150.0000 123.5000 Du        
   3150 ****        97.2500 150.0000 123.7500 Du        
   3151 ****        97.2500 150.0000 124.0000 Du        
   3152 ****        97.2500 150.0000 124.2500 Du        
   3153 ****        97.2500 150.0000 124.5000 Du        
   3154 ****        97.2500 150.0000 124.7500 Du        
   3155 ****        97.2500 150.0000 125.0000 Du        
   3156 ****        97.2500 150.0000 125.2500 Du        
   3157 ****        97.2500 150.0000 125.5000 Du        
   3158 ****        97.2500 150.0000 125.7500 Du        
   3159 ****        97.2500 150.2500 121.7500 Du        
   3160 ****        97.2500 150.2500 122.0000 Du        
   3161 ****        97.2500 150.2500 122.2500 Du        
   3162 ****        97.2500 150.2500 122.5000 Du        
   3163 ****        97.2500 150.2500 122.7500 Du        
   3164 ****        97.2500 150.2500 123.0000 Du        
   3165 ****        97.2500 150.2500 123.2500 Du        
   3166 ****        97.2500 150.2500 123.5000 Du        
   3167 ****        97.2500 150.2500 123.7500 Du        
   3168 ****        97.2500 150.2500 124.0000 Du        
   3169 ****        97.2500 150.2500 124.2500 Du        
   3170 ****        97.2500 150.2500 124.5000 Du        
   3171 ****        97.2500 150.2500 124.7500 Du        
   3172 ****        97.2500 150.2500 125.0000 Du        
   3173 ****        97.2500 150.2500 125.2500 Du        
   3174 ****        97.2500 150.2500 125.5000 Du        
   3175 ****        97.2500 150.2500 125.7500 Du        
   3176 ****        97.2500 150.2500 126.0000 Du        
   3177 ****        97.2500 150.5000 121.7500 Du        
   3178 ****        97.2500 150.5000 122.0000 Du        
   3179 ****        97.2500 150.5000 122.2500 Du        
   3180 ****        97.2500 150.5000 122.5000 Du        
   3181 ****        97.2500 150.5000 122.7500 Du        
   3182 ****        97.2500 150.5000 123.0000 Du        
   3183 ****        97.2500 150.5000 123.2500 Du        
   3184 ****        97.2500 150.5000 123.5000 Du        
   3185 ****        97.2500 150.5000 123.7500 Du        
   3186 ****        97.2500 150.5000 124.0000 Du        
   3187 ****        97.2500 150.5000 124.2500 Du        
   3188 ****        97.2500 150.5000 124.5000 Du        
   3189 ****        97.2500 150.5000 124.7500 Du        
   3190 ****        97.2500 150.5000 125.0000 Du        
   3191 ****        97.2500 150.5000 125.2500 Du        
   3192 ****        97.2500 150.5000 125.5000 Du        
   3193 ****        97.2500 150.5000 125.7500 Du        
   3194 ****        97.2500 150.5000 126.0000 Du        
   3195 ****        97.2500 150.5000 126.2500 Du        
   3196 ****        97.2500 150.7500 122.0000 Du        
   3197 ****        97.2500 150.7500 122.2500 Du        
   3198 ****        97.2500 150.7500 122.5000 Du        
   3199 ****        97.2500 150.7500 122.7500 Du        
   3200 ****        97.2500 150.7500 123.0000 Du        
   3201 ****        97.2500 150.7500 123.2500 Du        
   3202 ****        97.2500 150.7500 124.0000 Du        
   3203 ****        97.2500 150.7500 124.2500 Du        
   3204 ****        97.2500 150.7500 124.5000 Du        
   3205 ****        97.2500 150.7500 124.7500 Du        
   3206 ****        97.2500 150.7500 125.0000 Du        
   3207 ****        97.2500 150.7500 125.2500 Du        
   3208 ****        97.2500 150.7500 125.5000 Du        
   3209 ****        97.2500 150.7500 125.7500 Du        
   3210 ****        97.2500 150.7500 126.0000 Du        
   3211 ****        97.2500 150.7500 126.2500 Du        
   3212 ****        97.2500 150.7500 126.5000 Du        
   3213 ****        97.2500 151.0000 125.0000 Du        
   3214 ****        97.2500 151.0000 125.2500 Du        
   3215 ****        97.2500 151.0000 125.5000 Du        
   3216 ****        97.2500 151.0000 125.7500 Du        
   3217 ****        97.2500 151.0000 126.0000 Du        
   3218 ****        97.2500 151.0000 126.2500 Du        
   3219 ****        97.2500 151.0000 126.5000 Du        
   3220 ****        97.2500 151.0000 126.7500 Du        
   3221 ****        97.2500 151.2500 125.2500 Du        
   3222 ****        97.2500 151.2500 125.5000 Du        
   3223 ****        97.2500 151.2500 125.7500 Du        
   3224 ****        97.2500 151.2500 126.0000 Du        
   3225 ****        97.2500 151.2500 126.2500 Du        
   3226 ****        97.2500 151.2500 126.5000 Du        
   3227 ****        97.2500 151.2500 126.7500 Du        
   3228 ****        97.2500 151.5000 125.7500 Du        
   3229 ****        97.2500 151.5000 126.0000 Du        
   3230 ****        97.2500 151.5000 126.2500 Du        
   3231 ****        97.2500 151.5000 126.5000 Du        
   3232 ****        97.2500 151.5000 126.7500 Du        
   3233 ****        97.2500 151.7500 125.7500 Du        
   3234 ****        97.2500 151.7500 126.0000 Du        
   3235 ****        97.2500 151.7500 126.2500 Du        
   3236 ****        97.2500 151.7500 126.5000 Du        
   3237 ****        97.2500 151.7500 126.7500 Du        
   3238 ****        97.2500 152.0000 126.0000 Du        
   3239 ****        97.2500 152.0000 126.2500 Du        
   3240 ****        97.2500 152.0000 126.5000 Du        
   3241 ****        97.2500 152.0000 126.7500 Du        
   3242 ****        97.2500 152.0000 127.0000 Du        
   3243 ****        97.2500 152.2500 126.0000 Du        
   3244 ****        97.2500 152.2500 126.2500 Du        
   3245 ****        97.2500 152.2500 126.5000 Du        
   3246 ****        97.2500 152.2500 126.7500 Du        
   3247 ****        97.2500 152.2500 127.0000 Du        
   3248 ****        97.2500 152.5000 126.2500 Du        
   3249 ****        97.2500 152.5000 126.5000 Du        
   3250 ****        97.2500 152.5000 126.7500 Du        
   3251 ****        97.2500 152.5000 127.0000 Du        
   3252 ****        97.2500 152.7500 126.2500 Du        
   3253 ****        97.2500 152.7500 126.5000 Du        
   3254 ****        97.2500 152.7500 126.7500 Du        
   3255 ****        97.2500 152.7500 127.0000 Du        
   3256 ****        97.2500 152.7500 127.2500 Du        
   3257 ****        97.2500 153.0000 126.2500 Du        
   3258 ****        97.2500 153.0000 126.5000 Du        
   3259 ****        97.2500 153.0000 126.7500 Du        
   3260 ****        97.2500 153.0000 127.0000 Du        
   3261 ****        97.2500 153.2500 126.2500 Du        
   3262 ****        97.2500 153.2500 126.5000 Du        
   3263 ****        97.2500 153.2500 126.7500 Du        
   3264 ****        97.2500 153.2500 127.0000 Du        
   3265 ****        97.2500 153.5000 126.2500 Du        
   3266 ****        97.2500 153.5000 126.5000 Du        
   3267 ****        97.2500 153.5000 126.7500 Du        
   3268 ****        97.2500 153.7500 126.2500 Du        
   3269 ****        97.2500 153.7500 126.5000 Du        
   3270 ****        97.2500 153.7500 126.7500 Du        
   3271 ****        97.2500 154.0000 126.2500 Du        
   3272 ****        97.2500 154.0000 126.5000 Du        
   3273 ****        97.2500 154.0000 126.7500 Du        
   3274 ****        97.2500 154.2500 126.2500 Du        
   3275 ****        97.2500 154.2500 126.5000 Du        
   3276 ****        97.2500 154.2500 126.7500 Du        
   3277 ****        97.2500 154.5000 126.0000 Du        
   3278 ****        97.2500 154.5000 126.2500 Du        
   3279 ****        97.2500 154.5000 126.5000 Du        
   3280 ****        97.2500 154.5000 126.7500 Du        
   3281 ****        97.2500 154.7500 126.0000 Du        
   3282 ****        97.2500 154.7500 126.2500 Du        
   3283 ****        97.2500 154.7500 126.5000 Du        
   3284 ****        97.2500 154.7500 126.7500 Du        
   3285 ****        97.2500 155.0000 125.7500 Du        
   3286 ****        97.2500 155.0000 126.0000 Du        
   3287 ****        97.2500 155.0000 126.2500 Du        
   3288 ****        97.2500 155.0000 126.5000 Du        
   3289 ****        97.2500 155.0000 126.7500 Du        
   3290 ****        97.2500 155.0000 127.0000 Du        
   3291 ****        97.2500 155.2500 126.0000 Du        
   3292 ****        97.2500 155.2500 126.2500 Du        
   3293 ****        97.2500 155.2500 126.5000 Du        
   3294 ****        97.2500 155.2500 126.7500 Du        
   3295 ****        97.2500 155.2500 127.0000 Du        
   3296 ****        97.2500 155.5000 126.2500 Du        
   3297 ****        97.2500 155.5000 126.5000 Du        
   3298 ****        97.2500 155.5000 126.7500 Du        
   3299 ****        97.5000 148.0000 122.2500 Du        
   3300 ****        97.5000 148.0000 122.5000 Du        
   3301 ****        97.5000 148.2500 122.0000 Du        
   3302 ****        97.5000 148.2500 122.2500 Du        
   3303 ****        97.5000 148.2500 122.5000 Du        
   3304 ****        97.5000 148.2500 122.7500 Du        
   3305 ****        97.5000 148.5000 122.0000 Du        
   3306 ****        97.5000 148.5000 122.2500 Du        
   3307 ****        97.5000 148.5000 122.5000 Du        
   3308 ****        97.5000 148.5000 122.7500 Du        
   3309 ****        97.5000 148.5000 123.0000 Du        
   3310 ****        97.5000 148.7500 122.0000 Du        
   3311 ****        97.5000 148.7500 122.2500 Du        
   3312 ****        97.5000 148.7500 122.5000 Du        
   3313 ****        97.5000 148.7500 122.7500 Du        
   3314 ****        97.5000 148.7500 123.0000 Du        
   3315 ****        97.5000 148.7500 123.2500 Du        
   3316 ****        97.5000 149.0000 121.7500 Du        
   3317 ****        97.5000 149.0000 122.0000 Du        
   3318 ****        97.5000 149.0000 122.2500 Du        
   3319 ****        97.5000 149.0000 122.5000 Du        
   3320 ****        97.5000 149.0000 122.7500 Du        
   3321 ****        97.5000 149.0000 123.0000 Du        
   3322 ****        97.5000 149.0000 123.2500 Du        
   3323 ****        97.5000 149.0000 123.5000 Du        
   3324 ****        97.5000 149.2500 121.7500 Du        
   3325 ****        97.5000 149.2500 122.0000 Du        
   3326 ****        97.5000 149.2500 122.2500 Du        
   3327 ****        97.5000 149.2500 122.5000 Du        
   3328 ****        97.5000 149.2500 122.7500 Du        
   3329 ****        97.5000 149.2500 123.0000 Du        
   3330 ****        97.5000 149.2500 123.2500 Du        
   3331 ****        97.5000 149.2500 123.5000 Du        
   3332 ****        97.5000 149.2500 123.7500 Du        
   3333 ****        97.5000 149.5000 121.7500 Du        
   3334 ****        97.5000 149.5000 122.0000 Du        
   3335 ****        97.5000 149.5000 122.2500 Du        
   3336 ****        97.5000 149.5000 122.5000 Du        
   3337 ****        97.5000 149.5000 122.7500 Du        
   3338 ****        97.5000 149.5000 123.0000 Du        
   3339 ****        97.5000 149.5000 123.2500 Du        
   3340 ****        97.5000 149.5000 123.5000 Du        
   3341 ****        97.5000 149.5000 123.7500 Du        
   3342 ****        97.5000 149.5000 124.0000 Du        
   3343 ****        97.5000 149.7500 121.5000 Du        
   3344 ****        97.5000 149.7500 121.7500 Du        
   3345 ****        97.5000 149.7500 122.0000 Du        
   3346 ****        97.5000 149.7500 122.2500 Du        
   3347 ****        97.5000 149.7500 122.5000 Du        
   3348 ****        97.5000 149.7500 122.7500 Du        
   3349 ****        97.5000 149.7500 123.0000 Du        
   3350 ****        97.5000 149.7500 123.2500 Du        
   3351 ****        97.5000 149.7500 123.5000 Du        
   3352 ****        97.5000 149.7500 123.7500 Du        
   3353 ****        97.5000 149.7500 124.0000 Du        
   3354 ****        97.5000 149.7500 124.2500 Du        
   3355 ****        97.5000 149.7500 124.5000 Du        
   3356 ****        97.5000 150.0000 121.5000 Du        
   3357 ****        97.5000 150.0000 121.7500 Du        
   3358 ****        97.5000 150.0000 122.0000 Du        
   3359 ****        97.5000 150.0000 122.2500 Du        
   3360 ****        97.5000 150.0000 122.5000 Du        
   3361 ****        97.5000 150.0000 122.7500 Du        
   3362 ****        97.5000 150.0000 123.0000 Du        
   3363 ****        97.5000 150.0000 123.2500 Du        
   3364 ****        97.5000 150.0000 123.5000 Du        
   3365 ****        97.5000 150.0000 123.7500 Du        
   3366 ****        97.5000 150.0000 124.0000 Du        
   3367 ****        97.5000 150.0000 124.2500 Du        
   3368 ****        97.5000 150.0000 124.5000 Du        
   3369 ****        97.5000 150.0000 124.7500 Du        
   3370 ****        97.5000 150.0000 125.0000 Du        
   3371 ****        97.5000 150.0000 125.2500 Du        
   3372 ****        97.5000 150.2500 121.7500 Du        
   3373 ****        97.5000 150.2500 122.0000 Du        
   3374 ****        97.5000 150.2500 122.2500 Du        
   3375 ****        97.5000 150.2500 122.5000 Du        
   3376 ****        97.5000 150.2500 122.7500 Du        
   3377 ****        97.5000 150.2500 123.0000 Du        
   3378 ****        97.5000 150.2500 123.2500 Du        
   3379 ****        97.5000 150.2500 123.5000 Du        
   3380 ****        97.5000 150.2500 123.7500 Du        
   3381 ****        97.5000 150.2500 124.0000 Du        
   3382 ****        97.5000 150.2500 124.2500 Du        
   3383 ****        97.5000 150.2500 124.5000 Du        
   3384 ****        97.5000 150.2500 124.7500 Du        
   3385 ****        97.5000 150.2500 125.0000 Du        
   3386 ****        97.5000 150.2500 125.2500 Du        
   3387 ****        97.5000 150.2500 125.5000 Du        
   3388 ****        97.5000 150.2500 125.7500 Du        
   3389 ****        97.5000 150.2500 126.0000 Du        
   3390 ****        97.5000 150.5000 122.0000 Du        
   3391 ****        97.5000 150.5000 122.2500 Du        
   3392 ****        97.5000 150.5000 122.5000 Du        
   3393 ****        97.5000 150.5000 122.7500 Du        
   3394 ****        97.5000 150.5000 123.0000 Du        
   3395 ****        97.5000 150.5000 123.2500 Du        
   3396 ****        97.5000 150.5000 123.5000 Du        
   3397 ****        97.5000 150.5000 123.7500 Du        
   3398 ****        97.5000 150.5000 124.0000 Du        
   3399 ****        97.5000 150.5000 124.2500 Du        
   3400 ****        97.5000 150.5000 124.5000 Du        
   3401 ****        97.5000 150.5000 124.7500 Du        
   3402 ****        97.5000 150.5000 125.0000 Du        
   3403 ****        97.5000 150.5000 125.2500 Du        
   3404 ****        97.5000 150.5000 125.5000 Du        
   3405 ****        97.5000 150.5000 125.7500 Du        
   3406 ****        97.5000 150.5000 126.0000 Du        
   3407 ****        97.5000 150.5000 126.2500 Du        
   3408 ****        97.5000 150.7500 122.2500 Du        
   3409 ****        97.5000 150.7500 122.5000 Du        
   3410 ****        97.5000 150.7500 122.7500 Du        
   3411 ****        97.5000 150.7500 123.0000 Du        
   3412 ****        97.5000 150.7500 123.2500 Du        
   3413 ****        97.5000 150.7500 123.5000 Du        
   3414 ****        97.5000 150.7500 123.7500 Du        
   3415 ****        97.5000 150.7500 124.0000 Du        
   3416 ****        97.5000 150.7500 124.5000 Du        
   3417 ****        97.5000 150.7500 124.7500 Du        
   3418 ****        97.5000 150.7500 125.0000 Du        
   3419 ****        97.5000 150.7500 125.2500 Du        
   3420 ****        97.5000 150.7500 125.5000 Du        
   3421 ****        97.5000 150.7500 125.7500 Du        
   3422 ****        97.5000 150.7500 126.0000 Du        
   3423 ****        97.5000 150.7500 126.2500 Du        
   3424 ****        97.5000 150.7500 126.5000 Du        
   3425 ****        97.5000 151.0000 125.0000 Du        
   3426 ****        97.5000 151.0000 125.2500 Du        
   3427 ****        97.5000 151.0000 125.5000 Du        
   3428 ****        97.5000 151.0000 125.7500 Du        
   3429 ****        97.5000 151.0000 126.0000 Du        
   3430 ****        97.5000 151.0000 126.2500 Du        
   3431 ****        97.5000 151.0000 126.5000 Du        
   3432 ****        97.5000 151.0000 126.7500 Du        
   3433 ****        97.5000 151.2500 125.5000 Du        
   3434 ****        97.5000 151.2500 125.7500 Du        
   3435 ****        97.5000 151.2500 126.0000 Du        
   3436 ****        97.5000 151.2500 126.2500 Du        
   3437 ****        97.5000 151.2500 126.5000 Du        
   3438 ****        97.5000 151.2500 126.7500 Du        
   3439 ****        97.5000 151.5000 125.7500 Du        
   3440 ****        97.5000 151.5000 126.0000 Du        
   3441 ****        97.5000 151.5000 126.2500 Du        
   3442 ****        97.5000 151.5000 126.5000 Du        
   3443 ****        97.5000 151.5000 126.7500 Du        
   3444 ****        97.5000 151.5000 127.0000 Du        
   3445 ****        97.5000 151.7500 126.0000 Du        
   3446 ****        97.5000 151.7500 126.2500 Du        
   3447 ****        97.5000 151.7500 126.5000 Du        
   3448 ****        97.5000 151.7500 126.7500 Du        
   3449 ****        97.5000 151.7500 127.0000 Du        
   3450 ****        97.5000 152.0000 126.0000 Du        
   3451 ****        97.5000 152.0000 126.2500 Du        
   3452 ****        97.5000 152.0000 126.5000 Du        
   3453 ****        97.5000 152.0000 126.7500 Du        
   3454 ****        97.5000 152.0000 127.0000 Du        
   3455 ****        97.5000 152.2500 126.2500 Du        
   3456 ****        97.5000 152.2500 126.5000 Du        
   3457 ****        97.5000 152.2500 126.7500 Du        
   3458 ****        97.5000 152.2500 127.0000 Du        
   3459 ****        97.5000 152.2500 127.2500 Du        
   3460 ****        97.5000 152.5000 126.2500 Du        
   3461 ****        97.5000 152.5000 126.5000 Du        
   3462 ****        97.5000 152.5000 126.7500 Du        
   3463 ****        97.5000 152.5000 127.0000 Du        
   3464 ****        97.5000 152.5000 127.2500 Du        
   3465 ****        97.5000 152.7500 126.2500 Du        
   3466 ****        97.5000 152.7500 126.5000 Du        
   3467 ****        97.5000 152.7500 126.7500 Du        
   3468 ****        97.5000 152.7500 127.0000 Du        
   3469 ****        97.5000 152.7500 127.2500 Du        
   3470 ****        97.5000 152.7500 127.5000 Du        
   3471 ****        97.5000 153.0000 126.5000 Du        
   3472 ****        97.5000 153.0000 126.7500 Du        
   3473 ****        97.5000 153.0000 127.0000 Du        
   3474 ****        97.5000 153.0000 127.2500 Du        
   3475 ****        97.5000 153.0000 127.5000 Du        
   3476 ****        97.5000 153.2500 126.5000 Du        
   3477 ****        97.5000 153.2500 126.7500 Du        
   3478 ****        97.5000 153.2500 127.0000 Du        
   3479 ****        97.5000 153.2500 127.2500 Du        
   3480 ****        97.5000 153.5000 126.5000 Du        
   3481 ****        97.5000 153.5000 126.7500 Du        
   3482 ****        97.5000 153.5000 127.0000 Du        
   3483 ****        97.5000 153.5000 127.2500 Du        
   3484 ****        97.5000 153.7500 126.2500 Du        
   3485 ****        97.5000 153.7500 126.5000 Du        
   3486 ****        97.5000 153.7500 126.7500 Du        
   3487 ****        97.5000 153.7500 127.0000 Du        
   3488 ****        97.5000 154.0000 126.2500 Du        
   3489 ****        97.5000 154.0000 126.5000 Du        
   3490 ****        97.5000 154.0000 126.7500 Du        
   3491 ****        97.5000 154.0000 127.0000 Du        
   3492 ****        97.5000 154.2500 126.2500 Du        
   3493 ****        97.5000 154.2500 126.5000 Du        
   3494 ****        97.5000 154.2500 126.7500 Du        
   3495 ****        97.5000 154.2500 127.0000 Du        
   3496 ****        97.5000 154.5000 126.0000 Du        
   3497 ****        97.5000 154.5000 126.2500 Du        
   3498 ****        97.5000 154.5000 126.5000 Du        
   3499 ****        97.5000 154.5000 126.7500 Du        
   3500 ****        97.5000 154.5000 127.0000 Du        
   3501 ****        97.5000 154.7500 126.0000 Du        
   3502 ****        97.5000 154.7500 126.2500 Du        
   3503 ****        97.5000 154.7500 126.5000 Du        
   3504 ****        97.5000 154.7500 126.7500 Du        
   3505 ****        97.5000 154.7500 127.0000 Du        
   3506 ****        97.5000 155.0000 126.0000 Du        
   3507 ****        97.5000 155.0000 126.2500 Du        
   3508 ****        97.5000 155.0000 126.5000 Du        
   3509 ****        97.5000 155.0000 126.7500 Du        
   3510 ****        97.5000 155.0000 127.0000 Du        
   3511 ****        97.5000 155.2500 125.7500 Du        
   3512 ****        97.5000 155.2500 126.0000 Du        
   3513 ****        97.5000 155.2500 126.2500 Du        
   3514 ****        97.5000 155.2500 126.5000 Du        
   3515 ****        97.5000 155.2500 126.7500 Du        
   3516 ****        97.5000 155.2500 127.0000 Du        
   3517 ****        97.5000 155.5000 126.0000 Du        
   3518 ****        97.5000 155.5000 126.2500 Du        
   3519 ****        97.5000 155.5000 126.5000 Du        
   3520 ****        97.5000 155.5000 126.7500 Du        
   3521 ****        97.5000 155.5000 127.0000 Du        
   3522 ****        97.5000 155.7500 126.2500 Du        
   3523 ****        97.5000 155.7500 126.5000 Du        
   3524 ****        97.5000 155.7500 126.7500 Du        
   3525 ****        97.5000 155.7500 127.0000 Du        
   3526 ****        97.7500 148.2500 122.2500 Du        
   3527 ****        97.7500 148.2500 122.5000 Du        
   3528 ****        97.7500 148.2500 122.7500 Du        
   3529 ****        97.7500 148.5000 122.2500 Du        
   3530 ****        97.7500 148.5000 122.5000 Du        
   3531 ****        97.7500 148.5000 122.7500 Du        
   3532 ****        97.7500 148.7500 122.0000 Du        
   3533 ****        97.7500 148.7500 122.2500 Du        
   3534 ****        97.7500 148.7500 122.5000 Du        
   3535 ****        97.7500 148.7500 122.7500 Du        
   3536 ****        97.7500 148.7500 123.0000 Du        
   3537 ****        97.7500 149.0000 122.0000 Du        
   3538 ****        97.7500 149.0000 122.2500 Du        
   3539 ****        97.7500 149.0000 122.5000 Du        
   3540 ****        97.7500 149.0000 122.7500 Du        
   3541 ****        97.7500 149.0000 123.0000 Du        
   3542 ****        97.7500 149.0000 123.2500 Du        
   3543 ****        97.7500 149.2500 122.0000 Du        
   3544 ****        97.7500 149.2500 122.2500 Du        
   3545 ****        97.7500 149.2500 122.5000 Du        
   3546 ****        97.7500 149.2500 122.7500 Du        
   3547 ****        97.7500 149.2500 123.0000 Du        
   3548 ****        97.7500 149.2500 123.2500 Du        
   3549 ****        97.7500 149.2500 123.5000 Du        
   3550 ****        97.7500 149.5000 121.7500 Du        
   3551 ****        97.7500 149.5000 122.0000 Du        
   3552 ****        97.7500 149.5000 122.2500 Du        
   3553 ****        97.7500 149.5000 122.5000 Du        
   3554 ****        97.7500 149.5000 122.7500 Du        
   3555 ****        97.7500 149.5000 123.0000 Du        
   3556 ****        97.7500 149.5000 123.2500 Du        
   3557 ****        97.7500 149.5000 123.5000 Du        
   3558 ****        97.7500 149.5000 123.7500 Du        
   3559 ****        97.7500 149.5000 124.0000 Du        
   3560 ****        97.7500 149.7500 121.7500 Du        
   3561 ****        97.7500 149.7500 122.0000 Du        
   3562 ****        97.7500 149.7500 122.2500 Du        
   3563 ****        97.7500 149.7500 122.5000 Du        
   3564 ****        97.7500 149.7500 122.7500 Du        
   3565 ****        97.7500 149.7500 123.0000 Du        
   3566 ****        97.7500 149.7500 123.2500 Du        
   3567 ****        97.7500 149.7500 123.5000 Du        
   3568 ****        97.7500 149.7500 123.7500 Du        
   3569 ****        97.7500 149.7500 124.0000 Du        
   3570 ****        97.7500 149.7500 124.2500 Du        
   3571 ****        97.7500 150.0000 121.7500 Du        
   3572 ****        97.7500 150.0000 122.0000 Du        
   3573 ****        97.7500 150.0000 122.2500 Du        
   3574 ****        97.7500 150.0000 122.5000 Du        
   3575 ****        97.7500 150.0000 122.7500 Du        
   3576 ****        97.7500 150.0000 123.0000 Du        
   3577 ****        97.7500 150.0000 123.2500 Du        
   3578 ****        97.7500 150.0000 123.5000 Du        
   3579 ****        97.7500 150.0000 123.7500 Du        
   3580 ****        97.7500 150.0000 124.0000 Du        
   3581 ****        97.7500 150.0000 124.2500 Du        
   3582 ****        97.7500 150.0000 124.5000 Du        
   3583 ****        97.7500 150.0000 124.7500 Du        
   3584 ****        97.7500 150.2500 121.7500 Du        
   3585 ****        97.7500 150.2500 122.0000 Du        
   3586 ****        97.7500 150.2500 122.2500 Du        
   3587 ****        97.7500 150.2500 122.5000 Du        
   3588 ****        97.7500 150.2500 122.7500 Du        
   3589 ****        97.7500 150.2500 123.0000 Du        
   3590 ****        97.7500 150.2500 123.2500 Du        
   3591 ****        97.7500 150.2500 123.5000 Du        
   3592 ****        97.7500 150.2500 123.7500 Du        
   3593 ****        97.7500 150.2500 124.0000 Du        
   3594 ****        97.7500 150.2500 124.2500 Du        
   3595 ****        97.7500 150.2500 124.5000 Du        
   3596 ****        97.7500 150.2500 124.7500 Du        
   3597 ****        97.7500 150.2500 125.0000 Du        
   3598 ****        97.7500 150.2500 125.2500 Du        
   3599 ****        97.7500 150.2500 125.5000 Du        
   3600 ****        97.7500 150.2500 125.7500 Du        
   3601 ****        97.7500 150.5000 122.0000 Du        
   3602 ****        97.7500 150.5000 122.2500 Du        
   3603 ****        97.7500 150.5000 122.5000 Du        
   3604 ****        97.7500 150.5000 122.7500 Du        
   3605 ****        97.7500 150.5000 123.0000 Du        
   3606 ****        97.7500 150.5000 123.2500 Du        
   3607 ****        97.7500 150.5000 123.5000 Du        
   3608 ****        97.7500 150.5000 123.7500 Du        
   3609 ****        97.7500 150.5000 124.0000 Du        
   3610 ****        97.7500 150.5000 124.2500 Du        
   3611 ****        97.7500 150.5000 124.5000 Du        
   3612 ****        97.7500 150.5000 124.7500 Du        
   3613 ****        97.7500 150.5000 125.0000 Du        
   3614 ****        97.7500 150.5000 125.2500 Du        
   3615 ****        97.7500 150.5000 125.5000 Du        
   3616 ****        97.7500 150.5000 125.7500 Du        
   3617 ****        97.7500 150.5000 126.0000 Du        
   3618 ****        97.7500 150.5000 126.2500 Du        
   3619 ****        97.7500 150.7500 122.2500 Du        
   3620 ****        97.7500 150.7500 122.5000 Du        
   3621 ****        97.7500 150.7500 122.7500 Du        
   3622 ****        97.7500 150.7500 123.0000 Du        
   3623 ****        97.7500 150.7500 123.2500 Du        
   3624 ****        97.7500 150.7500 123.5000 Du        
   3625 ****        97.7500 150.7500 123.7500 Du        
   3626 ****        97.7500 150.7500 124.0000 Du        
   3627 ****        97.7500 150.7500 124.5000 Du        
   3628 ****        97.7500 150.7500 124.7500 Du        
   3629 ****        97.7500 150.7500 125.0000 Du        
   3630 ****        97.7500 150.7500 125.2500 Du        
   3631 ****        97.7500 150.7500 125.5000 Du        
   3632 ****        97.7500 150.7500 125.7500 Du        
   3633 ****        97.7500 150.7500 126.0000 Du        
   3634 ****        97.7500 150.7500 126.2500 Du        
   3635 ****        97.7500 150.7500 126.5000 Du        
   3636 ****        97.7500 150.7500 126.7500 Du        
   3637 ****        97.7500 151.0000 125.0000 Du        
   3638 ****        97.7500 151.0000 125.2500 Du        
   3639 ****        97.7500 151.0000 125.5000 Du        
   3640 ****        97.7500 151.0000 125.7500 Du        
   3641 ****        97.7500 151.0000 126.0000 Du        
   3642 ****        97.7500 151.0000 126.2500 Du        
   3643 ****        97.7500 151.0000 126.5000 Du        
   3644 ****        97.7500 151.0000 126.7500 Du        
   3645 ****        97.7500 151.2500 125.5000 Du        
   3646 ****        97.7500 151.2500 125.7500 Du        
   3647 ****        97.7500 151.2500 126.0000 Du        
   3648 ****        97.7500 151.2500 126.2500 Du        
   3649 ****        97.7500 151.2500 126.5000 Du        
   3650 ****        97.7500 151.2500 126.7500 Du        
   3651 ****        97.7500 151.2500 127.0000 Du        
   3652 ****        97.7500 151.5000 125.7500 Du        
   3653 ****        97.7500 151.5000 126.0000 Du        
   3654 ****        97.7500 151.5000 126.2500 Du        
   3655 ****        97.7500 151.5000 126.5000 Du        
   3656 ****        97.7500 151.5000 126.7500 Du        
   3657 ****        97.7500 151.5000 127.0000 Du        
   3658 ****        97.7500 151.7500 126.0000 Du        
   3659 ****        97.7500 151.7500 126.2500 Du        
   3660 ****        97.7500 151.7500 126.5000 Du        
   3661 ****        97.7500 151.7500 126.7500 Du        
   3662 ****        97.7500 151.7500 127.0000 Du        
   3663 ****        97.7500 151.7500 127.2500 Du        
   3664 ****        97.7500 152.0000 126.0000 Du        
   3665 ****        97.7500 152.0000 126.2500 Du        
   3666 ****        97.7500 152.0000 126.5000 Du        
   3667 ****        97.7500 152.0000 126.7500 Du        
   3668 ****        97.7500 152.0000 127.0000 Du        
   3669 ****        97.7500 152.0000 127.2500 Du        
   3670 ****        97.7500 152.2500 126.2500 Du        
   3671 ****        97.7500 152.2500 126.5000 Du        
   3672 ****        97.7500 152.2500 126.7500 Du        
   3673 ****        97.7500 152.2500 127.0000 Du        
   3674 ****        97.7500 152.2500 127.2500 Du        
   3675 ****        97.7500 152.2500 127.5000 Du        
   3676 ****        97.7500 152.5000 126.2500 Du        
   3677 ****        97.7500 152.5000 126.5000 Du        
   3678 ****        97.7500 152.5000 126.7500 Du        
   3679 ****        97.7500 152.5000 127.0000 Du        
   3680 ****        97.7500 152.5000 127.2500 Du        
   3681 ****        97.7500 152.5000 127.5000 Du        
   3682 ****        97.7500 152.7500 126.2500 Du        
   3683 ****        97.7500 152.7500 126.5000 Du        
   3684 ****        97.7500 152.7500 126.7500 Du        
   3685 ****        97.7500 152.7500 127.0000 Du        
   3686 ****        97.7500 152.7500 127.2500 Du        
   3687 ****        97.7500 152.7500 127.5000 Du        
   3688 ****        97.7500 152.7500 127.7500 Du        
   3689 ****        97.7500 153.0000 126.5000 Du        
   3690 ****        97.7500 153.0000 126.7500 Du        
   3691 ****        97.7500 153.0000 127.0000 Du        
   3692 ****        97.7500 153.0000 127.2500 Du        
   3693 ****        97.7500 153.0000 127.5000 Du        
   3694 ****        97.7500 153.0000 127.7500 Du        
   3695 ****        97.7500 153.2500 126.5000 Du        
   3696 ****        97.7500 153.2500 126.7500 Du        
   3697 ****        97.7500 153.2500 127.0000 Du        
   3698 ****        97.7500 153.2500 127.2500 Du        
   3699 ****        97.7500 153.2500 127.5000 Du        
   3700 ****        97.7500 153.2500 127.7500 Du        
   3701 ****        97.7500 153.5000 126.5000 Du        
   3702 ****        97.7500 153.5000 126.7500 Du        
   3703 ****        97.7500 153.5000 127.0000 Du        
   3704 ****        97.7500 153.5000 127.2500 Du        
   3705 ****        97.7500 153.5000 127.5000 Du        
   3706 ****        97.7500 153.5000 127.7500 Du        
   3707 ****        97.7500 153.7500 126.5000 Du        
   3708 ****        97.7500 153.7500 126.7500 Du        
   3709 ****        97.7500 153.7500 127.0000 Du        
   3710 ****        97.7500 153.7500 127.2500 Du        
   3711 ****        97.7500 153.7500 127.5000 Du        
   3712 ****        97.7500 154.0000 126.2500 Du        
   3713 ****        97.7500 154.0000 126.5000 Du        
   3714 ****        97.7500 154.0000 126.7500 Du        
   3715 ****        97.7500 154.0000 127.0000 Du        
   3716 ****        97.7500 154.0000 127.2500 Du        
   3717 ****        97.7500 154.0000 127.5000 Du        
   3718 ****        97.7500 154.2500 126.2500 Du        
   3719 ****        97.7500 154.2500 126.5000 Du        
   3720 ****        97.7500 154.2500 126.7500 Du        
   3721 ****        97.7500 154.2500 127.0000 Du        
   3722 ****        97.7500 154.2500 127.2500 Du        
   3723 ****        97.7500 154.5000 126.2500 Du        
   3724 ****        97.7500 154.5000 126.5000 Du        
   3725 ****        97.7500 154.5000 126.7500 Du        
   3726 ****        97.7500 154.5000 127.0000 Du        
   3727 ****        97.7500 154.5000 127.2500 Du        
   3728 ****        97.7500 154.7500 126.0000 Du        
   3729 ****        97.7500 154.7500 126.2500 Du        
   3730 ****        97.7500 154.7500 126.5000 Du        
   3731 ****        97.7500 154.7500 126.7500 Du        
   3732 ****        97.7500 154.7500 127.0000 Du        
   3733 ****        97.7500 154.7500 127.2500 Du        
   3734 ****        97.7500 155.0000 126.0000 Du        
   3735 ****        97.7500 155.0000 126.2500 Du        
   3736 ****        97.7500 155.0000 126.5000 Du        
   3737 ****        97.7500 155.0000 126.7500 Du        
   3738 ****        97.7500 155.0000 127.0000 Du        
   3739 ****        97.7500 155.0000 127.2500 Du        
   3740 ****        97.7500 155.2500 125.7500 Du        
   3741 ****        97.7500 155.2500 126.0000 Du        
   3742 ****        97.7500 155.2500 126.2500 Du        
   3743 ****        97.7500 155.2500 126.5000 Du        
   3744 ****        97.7500 155.2500 126.7500 Du        
   3745 ****        97.7500 155.2500 127.0000 Du        
   3746 ****        97.7500 155.2500 127.2500 Du        
   3747 ****        97.7500 155.5000 125.7500 Du        
   3748 ****        97.7500 155.5000 126.0000 Du        
   3749 ****        97.7500 155.5000 126.2500 Du        
   3750 ****        97.7500 155.5000 126.5000 Du        
   3751 ****        97.7500 155.5000 126.7500 Du        
   3752 ****        97.7500 155.5000 127.0000 Du        
   3753 ****        97.7500 155.5000 127.2500 Du        
   3754 ****        97.7500 155.7500 126.0000 Du        
   3755 ****        97.7500 155.7500 126.2500 Du        
   3756 ****        97.7500 155.7500 126.5000 Du        
   3757 ****        97.7500 155.7500 126.7500 Du        
   3758 ****        97.7500 155.7500 127.0000 Du        
   3759 ****        97.7500 155.7500 127.2500 Du        
   3760 ****        97.7500 156.0000 126.5000 Du        
   3761 ****        97.7500 156.0000 126.7500 Du        
   3762 ****        97.7500 156.0000 127.0000 Du        
   3763 ****        98.0000 148.2500 122.5000 Du        
   3764 ****        98.0000 148.5000 122.2500 Du        
   3765 ****        98.0000 148.5000 122.5000 Du        
   3766 ****        98.0000 148.5000 122.7500 Du        
   3767 ****        98.0000 148.7500 122.2500 Du        
   3768 ****        98.0000 148.7500 122.5000 Du        
   3769 ****        98.0000 148.7500 122.7500 Du        
   3770 ****        98.0000 148.7500 123.0000 Du        
   3771 ****        98.0000 149.0000 122.0000 Du        
   3772 ****        98.0000 149.0000 122.2500 Du        
   3773 ****        98.0000 149.0000 122.5000 Du        
   3774 ****        98.0000 149.0000 122.7500 Du        
   3775 ****        98.0000 149.0000 123.0000 Du        
   3776 ****        98.0000 149.0000 123.2500 Du        
   3777 ****        98.0000 149.2500 122.0000 Du        
   3778 ****        98.0000 149.2500 122.2500 Du        
   3779 ****        98.0000 149.2500 122.5000 Du        
   3780 ****        98.0000 149.2500 122.7500 Du        
   3781 ****        98.0000 149.2500 123.0000 Du        
   3782 ****        98.0000 149.2500 123.2500 Du        
   3783 ****        98.0000 149.2500 123.5000 Du        
   3784 ****        98.0000 149.5000 122.0000 Du        
   3785 ****        98.0000 149.5000 122.2500 Du        
   3786 ****        98.0000 149.5000 122.5000 Du        
   3787 ****        98.0000 149.5000 122.7500 Du        
   3788 ****        98.0000 149.5000 123.0000 Du        
   3789 ****        98.0000 149.5000 123.2500 Du        
   3790 ****        98.0000 149.5000 123.5000 Du        
   3791 ****        98.0000 149.5000 123.7500 Du        
   3792 ****        98.0000 149.7500 122.0000 Du        
   3793 ****        98.0000 149.7500 122.2500 Du        
   3794 ****        98.0000 149.7500 122.5000 Du        
   3795 ****        98.0000 149.7500 122.7500 Du        
   3796 ****        98.0000 149.7500 123.0000 Du        
   3797 ****        98.0000 149.7500 123.2500 Du        
   3798 ****        98.0000 149.7500 123.5000 Du        
   3799 ****        98.0000 149.7500 123.7500 Du        
   3800 ****        98.0000 149.7500 124.0000 Du        
   3801 ****        98.0000 149.7500 124.2500 Du        
   3802 ****        98.0000 150.0000 122.0000 Du        
   3803 ****        98.0000 150.0000 122.2500 Du        
   3804 ****        98.0000 150.0000 122.5000 Du        
   3805 ****        98.0000 150.0000 122.7500 Du        
   3806 ****        98.0000 150.0000 123.0000 Du        
   3807 ****        98.0000 150.0000 123.2500 Du        
   3808 ****        98.0000 150.0000 123.5000 Du        
   3809 ****        98.0000 150.0000 123.7500 Du        
   3810 ****        98.0000 150.0000 124.0000 Du        
   3811 ****        98.0000 150.0000 124.2500 Du        
   3812 ****        98.0000 150.0000 124.5000 Du        
   3813 ****        98.0000 150.2500 122.0000 Du        
   3814 ****        98.0000 150.2500 122.2500 Du        
   3815 ****        98.0000 150.2500 122.5000 Du        
   3816 ****        98.0000 150.2500 122.7500 Du        
   3817 ****        98.0000 150.2500 123.0000 Du        
   3818 ****        98.0000 150.2500 123.2500 Du        
   3819 ****        98.0000 150.2500 123.5000 Du        
   3820 ****        98.0000 150.2500 123.7500 Du        
   3821 ****        98.0000 150.2500 124.0000 Du        
   3822 ****        98.0000 150.2500 124.2500 Du        
   3823 ****        98.0000 150.2500 124.5000 Du        
   3824 ****        98.0000 150.2500 124.7500 Du        
   3825 ****        98.0000 150.2500 125.0000 Du        
   3826 ****        98.0000 150.2500 125.2500 Du        
   3827 ****        98.0000 150.5000 122.2500 Du        
   3828 ****        98.0000 150.5000 122.5000 Du        
   3829 ****        98.0000 150.5000 122.7500 Du        
   3830 ****        98.0000 150.5000 123.0000 Du        
   3831 ****        98.0000 150.5000 123.2500 Du        
   3832 ****        98.0000 150.5000 123.5000 Du        
   3833 ****        98.0000 150.5000 123.7500 Du        
   3834 ****        98.0000 150.5000 124.0000 Du        
   3835 ****        98.0000 150.5000 124.2500 Du        
   3836 ****        98.0000 150.5000 124.5000 Du        
   3837 ****        98.0000 150.5000 124.7500 Du        
   3838 ****        98.0000 150.5000 125.0000 Du        
   3839 ****        98.0000 150.5000 125.2500 Du        
   3840 ****        98.0000 150.5000 125.5000 Du        
   3841 ****        98.0000 150.5000 125.7500 Du        
   3842 ****        98.0000 150.7500 122.2500 Du        
   3843 ****        98.0000 150.7500 122.5000 Du        
   3844 ****        98.0000 150.7500 122.7500 Du        
   3845 ****        98.0000 150.7500 123.0000 Du        
   3846 ****        98.0000 150.7500 123.2500 Du        
   3847 ****        98.0000 150.7500 123.5000 Du        
   3848 ****        98.0000 150.7500 123.7500 Du        
   3849 ****        98.0000 150.7500 124.0000 Du        
   3850 ****        98.0000 150.7500 124.2500 Du        
   3851 ****        98.0000 150.7500 124.5000 Du        
   3852 ****        98.0000 150.7500 124.7500 Du        
   3853 ****        98.0000 150.7500 125.0000 Du        
   3854 ****        98.0000 150.7500 125.2500 Du        
   3855 ****        98.0000 150.7500 125.5000 Du        
   3856 ****        98.0000 150.7500 125.7500 Du        
   3857 ****        98.0000 150.7500 126.0000 Du        
   3858 ****        98.0000 150.7500 126.2500 Du        
   3859 ****        98.0000 150.7500 126.5000 Du        
   3860 ****        98.0000 151.0000 125.0000 Du        
   3861 ****        98.0000 151.0000 125.2500 Du        
   3862 ****        98.0000 151.0000 125.5000 Du        
   3863 ****        98.0000 151.0000 125.7500 Du        
   3864 ****        98.0000 151.0000 126.0000 Du        
   3865 ****        98.0000 151.0000 126.2500 Du        
   3866 ****        98.0000 151.0000 126.5000 Du        
   3867 ****        98.0000 151.0000 126.7500 Du        
   3868 ****        98.0000 151.0000 127.0000 Du        
   3869 ****        98.0000 151.2500 125.5000 Du        
   3870 ****        98.0000 151.2500 125.7500 Du        
   3871 ****        98.0000 151.2500 126.0000 Du        
   3872 ****        98.0000 151.2500 126.2500 Du        
   3873 ****        98.0000 151.2500 126.5000 Du        
   3874 ****        98.0000 151.2500 126.7500 Du        
   3875 ****        98.0000 151.2500 127.0000 Du        
   3876 ****        98.0000 151.2500 127.2500 Du        
   3877 ****        98.0000 151.5000 125.7500 Du        
   3878 ****        98.0000 151.5000 126.0000 Du        
   3879 ****        98.0000 151.5000 126.2500 Du        
   3880 ****        98.0000 151.5000 126.5000 Du        
   3881 ****        98.0000 151.5000 126.7500 Du        
   3882 ****        98.0000 151.5000 127.0000 Du        
   3883 ****        98.0000 151.5000 127.2500 Du        
   3884 ****        98.0000 151.7500 126.0000 Du        
   3885 ****        98.0000 151.7500 126.2500 Du        
   3886 ****        98.0000 151.7500 126.5000 Du        
   3887 ****        98.0000 151.7500 126.7500 Du        
   3888 ****        98.0000 151.7500 127.0000 Du        
   3889 ****        98.0000 151.7500 127.2500 Du        
   3890 ****        98.0000 151.7500 127.5000 Du        
   3891 ****        98.0000 152.0000 126.0000 Du        
   3892 ****        98.0000 152.0000 126.2500 Du        
   3893 ****        98.0000 152.0000 126.5000 Du        
   3894 ****        98.0000 152.0000 126.7500 Du        
   3895 ****        98.0000 152.0000 127.0000 Du        
   3896 ****        98.0000 152.0000 127.2500 Du        
   3897 ****        98.0000 152.0000 127.5000 Du        
   3898 ****        98.0000 152.2500 126.2500 Du        
   3899 ****        98.0000 152.2500 126.5000 Du        
   3900 ****        98.0000 152.2500 126.7500 Du        
   3901 ****        98.0000 152.2500 127.0000 Du        
   3902 ****        98.0000 152.2500 127.2500 Du        
   3903 ****        98.0000 152.2500 127.5000 Du        
   3904 ****        98.0000 152.5000 126.5000 Du        
   3905 ****        98.0000 152.5000 126.7500 Du        
   3906 ****        98.0000 152.5000 127.0000 Du        
   3907 ****        98.0000 152.5000 127.2500 Du        
   3908 ****        98.0000 152.5000 127.5000 Du        
   3909 ****        98.0000 152.5000 127.7500 Du        
   3910 ****        98.0000 152.7500 126.5000 Du        
   3911 ****        98.0000 152.7500 126.7500 Du        
   3912 ****        98.0000 152.7500 127.0000 Du        
   3913 ****        98.0000 152.7500 127.2500 Du        
   3914 ****        98.0000 152.7500 127.5000 Du        
   3915 ****        98.0000 152.7500 127.7500 Du        
   3916 ****        98.0000 153.0000 126.5000 Du        
   3917 ****        98.0000 153.0000 126.7500 Du        
   3918 ****        98.0000 153.0000 127.0000 Du        
   3919 ****        98.0000 153.0000 127.2500 Du        
   3920 ****        98.0000 153.0000 127.5000 Du        
   3921 ****        98.0000 153.0000 127.7500 Du        
   3922 ****        98.0000 153.0000 128.0000 Du        
   3923 ****        98.0000 153.2500 126.5000 Du        
   3924 ****        98.0000 153.2500 126.7500 Du        
   3925 ****        98.0000 153.2500 127.0000 Du        
   3926 ****        98.0000 153.2500 127.2500 Du        
   3927 ****        98.0000 153.2500 127.5000 Du        
   3928 ****        98.0000 153.2500 127.7500 Du        
   3929 ****        98.0000 153.2500 128.0000 Du        
   3930 ****        98.0000 153.5000 126.5000 Du        
   3931 ****        98.0000 153.5000 126.7500 Du        
   3932 ****        98.0000 153.5000 127.0000 Du        
   3933 ****        98.0000 153.5000 127.2500 Du        
   3934 ****        98.0000 153.5000 127.5000 Du        
   3935 ****        98.0000 153.5000 127.7500 Du        
   3936 ****        98.0000 153.5000 128.0000 Du        
   3937 ****        98.0000 153.7500 126.5000 Du        
   3938 ****        98.0000 153.7500 126.7500 Du        
   3939 ****        98.0000 153.7500 127.0000 Du        
   3940 ****        98.0000 153.7500 127.2500 Du        
   3941 ****        98.0000 153.7500 127.5000 Du        
   3942 ****        98.0000 153.7500 127.7500 Du        
   3943 ****        98.0000 153.7500 128.0000 Du        
   3944 ****        98.0000 154.0000 126.5000 Du        
   3945 ****        98.0000 154.0000 126.7500 Du        
   3946 ****        98.0000 154.0000 127.0000 Du        
   3947 ****        98.0000 154.0000 127.2500 Du        
   3948 ****        98.0000 154.0000 127.5000 Du        
   3949 ****        98.0000 154.0000 127.7500 Du        
   3950 ****        98.0000 154.2500 126.2500 Du        
   3951 ****        98.0000 154.2500 126.5000 Du        
   3952 ****        98.0000 154.2500 126.7500 Du        
   3953 ****        98.0000 154.2500 127.0000 Du        
   3954 ****        98.0000 154.2500 127.2500 Du        
   3955 ****        98.0000 154.2500 127.5000 Du        
   3956 ****        98.0000 154.2500 127.7500 Du        
   3957 ****        98.0000 154.5000 126.2500 Du        
   3958 ****        98.0000 154.5000 126.5000 Du        
   3959 ****        98.0000 154.5000 126.7500 Du        
   3960 ****        98.0000 154.5000 127.0000 Du        
   3961 ****        98.0000 154.5000 127.2500 Du        
   3962 ****        98.0000 154.5000 127.5000 Du        
   3963 ****        98.0000 154.7500 126.0000 Du        
   3964 ****        98.0000 154.7500 126.2500 Du        
   3965 ****        98.0000 154.7500 126.5000 Du        
   3966 ****        98.0000 154.7500 126.7500 Du        
   3967 ****        98.0000 154.7500 127.0000 Du        
   3968 ****        98.0000 154.7500 127.2500 Du        
   3969 ****        98.0000 154.7500 127.5000 Du        
   3970 ****        98.0000 155.0000 126.0000 Du        
   3971 ****        98.0000 155.0000 126.2500 Du        
   3972 ****        98.0000 155.0000 126.5000 Du        
   3973 ****        98.0000 155.0000 126.7500 Du        
   3974 ****        98.0000 155.0000 127.0000 Du        
   3975 ****        98.0000 155.0000 127.2500 Du        
   3976 ****        98.0000 155.0000 127.5000 Du        
   3977 ****        98.0000 155.2500 125.7500 Du        
   3978 ****        98.0000 155.2500 126.0000 Du        
   3979 ****        98.0000 155.2500 126.2500 Du        
   3980 ****        98.0000 155.2500 126.5000 Du        
   3981 ****        98.0000 155.2500 126.7500 Du        
   3982 ****        98.0000 155.2500 127.0000 Du        
   3983 ****        98.0000 155.2500 127.2500 Du        
   3984 ****        98.0000 155.2500 127.5000 Du        
   3985 ****        98.0000 155.5000 125.7500 Du        
   3986 ****        98.0000 155.5000 126.0000 Du        
   3987 ****        98.0000 155.5000 126.2500 Du        
   3988 ****        98.0000 155.5000 126.5000 Du        
   3989 ****        98.0000 155.5000 126.7500 Du        
   3990 ****        98.0000 155.5000 127.0000 Du        
   3991 ****        98.0000 155.5000 127.2500 Du        
   3992 ****        98.0000 155.5000 127.5000 Du        
   3993 ****        98.0000 155.7500 125.7500 Du        
   3994 ****        98.0000 155.7500 126.0000 Du        
   3995 ****        98.0000 155.7500 126.2500 Du        
   3996 ****        98.0000 155.7500 126.5000 Du        
   3997 ****        98.0000 155.7500 126.7500 Du        
   3998 ****        98.0000 155.7500 127.0000 Du        
   3999 ****        98.0000 155.7500 127.2500 Du        
   4000 ****        98.0000 155.7500 127.5000 Du        
   4001 ****        98.0000 156.0000 126.0000 Du        
   4002 ****        98.0000 156.0000 126.2500 Du        
   4003 ****        98.0000 156.0000 126.5000 Du        
   4004 ****        98.0000 156.0000 126.7500 Du        
   4005 ****        98.0000 156.0000 127.0000 Du        
   4006 ****        98.0000 156.0000 127.2500 Du        
   4007 ****        98.2500 148.7500 122.2500 Du        
   4008 ****        98.2500 148.7500 122.5000 Du        
   4009 ****        98.2500 148.7500 122.7500 Du        
   4010 ****        98.2500 149.0000 122.2500 Du        
   4011 ****        98.2500 149.0000 122.5000 Du        
   4012 ****        98.2500 149.0000 122.7500 Du        
   4013 ****        98.2500 149.0000 123.0000 Du        
   4014 ****        98.2500 149.2500 122.2500 Du        
   4015 ****        98.2500 149.2500 122.5000 Du        
   4016 ****        98.2500 149.2500 122.7500 Du        
   4017 ****        98.2500 149.2500 123.0000 Du        
   4018 ****        98.2500 149.2500 123.2500 Du        
   4019 ****        98.2500 149.5000 122.2500 Du        
   4020 ****        98.2500 149.5000 122.5000 Du        
   4021 ****        98.2500 149.5000 122.7500 Du        
   4022 ****        98.2500 149.5000 123.0000 Du        
   4023 ****        98.2500 149.5000 123.2500 Du        
   4024 ****        98.2500 149.5000 123.5000 Du        
   4025 ****        98.2500 149.7500 122.2500 Du        
   4026 ****        98.2500 149.7500 122.5000 Du        
   4027 ****        98.2500 149.7500 122.7500 Du        
   4028 ****        98.2500 149.7500 123.0000 Du        
   4029 ****        98.2500 149.7500 123.2500 Du        
   4030 ****        98.2500 149.7500 123.5000 Du        
   4031 ****        98.2500 149.7500 123.7500 Du        
   4032 ****        98.2500 149.7500 124.0000 Du        
   4033 ****        98.2500 150.0000 122.2500 Du        
   4034 ****        98.2500 150.0000 122.5000 Du        
   4035 ****        98.2500 150.0000 122.7500 Du        
   4036 ****        98.2500 150.0000 123.0000 Du        
   4037 ****        98.2500 150.0000 123.2500 Du        
   4038 ****        98.2500 150.0000 123.5000 Du        
   4039 ****        98.2500 150.0000 123.7500 Du        
   4040 ****        98.2500 150.0000 124.0000 Du        
   4041 ****        98.2500 150.0000 124.2500 Du        
   4042 ****        98.2500 150.0000 124.5000 Du        
   4043 ****        98.2500 150.2500 122.2500 Du        
   4044 ****        98.2500 150.2500 122.5000 Du        
   4045 ****        98.2500 150.2500 122.7500 Du        
   4046 ****        98.2500 150.2500 123.0000 Du        
   4047 ****        98.2500 150.2500 123.2500 Du        
   4048 ****        98.2500 150.2500 123.5000 Du        
   4049 ****        98.2500 150.2500 123.7500 Du        
   4050 ****        98.2500 150.2500 124.0000 Du        
   4051 ****        98.2500 150.2500 124.2500 Du        
   4052 ****        98.2500 150.2500 124.5000 Du        
   4053 ****        98.2500 150.2500 124.7500 Du        
   4054 ****        98.2500 150.2500 125.0000 Du        
   4055 ****        98.2500 150.5000 122.2500 Du        
   4056 ****        98.2500 150.5000 122.5000 Du        
   4057 ****        98.2500 150.5000 122.7500 Du        
   4058 ****        98.2500 150.5000 123.0000 Du        
   4059 ****        98.2500 150.5000 123.2500 Du        
   4060 ****        98.2500 150.5000 123.5000 Du        
   4061 ****        98.2500 150.5000 123.7500 Du        
   4062 ****        98.2500 150.5000 124.0000 Du        
   4063 ****        98.2500 150.5000 124.2500 Du        
   4064 ****        98.2500 150.5000 124.5000 Du        
   4065 ****        98.2500 150.5000 124.7500 Du        
   4066 ****        98.2500 150.5000 125.0000 Du        
   4067 ****        98.2500 150.5000 125.2500 Du        
   4068 ****        98.2500 150.5000 125.5000 Du        
   4069 ****        98.2500 150.7500 122.5000 Du        
   4070 ****        98.2500 150.7500 122.7500 Du        
   4071 ****        98.2500 150.7500 123.0000 Du        
   4072 ****        98.2500 150.7500 123.2500 Du        
   4073 ****        98.2500 150.7500 123.5000 Du        
   4074 ****        98.2500 150.7500 123.7500 Du        
   4075 ****        98.2500 150.7500 124.0000 Du        
   4076 ****        98.2500 150.7500 124.2500 Du        
   4077 ****        98.2500 150.7500 124.5000 Du        
   4078 ****        98.2500 150.7500 124.7500 Du        
   4079 ****        98.2500 150.7500 125.0000 Du        
   4080 ****        98.2500 150.7500 125.2500 Du        
   4081 ****        98.2500 150.7500 125.5000 Du        
   4082 ****        98.2500 150.7500 125.7500 Du        
   4083 ****        98.2500 150.7500 126.0000 Du        
   4084 ****        98.2500 150.7500 126.2500 Du        
   4085 ****        98.2500 151.0000 125.0000 Du        
   4086 ****        98.2500 151.0000 125.2500 Du        
   4087 ****        98.2500 151.0000 125.5000 Du        
   4088 ****        98.2500 151.0000 125.7500 Du        
   4089 ****        98.2500 151.0000 126.0000 Du        
   4090 ****        98.2500 151.0000 126.2500 Du        
   4091 ****        98.2500 151.0000 126.5000 Du        
   4092 ****        98.2500 151.0000 126.7500 Du        
   4093 ****        98.2500 151.0000 127.0000 Du        
   4094 ****        98.2500 151.2500 125.5000 Du        
   4095 ****        98.2500 151.2500 125.7500 Du        
   4096 ****        98.2500 151.2500 126.0000 Du        
   4097 ****        98.2500 151.2500 126.2500 Du        
   4098 ****        98.2500 151.2500 126.5000 Du        
   4099 ****        98.2500 151.2500 126.7500 Du        
   4100 ****        98.2500 151.2500 127.0000 Du        
   4101 ****        98.2500 151.2500 127.2500 Du        
   4102 ****        98.2500 151.2500 127.5000 Du        
   4103 ****        98.2500 151.5000 125.7500 Du        
   4104 ****        98.2500 151.5000 126.0000 Du        
   4105 ****        98.2500 151.5000 126.2500 Du        
   4106 ****        98.2500 151.5000 126.5000 Du        
   4107 ****        98.2500 151.5000 126.7500 Du        
   4108 ****        98.2500 151.5000 127.0000 Du        
   4109 ****        98.2500 151.5000 127.2500 Du        
   4110 ****        98.2500 151.5000 127.5000 Du        
   4111 ****        98.2500 151.7500 126.0000 Du        
   4112 ****        98.2500 151.7500 126.2500 Du        
   4113 ****        98.2500 151.7500 126.5000 Du        
   4114 ****        98.2500 151.7500 126.7500 Du        
   4115 ****        98.2500 151.7500 127.0000 Du        
   4116 ****        98.2500 151.7500 127.2500 Du        
   4117 ****        98.2500 151.7500 127.5000 Du        
   4118 ****        98.2500 151.7500 127.7500 Du        
   4119 ****        98.2500 152.0000 126.0000 Du        
   4120 ****        98.2500 152.0000 126.2500 Du        
   4121 ****        98.2500 152.0000 126.5000 Du        
   4122 ****        98.2500 152.0000 126.7500 Du        
   4123 ****        98.2500 152.0000 127.0000 Du        
   4124 ****        98.2500 152.0000 127.2500 Du        
   4125 ****        98.2500 152.0000 127.5000 Du        
   4126 ****        98.2500 152.0000 127.7500 Du        
   4127 ****        98.2500 152.2500 126.2500 Du        
   4128 ****        98.2500 152.2500 126.5000 Du        
   4129 ****        98.2500 152.2500 126.7500 Du        
   4130 ****        98.2500 152.2500 127.0000 Du        
   4131 ****        98.2500 152.2500 127.2500 Du        
   4132 ****        98.2500 152.2500 127.5000 Du        
   4133 ****        98.2500 152.2500 127.7500 Du        
   4134 ****        98.2500 152.5000 126.5000 Du        
   4135 ****        98.2500 152.5000 126.7500 Du        
   4136 ****        98.2500 152.5000 127.0000 Du        
   4137 ****        98.2500 152.5000 127.2500 Du        
   4138 ****        98.2500 152.5000 127.5000 Du        
   4139 ****        98.2500 152.5000 127.7500 Du        
   4140 ****        98.2500 152.7500 126.5000 Du        
   4141 ****        98.2500 152.7500 126.7500 Du        
   4142 ****        98.2500 152.7500 127.0000 Du        
   4143 ****        98.2500 152.7500 127.2500 Du        
   4144 ****        98.2500 152.7500 127.5000 Du        
   4145 ****        98.2500 152.7500 127.7500 Du        
   4146 ****        98.2500 152.7500 128.0000 Du        
   4147 ****        98.2500 153.0000 126.5000 Du        
   4148 ****        98.2500 153.0000 126.7500 Du        
   4149 ****        98.2500 153.0000 127.0000 Du        
   4150 ****        98.2500 153.0000 127.2500 Du        
   4151 ****        98.2500 153.0000 127.5000 Du        
   4152 ****        98.2500 153.0000 127.7500 Du        
   4153 ****        98.2500 153.0000 128.0000 Du        
   4154 ****        98.2500 153.2500 126.5000 Du        
   4155 ****        98.2500 153.2500 126.7500 Du        
   4156 ****        98.2500 153.2500 127.0000 Du        
   4157 ****        98.2500 153.2500 127.2500 Du        
   4158 ****        98.2500 153.2500 127.5000 Du        
   4159 ****        98.2500 153.2500 127.7500 Du        
   4160 ****        98.2500 153.2500 128.0000 Du        
   4161 ****        98.2500 153.2500 128.2500 Du        
   4162 ****        98.2500 153.5000 126.5000 Du        
   4163 ****        98.2500 153.5000 126.7500 Du        
   4164 ****        98.2500 153.5000 127.0000 Du        
   4165 ****        98.2500 153.5000 127.2500 Du        
   4166 ****        98.2500 153.5000 127.5000 Du        
   4167 ****        98.2500 153.5000 127.7500 Du        
   4168 ****        98.2500 153.5000 128.0000 Du        
   4169 ****        98.2500 153.5000 128.2500 Du        
   4170 ****        98.2500 153.7500 126.5000 Du        
   4171 ****        98.2500 153.7500 126.7500 Du        
   4172 ****        98.2500 153.7500 127.0000 Du        
   4173 ****        98.2500 153.7500 127.2500 Du        
   4174 ****        98.2500 153.7500 127.5000 Du        
   4175 ****        98.2500 153.7500 127.7500 Du        
   4176 ****        98.2500 153.7500 128.0000 Du        
   4177 ****        98.2500 153.7500 128.2500 Du        
   4178 ****        98.2500 154.0000 126.5000 Du        
   4179 ****        98.2500 154.0000 126.7500 Du        
   4180 ****        98.2500 154.0000 127.0000 Du        
   4181 ****        98.2500 154.0000 127.2500 Du        
   4182 ****        98.2500 154.0000 127.5000 Du        
   4183 ****        98.2500 154.0000 127.7500 Du        
   4184 ****        98.2500 154.0000 128.0000 Du        
   4185 ****        98.2500 154.2500 126.5000 Du        
   4186 ****        98.2500 154.2500 126.7500 Du        
   4187 ****        98.2500 154.2500 127.0000 Du        
   4188 ****        98.2500 154.2500 127.2500 Du        
   4189 ****        98.2500 154.2500 127.5000 Du        
   4190 ****        98.2500 154.2500 127.7500 Du        
   4191 ****        98.2500 154.2500 128.0000 Du        
   4192 ****        98.2500 154.5000 126.2500 Du        
   4193 ****        98.2500 154.5000 126.5000 Du        
   4194 ****        98.2500 154.5000 126.7500 Du        
   4195 ****        98.2500 154.5000 127.0000 Du        
   4196 ****        98.2500 154.5000 127.2500 Du        
   4197 ****        98.2500 154.5000 127.5000 Du        
   4198 ****        98.2500 154.5000 127.7500 Du        
   4199 ****        98.2500 154.7500 126.2500 Du        
   4200 ****        98.2500 154.7500 126.5000 Du        
   4201 ****        98.2500 154.7500 126.7500 Du        
   4202 ****        98.2500 154.7500 127.0000 Du        
   4203 ****        98.2500 154.7500 127.2500 Du        
   4204 ****        98.2500 154.7500 127.5000 Du        
   4205 ****        98.2500 154.7500 127.7500 Du        
   4206 ****        98.2500 155.0000 126.0000 Du        
   4207 ****        98.2500 155.0000 126.2500 Du        
   4208 ****        98.2500 155.0000 126.5000 Du        
   4209 ****        98.2500 155.0000 126.7500 Du        
   4210 ****        98.2500 155.0000 127.0000 Du        
   4211 ****        98.2500 155.0000 127.2500 Du        
   4212 ****        98.2500 155.0000 127.5000 Du        
   4213 ****        98.2500 155.0000 127.7500 Du        
   4214 ****        98.2500 155.2500 126.0000 Du        
   4215 ****        98.2500 155.2500 126.2500 Du        
   4216 ****        98.2500 155.2500 126.5000 Du        
   4217 ****        98.2500 155.2500 126.7500 Du        
   4218 ****        98.2500 155.2500 127.0000 Du        
   4219 ****        98.2500 155.2500 127.2500 Du        
   4220 ****        98.2500 155.2500 127.5000 Du        
   4221 ****        98.2500 155.2500 127.7500 Du        
   4222 ****        98.2500 155.5000 125.7500 Du        
   4223 ****        98.2500 155.5000 126.0000 Du        
   4224 ****        98.2500 155.5000 126.2500 Du        
   4225 ****        98.2500 155.5000 126.5000 Du        
   4226 ****        98.2500 155.5000 126.7500 Du        
   4227 ****        98.2500 155.5000 127.0000 Du        
   4228 ****        98.2500 155.5000 127.2500 Du        
   4229 ****        98.2500 155.5000 127.5000 Du        
   4230 ****        98.2500 155.5000 127.7500 Du        
   4231 ****        98.2500 155.7500 125.5000 Du        
   4232 ****        98.2500 155.7500 125.7500 Du        
   4233 ****        98.2500 155.7500 126.0000 Du        
   4234 ****        98.2500 155.7500 126.2500 Du        
   4235 ****        98.2500 155.7500 126.5000 Du        
   4236 ****        98.2500 155.7500 126.7500 Du        
   4237 ****        98.2500 155.7500 127.0000 Du        
   4238 ****        98.2500 155.7500 127.2500 Du        
   4239 ****        98.2500 155.7500 127.5000 Du        
   4240 ****        98.2500 156.0000 125.5000 Du        
   4241 ****        98.2500 156.0000 125.7500 Du        
   4242 ****        98.2500 156.0000 126.0000 Du        
   4243 ****        98.2500 156.0000 126.2500 Du        
   4244 ****        98.2500 156.0000 126.5000 Du        
   4245 ****        98.2500 156.0000 126.7500 Du        
   4246 ****        98.2500 156.0000 127.0000 Du        
   4247 ****        98.2500 156.0000 127.2500 Du        
   4248 ****        98.2500 156.0000 127.5000 Du        
   4249 ****        98.2500 156.2500 126.0000 Du        
   4250 ****        98.2500 156.2500 126.2500 Du        
   4251 ****        98.2500 156.2500 126.5000 Du        
   4252 ****        98.2500 156.2500 126.7500 Du        
   4253 ****        98.2500 156.2500 127.0000 Du        
   4254 ****        98.2500 156.2500 127.2500 Du        
   4255 ****        98.5000 148.7500 122.5000 Du        
   4256 ****        98.5000 149.0000 122.5000 Du        
   4257 ****        98.5000 149.0000 122.7500 Du        
   4258 ****        98.5000 149.0000 123.0000 Du        
   4259 ****        98.5000 149.2500 122.5000 Du        
   4260 ****        98.5000 149.2500 122.7500 Du        
   4261 ****        98.5000 149.2500 123.0000 Du        
   4262 ****        98.5000 149.2500 123.2500 Du        
   4263 ****        98.5000 149.5000 122.5000 Du        
   4264 ****        98.5000 149.5000 122.7500 Du        
   4265 ****        98.5000 149.5000 123.0000 Du        
   4266 ****        98.5000 149.5000 123.2500 Du        
   4267 ****        98.5000 149.5000 123.5000 Du        
   4268 ****        98.5000 149.7500 122.5000 Du        
   4269 ****        98.5000 149.7500 122.7500 Du        
   4270 ****        98.5000 149.7500 123.0000 Du        
   4271 ****        98.5000 149.7500 123.2500 Du        
   4272 ****        98.5000 149.7500 123.5000 Du        
   4273 ****        98.5000 149.7500 123.7500 Du        
   4274 ****        98.5000 149.7500 124.0000 Du        
   4275 ****        98.5000 150.0000 122.2500 Du        
   4276 ****        98.5000 150.0000 122.5000 Du        
   4277 ****        98.5000 150.0000 122.7500 Du        
   4278 ****        98.5000 150.0000 123.0000 Du        
   4279 ****        98.5000 150.0000 123.2500 Du        
   4280 ****        98.5000 150.0000 123.5000 Du        
   4281 ****        98.5000 150.0000 123.7500 Du        
   4282 ****        98.5000 150.0000 124.0000 Du        
   4283 ****        98.5000 150.0000 124.2500 Du        
   4284 ****        98.5000 150.2500 122.2500 Du        
   4285 ****        98.5000 150.2500 122.5000 Du        
   4286 ****        98.5000 150.2500 122.7500 Du        
   4287 ****        98.5000 150.2500 123.0000 Du        
   4288 ****        98.5000 150.2500 123.2500 Du        
   4289 ****        98.5000 150.2500 123.5000 Du        
   4290 ****        98.5000 150.2500 123.7500 Du        
   4291 ****        98.5000 150.2500 124.0000 Du        
   4292 ****        98.5000 150.2500 124.2500 Du        
   4293 ****        98.5000 150.2500 124.5000 Du        
   4294 ****        98.5000 150.2500 124.7500 Du        
   4295 ****        98.5000 150.2500 125.0000 Du        
   4296 ****        98.5000 150.5000 122.5000 Du        
   4297 ****        98.5000 150.5000 122.7500 Du        
   4298 ****        98.5000 150.5000 123.0000 Du        
   4299 ****        98.5000 150.5000 123.2500 Du        
   4300 ****        98.5000 150.5000 123.5000 Du        
   4301 ****        98.5000 150.5000 123.7500 Du        
   4302 ****        98.5000 150.5000 124.0000 Du        
   4303 ****        98.5000 150.5000 124.2500 Du        
   4304 ****        98.5000 150.5000 124.5000 Du        
   4305 ****        98.5000 150.5000 124.7500 Du        
   4306 ****        98.5000 150.5000 125.0000 Du        
   4307 ****        98.5000 150.5000 125.2500 Du        
   4308 ****        98.5000 150.5000 125.5000 Du        
   4309 ****        98.5000 150.7500 122.5000 Du        
   4310 ****        98.5000 150.7500 122.7500 Du        
   4311 ****        98.5000 150.7500 123.0000 Du        
   4312 ****        98.5000 150.7500 123.2500 Du        
   4313 ****        98.5000 150.7500 123.5000 Du        
   4314 ****        98.5000 150.7500 123.7500 Du        
   4315 ****        98.5000 150.7500 124.0000 Du        
   4316 ****        98.5000 150.7500 124.2500 Du        
   4317 ****        98.5000 150.7500 124.5000 Du        
   4318 ****        98.5000 150.7500 124.7500 Du        
   4319 ****        98.5000 150.7500 125.0000 Du        
   4320 ****        98.5000 150.7500 125.2500 Du        
   4321 ****        98.5000 150.7500 125.5000 Du        
   4322 ****        98.5000 150.7500 125.7500 Du        
   4323 ****        98.5000 150.7500 126.0000 Du        
   4324 ****        98.5000 151.0000 124.7500 Du        
   4325 ****        98.5000 151.0000 125.0000 Du        
   4326 ****        98.5000 151.0000 125.2500 Du        
   4327 ****        98.5000 151.0000 125.5000 Du        
   4328 ****        98.5000 151.0000 125.7500 Du        
   4329 ****        98.5000 151.0000 126.0000 Du        
   4330 ****        98.5000 151.0000 126.2500 Du        
   4331 ****        98.5000 151.0000 126.5000 Du        
   4332 ****        98.5000 151.0000 126.7500 Du        
   4333 ****        98.5000 151.0000 127.0000 Du        
   4334 ****        98.5000 151.2500 125.5000 Du        
   4335 ****        98.5000 151.2500 125.7500 Du        
   4336 ****        98.5000 151.2500 126.0000 Du        
   4337 ****        98.5000 151.2500 126.2500 Du        
   4338 ****        98.5000 151.2500 126.5000 Du        
   4339 ****        98.5000 151.2500 126.7500 Du        
   4340 ****        98.5000 151.2500 127.0000 Du        
   4341 ****        98.5000 151.2500 127.2500 Du        
   4342 ****        98.5000 151.2500 127.5000 Du        
   4343 ****        98.5000 151.2500 127.7500 Du        
   4344 ****        98.5000 151.5000 125.7500 Du        
   4345 ****        98.5000 151.5000 126.0000 Du        
   4346 ****        98.5000 151.5000 126.2500 Du        
   4347 ****        98.5000 151.5000 126.5000 Du        
   4348 ****        98.5000 151.5000 126.7500 Du        
   4349 ****        98.5000 151.5000 127.0000 Du        
   4350 ****        98.5000 151.5000 127.2500 Du        
   4351 ****        98.5000 151.5000 127.5000 Du        
   4352 ****        98.5000 151.5000 127.7500 Du        
   4353 ****        98.5000 151.7500 126.0000 Du        
   4354 ****        98.5000 151.7500 126.2500 Du        
   4355 ****        98.5000 151.7500 126.5000 Du        
   4356 ****        98.5000 151.7500 126.7500 Du        
   4357 ****        98.5000 151.7500 127.0000 Du        
   4358 ****        98.5000 151.7500 127.2500 Du        
   4359 ****        98.5000 151.7500 127.5000 Du        
   4360 ****        98.5000 151.7500 127.7500 Du        
   4361 ****        98.5000 152.0000 126.0000 Du        
   4362 ****        98.5000 152.0000 126.2500 Du        
   4363 ****        98.5000 152.0000 126.5000 Du        
   4364 ****        98.5000 152.0000 126.7500 Du        
   4365 ****        98.5000 152.0000 127.0000 Du        
   4366 ****        98.5000 152.0000 127.2500 Du        
   4367 ****        98.5000 152.0000 127.5000 Du        
   4368 ****        98.5000 152.0000 127.7500 Du        
   4369 ****        98.5000 152.0000 128.0000 Du        
   4370 ****        98.5000 152.2500 126.2500 Du        
   4371 ****        98.5000 152.2500 126.5000 Du        
   4372 ****        98.5000 152.2500 126.7500 Du        
   4373 ****        98.5000 152.2500 127.0000 Du        
   4374 ****        98.5000 152.2500 127.2500 Du        
   4375 ****        98.5000 152.2500 127.5000 Du        
   4376 ****        98.5000 152.2500 127.7500 Du        
   4377 ****        98.5000 152.2500 128.0000 Du        
   4378 ****        98.5000 152.5000 126.5000 Du        
   4379 ****        98.5000 152.5000 126.7500 Du        
   4380 ****        98.5000 152.5000 127.0000 Du        
   4381 ****        98.5000 152.5000 127.2500 Du        
   4382 ****        98.5000 152.5000 127.5000 Du        
   4383 ****        98.5000 152.5000 127.7500 Du        
   4384 ****        98.5000 152.5000 128.0000 Du        
   4385 ****        98.5000 152.7500 126.5000 Du        
   4386 ****        98.5000 152.7500 126.7500 Du        
   4387 ****        98.5000 152.7500 127.0000 Du        
   4388 ****        98.5000 152.7500 127.2500 Du        
   4389 ****        98.5000 152.7500 127.5000 Du        
   4390 ****        98.5000 152.7500 127.7500 Du        
   4391 ****        98.5000 152.7500 128.0000 Du        
   4392 ****        98.5000 153.0000 126.7500 Du        
   4393 ****        98.5000 153.0000 127.0000 Du        
   4394 ****        98.5000 153.0000 127.2500 Du        
   4395 ****        98.5000 153.0000 127.5000 Du        
   4396 ****        98.5000 153.0000 127.7500 Du        
   4397 ****        98.5000 153.0000 128.0000 Du        
   4398 ****        98.5000 153.2500 126.7500 Du        
   4399 ****        98.5000 153.2500 127.0000 Du        
   4400 ****        98.5000 153.2500 127.2500 Du        
   4401 ****        98.5000 153.2500 127.5000 Du        
   4402 ****        98.5000 153.2500 127.7500 Du        
   4403 ****        98.5000 153.2500 128.0000 Du        
   4404 ****        98.5000 153.2500 128.2500 Du        
   4405 ****        98.5000 153.5000 126.7500 Du        
   4406 ****        98.5000 153.5000 127.0000 Du        
   4407 ****        98.5000 153.5000 127.2500 Du        
   4408 ****        98.5000 153.5000 127.5000 Du        
   4409 ****        98.5000 153.5000 127.7500 Du        
   4410 ****        98.5000 153.5000 128.0000 Du        
   4411 ****        98.5000 153.5000 128.2500 Du        
   4412 ****        98.5000 153.7500 126.5000 Du        
   4413 ****        98.5000 153.7500 126.7500 Du        
   4414 ****        98.5000 153.7500 127.0000 Du        
   4415 ****        98.5000 153.7500 127.2500 Du        
   4416 ****        98.5000 153.7500 127.5000 Du        
   4417 ****        98.5000 153.7500 127.7500 Du        
   4418 ****        98.5000 153.7500 128.0000 Du        
   4419 ****        98.5000 153.7500 128.2500 Du        
   4420 ****        98.5000 154.0000 126.5000 Du        
   4421 ****        98.5000 154.0000 126.7500 Du        
   4422 ****        98.5000 154.0000 127.0000 Du        
   4423 ****        98.5000 154.0000 127.2500 Du        
   4424 ****        98.5000 154.0000 127.5000 Du        
   4425 ****        98.5000 154.0000 127.7500 Du        
   4426 ****        98.5000 154.0000 128.0000 Du        
   4427 ****        98.5000 154.0000 128.2500 Du        
   4428 ****        98.5000 154.2500 126.5000 Du        
   4429 ****        98.5000 154.2500 126.7500 Du        
   4430 ****        98.5000 154.2500 127.0000 Du        
   4431 ****        98.5000 154.2500 127.2500 Du        
   4432 ****        98.5000 154.2500 127.5000 Du        
   4433 ****        98.5000 154.2500 127.7500 Du        
   4434 ****        98.5000 154.2500 128.0000 Du        
   4435 ****        98.5000 154.5000 126.5000 Du        
   4436 ****        98.5000 154.5000 126.7500 Du        
   4437 ****        98.5000 154.5000 127.0000 Du        
   4438 ****        98.5000 154.5000 127.2500 Du        
   4439 ****        98.5000 154.5000 127.5000 Du        
   4440 ****        98.5000 154.5000 127.7500 Du        
   4441 ****        98.5000 154.5000 128.0000 Du        
   4442 ****        98.5000 154.7500 126.2500 Du        
   4443 ****        98.5000 154.7500 126.5000 Du        
   4444 ****        98.5000 154.7500 126.7500 Du        
   4445 ****        98.5000 154.7500 127.0000 Du        
   4446 ****        98.5000 154.7500 127.2500 Du        
   4447 ****        98.5000 154.7500 127.5000 Du        
   4448 ****        98.5000 154.7500 127.7500 Du        
   4449 ****        98.5000 154.7500 128.0000 Du        
   4450 ****        98.5000 155.0000 126.2500 Du        
   4451 ****        98.5000 155.0000 126.5000 Du        
   4452 ****        98.5000 155.0000 126.7500 Du        
   4453 ****        98.5000 155.0000 127.0000 Du        
   4454 ****        98.5000 155.0000 127.2500 Du        
   4455 ****        98.5000 155.0000 127.5000 Du        
   4456 ****        98.5000 155.0000 127.7500 Du        
   4457 ****        98.5000 155.2500 126.0000 Du        
   4458 ****        98.5000 155.2500 126.2500 Du        
   4459 ****        98.5000 155.2500 126.5000 Du        
   4460 ****        98.5000 155.2500 126.7500 Du        
   4461 ****        98.5000 155.2500 127.0000 Du        
   4462 ****        98.5000 155.2500 127.2500 Du        
   4463 ****        98.5000 155.2500 127.5000 Du        
   4464 ****        98.5000 155.2500 127.7500 Du        
   4465 ****        98.5000 155.5000 125.7500 Du        
   4466 ****        98.5000 155.5000 126.0000 Du        
   4467 ****        98.5000 155.5000 126.2500 Du        
   4468 ****        98.5000 155.5000 126.5000 Du        
   4469 ****        98.5000 155.5000 126.7500 Du        
   4470 ****        98.5000 155.5000 127.0000 Du        
   4471 ****        98.5000 155.5000 127.2500 Du        
   4472 ****        98.5000 155.5000 127.5000 Du        
   4473 ****        98.5000 155.5000 127.7500 Du        
   4474 ****        98.5000 155.7500 125.5000 Du        
   4475 ****        98.5000 155.7500 125.7500 Du        
   4476 ****        98.5000 155.7500 126.0000 Du        
   4477 ****        98.5000 155.7500 126.2500 Du        
   4478 ****        98.5000 155.7500 126.5000 Du        
   4479 ****        98.5000 155.7500 126.7500 Du        
   4480 ****        98.5000 155.7500 127.0000 Du        
   4481 ****        98.5000 155.7500 127.2500 Du        
   4482 ****        98.5000 155.7500 127.5000 Du        
   4483 ****        98.5000 155.7500 127.7500 Du        
   4484 ****        98.5000 156.0000 125.5000 Du        
   4485 ****        98.5000 156.0000 125.7500 Du        
   4486 ****        98.5000 156.0000 126.0000 Du        
   4487 ****        98.5000 156.0000 126.2500 Du        
   4488 ****        98.5000 156.0000 126.5000 Du        
   4489 ****        98.5000 156.0000 126.7500 Du        
   4490 ****        98.5000 156.0000 127.0000 Du        
   4491 ****        98.5000 156.0000 127.2500 Du        
   4492 ****        98.5000 156.0000 127.5000 Du        
   4493 ****        98.5000 156.2500 125.5000 Du        
   4494 ****        98.5000 156.2500 125.7500 Du        
   4495 ****        98.5000 156.2500 126.0000 Du        
   4496 ****        98.5000 156.2500 126.2500 Du        
   4497 ****        98.5000 156.2500 126.5000 Du        
   4498 ****        98.5000 156.2500 126.7500 Du        
   4499 ****        98.5000 156.2500 127.0000 Du        
   4500 ****        98.5000 156.2500 127.2500 Du        
   4501 ****        98.7500 149.0000 122.7500 Du        
   4502 ****        98.7500 149.2500 122.7500 Du        
   4503 ****        98.7500 149.2500 123.0000 Du        
   4504 ****        98.7500 149.5000 122.7500 Du        
   4505 ****        98.7500 149.5000 123.0000 Du        
   4506 ****        98.7500 149.5000 123.2500 Du        
   4507 ****        98.7500 149.5000 123.5000 Du        
   4508 ****        98.7500 149.7500 122.7500 Du        
   4509 ****        98.7500 149.7500 123.0000 Du        
   4510 ****        98.7500 149.7500 123.2500 Du        
   4511 ****        98.7500 149.7500 123.5000 Du        
   4512 ****        98.7500 149.7500 123.7500 Du        
   4513 ****        98.7500 149.7500 124.0000 Du        
   4514 ****        98.7500 150.0000 122.5000 Du        
   4515 ****        98.7500 150.0000 122.7500 Du        
   4516 ****        98.7500 150.0000 123.0000 Du        
   4517 ****        98.7500 150.0000 123.2500 Du        
   4518 ****        98.7500 150.0000 123.5000 Du        
   4519 ****        98.7500 150.0000 123.7500 Du        
   4520 ****        98.7500 150.0000 124.0000 Du        
   4521 ****        98.7500 150.0000 124.2500 Du        
   4522 ****        98.7500 150.2500 122.5000 Du        
   4523 ****        98.7500 150.2500 122.7500 Du        
   4524 ****        98.7500 150.2500 123.0000 Du        
   4525 ****        98.7500 150.2500 123.2500 Du        
   4526 ****        98.7500 150.2500 123.5000 Du        
   4527 ****        98.7500 150.2500 123.7500 Du        
   4528 ****        98.7500 150.2500 124.0000 Du        
   4529 ****        98.7500 150.2500 124.2500 Du        
   4530 ****        98.7500 150.2500 124.5000 Du        
   4531 ****        98.7500 150.2500 124.7500 Du        
   4532 ****        98.7500 150.2500 125.0000 Du        
   4533 ****        98.7500 150.5000 122.5000 Du        
   4534 ****        98.7500 150.5000 122.7500 Du        
   4535 ****        98.7500 150.5000 123.0000 Du        
   4536 ****        98.7500 150.5000 123.2500 Du        
   4537 ****        98.7500 150.5000 123.5000 Du        
   4538 ****        98.7500 150.5000 123.7500 Du        
   4539 ****        98.7500 150.5000 124.0000 Du        
   4540 ****        98.7500 150.5000 124.2500 Du        
   4541 ****        98.7500 150.5000 124.5000 Du        
   4542 ****        98.7500 150.5000 124.7500 Du        
   4543 ****        98.7500 150.5000 125.0000 Du        
   4544 ****        98.7500 150.5000 125.2500 Du        
   4545 ****        98.7500 150.5000 125.5000 Du        
   4546 ****        98.7500 150.7500 122.7500 Du        
   4547 ****        98.7500 150.7500 123.0000 Du        
   4548 ****        98.7500 150.7500 123.2500 Du        
   4549 ****        98.7500 150.7500 123.5000 Du        
   4550 ****        98.7500 150.7500 123.7500 Du        
   4551 ****        98.7500 150.7500 124.0000 Du        
   4552 ****        98.7500 150.7500 124.2500 Du        
   4553 ****        98.7500 150.7500 124.5000 Du        
   4554 ****        98.7500 150.7500 124.7500 Du        
   4555 ****        98.7500 150.7500 125.0000 Du        
   4556 ****        98.7500 150.7500 125.2500 Du        
   4557 ****        98.7500 150.7500 125.5000 Du        
   4558 ****        98.7500 150.7500 125.7500 Du        
   4559 ****        98.7500 150.7500 126.0000 Du        
   4560 ****        98.7500 151.0000 124.7500 Du        
   4561 ****        98.7500 151.0000 125.0000 Du        
   4562 ****        98.7500 151.0000 125.2500 Du        
   4563 ****        98.7500 151.0000 125.5000 Du        
   4564 ****        98.7500 151.0000 125.7500 Du        
   4565 ****        98.7500 151.0000 126.0000 Du        
   4566 ****        98.7500 151.0000 126.2500 Du        
   4567 ****        98.7500 151.0000 126.5000 Du        
   4568 ****        98.7500 151.0000 126.7500 Du        
   4569 ****        98.7500 151.2500 125.2500 Du        
   4570 ****        98.7500 151.2500 125.5000 Du        
   4571 ****        98.7500 151.2500 125.7500 Du        
   4572 ****        98.7500 151.2500 126.0000 Du        
   4573 ****        98.7500 151.2500 126.2500 Du        
   4574 ****        98.7500 151.2500 126.5000 Du        
   4575 ****        98.7500 151.2500 126.7500 Du        
   4576 ****        98.7500 151.2500 127.0000 Du        
   4577 ****        98.7500 151.2500 127.2500 Du        
   4578 ****        98.7500 151.2500 127.5000 Du        
   4579 ****        98.7500 151.2500 127.7500 Du        
   4580 ****        98.7500 151.2500 128.0000 Du        
   4581 ****        98.7500 151.5000 125.5000 Du        
   4582 ****        98.7500 151.5000 125.7500 Du        
   4583 ****        98.7500 151.5000 126.0000 Du        
   4584 ****        98.7500 151.5000 126.2500 Du        
   4585 ****        98.7500 151.5000 126.5000 Du        
   4586 ****        98.7500 151.5000 126.7500 Du        
   4587 ****        98.7500 151.5000 127.0000 Du        
   4588 ****        98.7500 151.5000 127.2500 Du        
   4589 ****        98.7500 151.5000 127.5000 Du        
   4590 ****        98.7500 151.5000 127.7500 Du        
   4591 ****        98.7500 151.5000 128.0000 Du        
   4592 ****        98.7500 151.7500 125.7500 Du        
   4593 ****        98.7500 151.7500 126.0000 Du        
   4594 ****        98.7500 151.7500 126.2500 Du        
   4595 ****        98.7500 151.7500 126.5000 Du        
   4596 ****        98.7500 151.7500 126.7500 Du        
   4597 ****        98.7500 151.7500 127.0000 Du        
   4598 ****        98.7500 151.7500 127.2500 Du        
   4599 ****        98.7500 151.7500 127.5000 Du        
   4600 ****        98.7500 151.7500 127.7500 Du        
   4601 ****        98.7500 151.7500 128.0000 Du        
   4602 ****        98.7500 152.0000 126.0000 Du        
   4603 ****        98.7500 152.0000 126.2500 Du        
   4604 ****        98.7500 152.0000 126.5000 Du        
   4605 ****        98.7500 152.0000 126.7500 Du        
   4606 ****        98.7500 152.0000 127.0000 Du        
   4607 ****        98.7500 152.0000 127.2500 Du        
   4608 ****        98.7500 152.0000 127.5000 Du        
   4609 ****        98.7500 152.0000 127.7500 Du        
   4610 ****        98.7500 152.0000 128.0000 Du        
   4611 ****        98.7500 152.2500 126.2500 Du        
   4612 ****        98.7500 152.2500 126.5000 Du        
   4613 ****        98.7500 152.2500 126.7500 Du        
   4614 ****        98.7500 152.2500 127.0000 Du        
   4615 ****        98.7500 152.2500 127.2500 Du        
   4616 ****        98.7500 152.2500 127.5000 Du        
   4617 ****        98.7500 152.2500 127.7500 Du        
   4618 ****        98.7500 152.2500 128.0000 Du        
   4619 ****        98.7500 152.5000 126.5000 Du        
   4620 ****        98.7500 152.5000 126.7500 Du        
   4621 ****        98.7500 152.5000 127.0000 Du        
   4622 ****        98.7500 152.5000 127.2500 Du        
   4623 ****        98.7500 152.5000 127.5000 Du        
   4624 ****        98.7500 152.5000 127.7500 Du        
   4625 ****        98.7500 152.5000 128.0000 Du        
   4626 ****        98.7500 152.7500 126.5000 Du        
   4627 ****        98.7500 152.7500 126.7500 Du        
   4628 ****        98.7500 152.7500 127.0000 Du        
   4629 ****        98.7500 152.7500 127.2500 Du        
   4630 ****        98.7500 152.7500 127.5000 Du        
   4631 ****        98.7500 152.7500 127.7500 Du        
   4632 ****        98.7500 152.7500 128.0000 Du        
   4633 ****        98.7500 153.0000 126.7500 Du        
   4634 ****        98.7500 153.0000 127.0000 Du        
   4635 ****        98.7500 153.0000 127.2500 Du        
   4636 ****        98.7500 153.0000 127.5000 Du        
   4637 ****        98.7500 153.0000 127.7500 Du        
   4638 ****        98.7500 153.0000 128.0000 Du        
   4639 ****        98.7500 153.2500 126.7500 Du        
   4640 ****        98.7500 153.2500 127.0000 Du        
   4641 ****        98.7500 153.2500 127.2500 Du        
   4642 ****        98.7500 153.2500 127.5000 Du        
   4643 ****        98.7500 153.2500 127.7500 Du        
   4644 ****        98.7500 153.2500 128.0000 Du        
   4645 ****        98.7500 153.2500 128.2500 Du        
   4646 ****        98.7500 153.5000 126.7500 Du        
   4647 ****        98.7500 153.5000 127.0000 Du        
   4648 ****        98.7500 153.5000 127.2500 Du        
   4649 ****        98.7500 153.5000 127.5000 Du        
   4650 ****        98.7500 153.5000 127.7500 Du        
   4651 ****        98.7500 153.5000 128.0000 Du        
   4652 ****        98.7500 153.5000 128.2500 Du        
   4653 ****        98.7500 153.7500 126.5000 Du        
   4654 ****        98.7500 153.7500 126.7500 Du        
   4655 ****        98.7500 153.7500 127.0000 Du        
   4656 ****        98.7500 153.7500 127.2500 Du        
   4657 ****        98.7500 153.7500 127.5000 Du        
   4658 ****        98.7500 153.7500 127.7500 Du        
   4659 ****        98.7500 153.7500 128.0000 Du        
   4660 ****        98.7500 153.7500 128.2500 Du        
   4661 ****        98.7500 154.0000 126.5000 Du        
   4662 ****        98.7500 154.0000 126.7500 Du        
   4663 ****        98.7500 154.0000 127.0000 Du        
   4664 ****        98.7500 154.0000 127.2500 Du        
   4665 ****        98.7500 154.0000 127.5000 Du        
   4666 ****        98.7500 154.0000 127.7500 Du        
   4667 ****        98.7500 154.0000 128.0000 Du        
   4668 ****        98.7500 154.0000 128.2500 Du        
   4669 ****        98.7500 154.2500 126.5000 Du        
   4670 ****        98.7500 154.2500 126.7500 Du        
   4671 ****        98.7500 154.2500 127.0000 Du        
   4672 ****        98.7500 154.2500 127.2500 Du        
   4673 ****        98.7500 154.2500 127.5000 Du        
   4674 ****        98.7500 154.2500 127.7500 Du        
   4675 ****        98.7500 154.2500 128.0000 Du        
   4676 ****        98.7500 154.2500 128.2500 Du        
   4677 ****        98.7500 154.5000 126.5000 Du        
   4678 ****        98.7500 154.5000 126.7500 Du        
   4679 ****        98.7500 154.5000 127.0000 Du        
   4680 ****        98.7500 154.5000 127.2500 Du        
   4681 ****        98.7500 154.5000 127.5000 Du        
   4682 ****        98.7500 154.5000 127.7500 Du        
   4683 ****        98.7500 154.5000 128.0000 Du        
   4684 ****        98.7500 154.5000 128.2500 Du        
   4685 ****        98.7500 154.7500 126.2500 Du        
   4686 ****        98.7500 154.7500 126.5000 Du        
   4687 ****        98.7500 154.7500 126.7500 Du        
   4688 ****        98.7500 154.7500 127.0000 Du        
   4689 ****        98.7500 154.7500 127.2500 Du        
   4690 ****        98.7500 154.7500 127.5000 Du        
   4691 ****        98.7500 154.7500 127.7500 Du        
   4692 ****        98.7500 154.7500 128.0000 Du        
   4693 ****        98.7500 155.0000 126.2500 Du        
   4694 ****        98.7500 155.0000 126.5000 Du        
   4695 ****        98.7500 155.0000 126.7500 Du        
   4696 ****        98.7500 155.0000 127.0000 Du        
   4697 ****        98.7500 155.0000 127.2500 Du        
   4698 ****        98.7500 155.0000 127.5000 Du        
   4699 ****        98.7500 155.0000 127.7500 Du        
   4700 ****        98.7500 155.0000 128.0000 Du        
   4701 ****        98.7500 155.2500 126.0000 Du        
   4702 ****        98.7500 155.2500 126.2500 Du        
   4703 ****        98.7500 155.2500 126.5000 Du        
   4704 ****        98.7500 155.2500 126.7500 Du        
   4705 ****        98.7500 155.2500 127.0000 Du        
   4706 ****        98.7500 155.2500 127.2500 Du        
   4707 ****        98.7500 155.2500 127.5000 Du        
   4708 ****        98.7500 155.2500 127.7500 Du        
   4709 ****        98.7500 155.2500 128.0000 Du        
   4710 ****        98.7500 155.5000 125.7500 Du        
   4711 ****        98.7500 155.5000 126.0000 Du        
   4712 ****        98.7500 155.5000 126.2500 Du        
   4713 ****        98.7500 155.5000 126.5000 Du        
   4714 ****        98.7500 155.5000 126.7500 Du        
   4715 ****        98.7500 155.5000 127.0000 Du        
   4716 ****        98.7500 155.5000 127.2500 Du        
   4717 ****        98.7500 155.5000 127.5000 Du        
   4718 ****        98.7500 155.5000 127.7500 Du        
   4719 ****        98.7500 155.5000 128.0000 Du        
   4720 ****        98.7500 155.7500 125.5000 Du        
   4721 ****        98.7500 155.7500 125.7500 Du        
   4722 ****        98.7500 155.7500 126.0000 Du        
   4723 ****        98.7500 155.7500 126.2500 Du        
   4724 ****        98.7500 155.7500 126.5000 Du        
   4725 ****        98.7500 155.7500 126.7500 Du        
   4726 ****        98.7500 155.7500 127.0000 Du        
   4727 ****        98.7500 155.7500 127.2500 Du        
   4728 ****        98.7500 155.7500 127.5000 Du        
   4729 ****        98.7500 155.7500 127.7500 Du        
   4730 ****        98.7500 156.0000 125.5000 Du        
   4731 ****        98.7500 156.0000 125.7500 Du        
   4732 ****        98.7500 156.0000 126.0000 Du        
   4733 ****        98.7500 156.0000 126.2500 Du        
   4734 ****        98.7500 156.0000 126.5000 Du        
   4735 ****        98.7500 156.0000 126.7500 Du        
   4736 ****        98.7500 156.0000 127.0000 Du        
   4737 ****        98.7500 156.0000 127.2500 Du        
   4738 ****        98.7500 156.0000 127.5000 Du        
   4739 ****        98.7500 156.0000 127.7500 Du        
   4740 ****        98.7500 156.2500 125.5000 Du        
   4741 ****        98.7500 156.2500 125.7500 Du        
   4742 ****        98.7500 156.2500 126.0000 Du        
   4743 ****        98.7500 156.2500 126.2500 Du        
   4744 ****        98.7500 156.2500 126.5000 Du        
   4745 ****        98.7500 156.2500 126.7500 Du        
   4746 ****        98.7500 156.2500 127.0000 Du        
   4747 ****        98.7500 156.2500 127.2500 Du        
   4748 ****        98.7500 156.2500 127.5000 Du        
   4749 ****        98.7500 156.2500 127.7500 Du        
   4750 ****        98.7500 156.5000 126.0000 Du        
   4751 ****        98.7500 156.5000 126.2500 Du        
   4752 ****        98.7500 156.5000 126.5000 Du        
   4753 ****        98.7500 156.5000 126.7500 Du        
   4754 ****        98.7500 156.5000 127.0000 Du        
   4755 ****        98.7500 156.5000 127.2500 Du        
   4756 ****        99.0000 149.5000 122.7500 Du        
   4757 ****        99.0000 149.5000 123.0000 Du        
   4758 ****        99.0000 149.5000 123.2500 Du        
   4759 ****        99.0000 149.7500 122.7500 Du        
   4760 ****        99.0000 149.7500 123.0000 Du        
   4761 ****        99.0000 149.7500 123.2500 Du        
   4762 ****        99.0000 149.7500 123.5000 Du        
   4763 ****        99.0000 149.7500 123.7500 Du        
   4764 ****        99.0000 150.0000 122.7500 Du        
   4765 ****        99.0000 150.0000 123.0000 Du        
   4766 ****        99.0000 150.0000 123.2500 Du        
   4767 ****        99.0000 150.0000 123.5000 Du        
   4768 ****        99.0000 150.0000 123.7500 Du        
   4769 ****        99.0000 150.0000 124.0000 Du        
   4770 ****        99.0000 150.0000 124.2500 Du        
   4771 ****        99.0000 150.2500 122.7500 Du        
   4772 ****        99.0000 150.2500 123.0000 Du        
   4773 ****        99.0000 150.2500 123.2500 Du        
   4774 ****        99.0000 150.2500 123.5000 Du        
   4775 ****        99.0000 150.2500 123.7500 Du        
   4776 ****        99.0000 150.2500 124.0000 Du        
   4777 ****        99.0000 150.2500 124.2500 Du        
   4778 ****        99.0000 150.2500 124.5000 Du        
   4779 ****        99.0000 150.2500 124.7500 Du        
   4780 ****        99.0000 150.2500 125.0000 Du        
   4781 ****        99.0000 150.5000 122.7500 Du        
   4782 ****        99.0000 150.5000 123.0000 Du        
   4783 ****        99.0000 150.5000 123.2500 Du        
   4784 ****        99.0000 150.5000 123.5000 Du        
   4785 ****        99.0000 150.5000 123.7500 Du        
   4786 ****        99.0000 150.5000 124.0000 Du        
   4787 ****        99.0000 150.5000 124.2500 Du        
   4788 ****        99.0000 150.5000 124.5000 Du        
   4789 ****        99.0000 150.5000 124.7500 Du        
   4790 ****        99.0000 150.5000 125.0000 Du        
   4791 ****        99.0000 150.5000 125.2500 Du        
   4792 ****        99.0000 150.7500 122.7500 Du        
   4793 ****        99.0000 150.7500 123.0000 Du        
   4794 ****        99.0000 150.7500 123.2500 Du        
   4795 ****        99.0000 150.7500 123.5000 Du        
   4796 ****        99.0000 150.7500 123.7500 Du        
   4797 ****        99.0000 150.7500 124.0000 Du        
   4798 ****        99.0000 150.7500 124.2500 Du        
   4799 ****        99.0000 150.7500 124.5000 Du        
   4800 ****        99.0000 150.7500 124.7500 Du        
   4801 ****        99.0000 150.7500 125.0000 Du        
   4802 ****        99.0000 150.7500 125.2500 Du        
   4803 ****        99.0000 150.7500 125.5000 Du        
   4804 ****        99.0000 150.7500 125.7500 Du        
   4805 ****        99.0000 151.0000 124.2500 Du        
   4806 ****        99.0000 151.0000 124.5000 Du        
   4807 ****        99.0000 151.0000 124.7500 Du        
   4808 ****        99.0000 151.0000 125.0000 Du        
   4809 ****        99.0000 151.0000 125.2500 Du        
   4810 ****        99.0000 151.0000 125.5000 Du        
   4811 ****        99.0000 151.0000 125.7500 Du        
   4812 ****        99.0000 151.0000 126.0000 Du        
   4813 ****        99.0000 151.0000 126.2500 Du        
   4814 ****        99.0000 151.2500 125.0000 Du        
   4815 ****        99.0000 151.2500 125.2500 Du        
   4816 ****        99.0000 151.2500 125.5000 Du        
   4817 ****        99.0000 151.2500 125.7500 Du        
   4818 ****        99.0000 151.2500 126.0000 Du        
   4819 ****        99.0000 151.2500 126.2500 Du        
   4820 ****        99.0000 151.2500 126.5000 Du        
   4821 ****        99.0000 151.2500 126.7500 Du        
   4822 ****        99.0000 151.2500 127.0000 Du        
   4823 ****        99.0000 151.2500 127.2500 Du        
   4824 ****        99.0000 151.2500 127.5000 Du        
   4825 ****        99.0000 151.2500 127.7500 Du        
   4826 ****        99.0000 151.2500 128.0000 Du        
   4827 ****        99.0000 151.5000 125.5000 Du        
   4828 ****        99.0000 151.5000 125.7500 Du        
   4829 ****        99.0000 151.5000 126.0000 Du        
   4830 ****        99.0000 151.5000 126.2500 Du        
   4831 ****        99.0000 151.5000 126.5000 Du        
   4832 ****        99.0000 151.5000 126.7500 Du        
   4833 ****        99.0000 151.5000 127.0000 Du        
   4834 ****        99.0000 151.5000 127.2500 Du        
   4835 ****        99.0000 151.5000 127.5000 Du        
   4836 ****        99.0000 151.5000 127.7500 Du        
   4837 ****        99.0000 151.5000 128.0000 Du        
   4838 ****        99.0000 151.7500 125.7500 Du        
   4839 ****        99.0000 151.7500 126.0000 Du        
   4840 ****        99.0000 151.7500 126.2500 Du        
   4841 ****        99.0000 151.7500 126.5000 Du        
   4842 ****        99.0000 151.7500 126.7500 Du        
   4843 ****        99.0000 151.7500 127.0000 Du        
   4844 ****        99.0000 151.7500 127.2500 Du        
   4845 ****        99.0000 151.7500 127.5000 Du        
   4846 ****        99.0000 151.7500 127.7500 Du        
   4847 ****        99.0000 151.7500 128.0000 Du        
   4848 ****        99.0000 152.0000 126.0000 Du        
   4849 ****        99.0000 152.0000 126.2500 Du        
   4850 ****        99.0000 152.0000 126.5000 Du        
   4851 ****        99.0000 152.0000 126.7500 Du        
   4852 ****        99.0000 152.0000 127.0000 Du        
   4853 ****        99.0000 152.0000 127.2500 Du        
   4854 ****        99.0000 152.0000 127.5000 Du        
   4855 ****        99.0000 152.0000 127.7500 Du        
   4856 ****        99.0000 152.0000 128.0000 Du        
   4857 ****        99.0000 152.2500 126.0000 Du        
   4858 ****        99.0000 152.2500 126.2500 Du        
   4859 ****        99.0000 152.2500 126.5000 Du        
   4860 ****        99.0000 152.2500 126.7500 Du        
   4861 ****        99.0000 152.2500 127.0000 Du        
   4862 ****        99.0000 152.2500 127.2500 Du        
   4863 ****        99.0000 152.2500 127.5000 Du        
   4864 ****        99.0000 152.2500 127.7500 Du        
   4865 ****        99.0000 152.2500 128.0000 Du        
   4866 ****        99.0000 152.5000 126.5000 Du        
   4867 ****        99.0000 152.5000 126.7500 Du        
   4868 ****        99.0000 152.5000 127.0000 Du        
   4869 ****        99.0000 152.5000 127.2500 Du        
   4870 ****        99.0000 152.5000 127.5000 Du        
   4871 ****        99.0000 152.5000 127.7500 Du        
   4872 ****        99.0000 152.5000 128.0000 Du        
   4873 ****        99.0000 152.7500 126.5000 Du        
   4874 ****        99.0000 152.7500 126.7500 Du        
   4875 ****        99.0000 152.7500 127.0000 Du        
   4876 ****        99.0000 152.7500 127.2500 Du        
   4877 ****        99.0000 152.7500 127.5000 Du        
   4878 ****        99.0000 152.7500 127.7500 Du        
   4879 ****        99.0000 152.7500 128.0000 Du        
   4880 ****        99.0000 153.0000 126.7500 Du        
   4881 ****        99.0000 153.0000 127.0000 Du        
   4882 ****        99.0000 153.0000 127.2500 Du        
   4883 ****        99.0000 153.0000 127.5000 Du        
   4884 ****        99.0000 153.0000 127.7500 Du        
   4885 ****        99.0000 153.0000 128.0000 Du        
   4886 ****        99.0000 153.0000 128.2500 Du        
   4887 ****        99.0000 153.2500 126.7500 Du        
   4888 ****        99.0000 153.2500 127.0000 Du        
   4889 ****        99.0000 153.2500 127.2500 Du        
   4890 ****        99.0000 153.2500 127.5000 Du        
   4891 ****        99.0000 153.2500 127.7500 Du        
   4892 ****        99.0000 153.2500 128.0000 Du        
   4893 ****        99.0000 153.2500 128.2500 Du        
   4894 ****        99.0000 153.5000 126.7500 Du        
   4895 ****        99.0000 153.5000 127.0000 Du        
   4896 ****        99.0000 153.5000 127.2500 Du        
   4897 ****        99.0000 153.5000 127.5000 Du        
   4898 ****        99.0000 153.5000 127.7500 Du        
   4899 ****        99.0000 153.5000 128.0000 Du        
   4900 ****        99.0000 153.5000 128.2500 Du        
   4901 ****        99.0000 153.7500 126.7500 Du        
   4902 ****        99.0000 153.7500 127.0000 Du        
   4903 ****        99.0000 153.7500 127.2500 Du        
   4904 ****        99.0000 153.7500 127.5000 Du        
   4905 ****        99.0000 153.7500 127.7500 Du        
   4906 ****        99.0000 153.7500 128.0000 Du        
   4907 ****        99.0000 153.7500 128.2500 Du        
   4908 ****        99.0000 153.7500 128.5000 Du        
   4909 ****        99.0000 154.0000 126.7500 Du        
   4910 ****        99.0000 154.0000 127.0000 Du        
   4911 ****        99.0000 154.0000 127.2500 Du        
   4912 ****        99.0000 154.0000 127.5000 Du        
   4913 ****        99.0000 154.0000 127.7500 Du        
   4914 ****        99.0000 154.0000 128.0000 Du        
   4915 ****        99.0000 154.0000 128.2500 Du        
   4916 ****        99.0000 154.0000 128.5000 Du        
   4917 ****        99.0000 154.2500 126.5000 Du        
   4918 ****        99.0000 154.2500 126.7500 Du        
   4919 ****        99.0000 154.2500 127.0000 Du        
   4920 ****        99.0000 154.2500 127.2500 Du        
   4921 ****        99.0000 154.2500 127.5000 Du        
   4922 ****        99.0000 154.2500 127.7500 Du        
   4923 ****        99.0000 154.2500 128.0000 Du        
   4924 ****        99.0000 154.2500 128.2500 Du        
   4925 ****        99.0000 154.2500 128.5000 Du        
   4926 ****        99.0000 154.5000 126.5000 Du        
   4927 ****        99.0000 154.5000 126.7500 Du        
   4928 ****        99.0000 154.5000 127.0000 Du        
   4929 ****        99.0000 154.5000 127.2500 Du        
   4930 ****        99.0000 154.5000 127.5000 Du        
   4931 ****        99.0000 154.5000 127.7500 Du        
   4932 ****        99.0000 154.5000 128.0000 Du        
   4933 ****        99.0000 154.5000 128.2500 Du        
   4934 ****        99.0000 154.7500 126.2500 Du        
   4935 ****        99.0000 154.7500 126.5000 Du        
   4936 ****        99.0000 154.7500 126.7500 Du        
   4937 ****        99.0000 154.7500 127.0000 Du        
   4938 ****        99.0000 154.7500 127.2500 Du        
   4939 ****        99.0000 154.7500 127.5000 Du        
   4940 ****        99.0000 154.7500 127.7500 Du        
   4941 ****        99.0000 154.7500 128.0000 Du        
   4942 ****        99.0000 154.7500 128.2500 Du        
   4943 ****        99.0000 155.0000 126.2500 Du        
   4944 ****        99.0000 155.0000 126.5000 Du        
   4945 ****        99.0000 155.0000 126.7500 Du        
   4946 ****        99.0000 155.0000 127.0000 Du        
   4947 ****        99.0000 155.0000 127.2500 Du        
   4948 ****        99.0000 155.0000 127.5000 Du        
   4949 ****        99.0000 155.0000 127.7500 Du        
   4950 ****        99.0000 155.0000 128.0000 Du        
   4951 ****        99.0000 155.0000 128.2500 Du        
   4952 ****        99.0000 155.2500 126.0000 Du        
   4953 ****        99.0000 155.2500 126.2500 Du        
   4954 ****        99.0000 155.2500 126.5000 Du        
   4955 ****        99.0000 155.2500 126.7500 Du        
   4956 ****        99.0000 155.2500 127.0000 Du        
   4957 ****        99.0000 155.2500 127.2500 Du        
   4958 ****        99.0000 155.2500 127.5000 Du        
   4959 ****        99.0000 155.2500 127.7500 Du        
   4960 ****        99.0000 155.2500 128.0000 Du        
   4961 ****        99.0000 155.2500 128.2500 Du        
   4962 ****        99.0000 155.5000 125.7500 Du        
   4963 ****        99.0000 155.5000 126.0000 Du        
   4964 ****        99.0000 155.5000 126.2500 Du        
   4965 ****        99.0000 155.5000 126.5000 Du        
   4966 ****        99.0000 155.5000 126.7500 Du        
   4967 ****        99.0000 155.5000 127.0000 Du        
   4968 ****        99.0000 155.5000 127.2500 Du        
   4969 ****        99.0000 155.5000 127.5000 Du        
   4970 ****        99.0000 155.5000 127.7500 Du        
   4971 ****        99.0000 155.5000 128.0000 Du        
   4972 ****        99.0000 155.7500 125.7500 Du        
   4973 ****        99.0000 155.7500 126.0000 Du        
   4974 ****        99.0000 155.7500 126.2500 Du        
   4975 ****        99.0000 155.7500 126.5000 Du        
   4976 ****        99.0000 155.7500 126.7500 Du        
   4977 ****        99.0000 155.7500 127.0000 Du        
   4978 ****        99.0000 155.7500 127.2500 Du        
   4979 ****        99.0000 155.7500 127.5000 Du        
   4980 ****        99.0000 155.7500 127.7500 Du        
   4981 ****        99.0000 155.7500 128.0000 Du        
   4982 ****        99.0000 156.0000 125.5000 Du        
   4983 ****        99.0000 156.0000 125.7500 Du        
   4984 ****        99.0000 156.0000 126.0000 Du        
   4985 ****        99.0000 156.0000 126.2500 Du        
   4986 ****        99.0000 156.0000 126.5000 Du        
   4987 ****        99.0000 156.0000 126.7500 Du        
   4988 ****        99.0000 156.0000 127.0000 Du        
   4989 ****        99.0000 156.0000 127.2500 Du        
   4990 ****        99.0000 156.0000 127.5000 Du        
   4991 ****        99.0000 156.0000 127.7500 Du        
   4992 ****        99.0000 156.0000 128.0000 Du        
   4993 ****        99.0000 156.2500 125.5000 Du        
   4994 ****        99.0000 156.2500 125.7500 Du        
   4995 ****        99.0000 156.2500 126.0000 Du        
   4996 ****        99.0000 156.2500 126.2500 Du        
   4997 ****        99.0000 156.2500 126.5000 Du        
   4998 ****        99.0000 156.2500 126.7500 Du        
   4999 ****        99.0000 156.2500 127.0000 Du        
   5000 ****        99.0000 156.2500 127.2500 Du        
   5001 ****        99.0000 156.2500 127.5000 Du        
   5002 ****        99.0000 156.2500 127.7500 Du        
   5003 ****        99.0000 156.5000 125.7500 Du        
   5004 ****        99.0000 156.5000 126.0000 Du        
   5005 ****        99.0000 156.5000 126.2500 Du        
   5006 ****        99.0000 156.5000 126.5000 Du        
   5007 ****        99.0000 156.5000 126.7500 Du        
   5008 ****        99.0000 156.5000 127.0000 Du        
   5009 ****        99.0000 156.5000 127.2500 Du        
   5010 ****        99.0000 156.5000 127.5000 Du        
   5011 ****        99.2500 149.7500 123.0000 Du        
   5012 ****        99.2500 149.7500 123.2500 Du        
   5013 ****        99.2500 149.7500 123.5000 Du        
   5014 ****        99.2500 149.7500 123.7500 Du        
   5015 ****        99.2500 150.0000 123.0000 Du        
   5016 ****        99.2500 150.0000 123.2500 Du        
   5017 ****        99.2500 150.0000 123.5000 Du        
   5018 ****        99.2500 150.0000 123.7500 Du        
   5019 ****        99.2500 150.0000 124.0000 Du        
   5020 ****        99.2500 150.0000 124.2500 Du        
   5021 ****        99.2500 150.0000 124.5000 Du        
   5022 ****        99.2500 150.2500 123.0000 Du        
   5023 ****        99.2500 150.2500 123.2500 Du        
   5024 ****        99.2500 150.2500 123.5000 Du        
   5025 ****        99.2500 150.2500 123.7500 Du        
   5026 ****        99.2500 150.2500 124.0000 Du        
   5027 ****        99.2500 150.2500 124.2500 Du        
   5028 ****        99.2500 150.2500 124.5000 Du        
   5029 ****        99.2500 150.2500 124.7500 Du        
   5030 ****        99.2500 150.2500 125.0000 Du        
   5031 ****        99.2500 150.5000 123.0000 Du        
   5032 ****        99.2500 150.5000 123.2500 Du        
   5033 ****        99.2500 150.5000 123.5000 Du        
   5034 ****        99.2500 150.5000 123.7500 Du        
   5035 ****        99.2500 150.5000 124.0000 Du        
   5036 ****        99.2500 150.5000 124.2500 Du        
   5037 ****        99.2500 150.5000 124.5000 Du        
   5038 ****        99.2500 150.5000 124.7500 Du        
   5039 ****        99.2500 150.5000 125.0000 Du        
   5040 ****        99.2500 150.5000 125.2500 Du        
   5041 ****        99.2500 150.7500 123.0000 Du        
   5042 ****        99.2500 150.7500 123.2500 Du        
   5043 ****        99.2500 150.7500 123.5000 Du        
   5044 ****        99.2500 150.7500 123.7500 Du        
   5045 ****        99.2500 150.7500 124.0000 Du        
   5046 ****        99.2500 150.7500 124.2500 Du        
   5047 ****        99.2500 150.7500 124.5000 Du        
   5048 ****        99.2500 150.7500 124.7500 Du        
   5049 ****        99.2500 150.7500 125.0000 Du        
   5050 ****        99.2500 150.7500 125.2500 Du        
   5051 ****        99.2500 150.7500 125.5000 Du        
   5052 ****        99.2500 150.7500 125.7500 Du        
   5053 ****        99.2500 151.0000 124.0000 Du        
   5054 ****        99.2500 151.0000 124.2500 Du        
   5055 ****        99.2500 151.0000 124.5000 Du        
   5056 ****        99.2500 151.0000 124.7500 Du        
   5057 ****        99.2500 151.0000 125.0000 Du        
   5058 ****        99.2500 151.0000 125.2500 Du        
   5059 ****        99.2500 151.0000 125.5000 Du        
   5060 ****        99.2500 151.0000 125.7500 Du        
   5061 ****        99.2500 151.0000 126.0000 Du        
   5062 ****        99.2500 151.0000 126.2500 Du        
   5063 ****        99.2500 151.2500 124.7500 Du        
   5064 ****        99.2500 151.2500 125.0000 Du        
   5065 ****        99.2500 151.2500 125.2500 Du        
   5066 ****        99.2500 151.2500 125.5000 Du        
   5067 ****        99.2500 151.2500 125.7500 Du        
   5068 ****        99.2500 151.2500 126.0000 Du        
   5069 ****        99.2500 151.2500 126.2500 Du        
   5070 ****        99.2500 151.2500 126.5000 Du        
   5071 ****        99.2500 151.2500 126.7500 Du        
   5072 ****        99.2500 151.2500 127.0000 Du        
   5073 ****        99.2500 151.2500 127.2500 Du        
   5074 ****        99.2500 151.2500 127.5000 Du        
   5075 ****        99.2500 151.2500 127.7500 Du        
   5076 ****        99.2500 151.2500 128.0000 Du        
   5077 ****        99.2500 151.5000 125.5000 Du        
   5078 ****        99.2500 151.5000 125.7500 Du        
   5079 ****        99.2500 151.5000 126.0000 Du        
   5080 ****        99.2500 151.5000 126.2500 Du        
   5081 ****        99.2500 151.5000 126.5000 Du        
   5082 ****        99.2500 151.5000 126.7500 Du        
   5083 ****        99.2500 151.5000 127.0000 Du        
   5084 ****        99.2500 151.5000 127.2500 Du        
   5085 ****        99.2500 151.5000 127.5000 Du        
   5086 ****        99.2500 151.5000 127.7500 Du        
   5087 ****        99.2500 151.5000 128.0000 Du        
   5088 ****        99.2500 151.7500 125.7500 Du        
   5089 ****        99.2500 151.7500 126.0000 Du        
   5090 ****        99.2500 151.7500 126.2500 Du        
   5091 ****        99.2500 151.7500 126.5000 Du        
   5092 ****        99.2500 151.7500 126.7500 Du        
   5093 ****        99.2500 151.7500 127.0000 Du        
   5094 ****        99.2500 151.7500 127.2500 Du        
   5095 ****        99.2500 151.7500 127.5000 Du        
   5096 ****        99.2500 151.7500 127.7500 Du        
   5097 ****        99.2500 151.7500 128.0000 Du        
   5098 ****        99.2500 152.0000 126.0000 Du        
   5099 ****        99.2500 152.0000 126.2500 Du        
   5100 ****        99.2500 152.0000 126.5000 Du        
   5101 ****        99.2500 152.0000 126.7500 Du        
   5102 ****        99.2500 152.0000 127.0000 Du        
   5103 ****        99.2500 152.0000 127.2500 Du        
   5104 ****        99.2500 152.0000 127.5000 Du        
   5105 ****        99.2500 152.0000 127.7500 Du        
   5106 ****        99.2500 152.0000 128.0000 Du        
   5107 ****        99.2500 152.2500 126.0000 Du        
   5108 ****        99.2500 152.2500 126.2500 Du        
   5109 ****        99.2500 152.2500 126.5000 Du        
   5110 ****        99.2500 152.2500 126.7500 Du        
   5111 ****        99.2500 152.2500 127.0000 Du        
   5112 ****        99.2500 152.2500 127.2500 Du        
   5113 ****        99.2500 152.2500 127.5000 Du        
   5114 ****        99.2500 152.2500 127.7500 Du        
   5115 ****        99.2500 152.2500 128.0000 Du        
   5116 ****        99.2500 152.5000 126.5000 Du        
   5117 ****        99.2500 152.5000 126.7500 Du        
   5118 ****        99.2500 152.5000 127.0000 Du        
   5119 ****        99.2500 152.5000 127.2500 Du        
   5120 ****        99.2500 152.5000 127.5000 Du        
   5121 ****        99.2500 152.5000 127.7500 Du        
   5122 ****        99.2500 152.5000 128.0000 Du        
   5123 ****        99.2500 152.7500 126.5000 Du        
   5124 ****        99.2500 152.7500 126.7500 Du        
   5125 ****        99.2500 152.7500 127.0000 Du        
   5126 ****        99.2500 152.7500 127.2500 Du        
   5127 ****        99.2500 152.7500 127.5000 Du        
   5128 ****        99.2500 152.7500 127.7500 Du        
   5129 ****        99.2500 152.7500 128.0000 Du        
   5130 ****        99.2500 152.7500 128.2500 Du        
   5131 ****        99.2500 153.0000 126.7500 Du        
   5132 ****        99.2500 153.0000 127.0000 Du        
   5133 ****        99.2500 153.0000 127.2500 Du        
   5134 ****        99.2500 153.0000 127.5000 Du        
   5135 ****        99.2500 153.0000 127.7500 Du        
   5136 ****        99.2500 153.0000 128.0000 Du        
   5137 ****        99.2500 153.0000 128.2500 Du        
   5138 ****        99.2500 153.2500 126.7500 Du        
   5139 ****        99.2500 153.2500 127.0000 Du        
   5140 ****        99.2500 153.2500 127.2500 Du        
   5141 ****        99.2500 153.2500 127.5000 Du        
   5142 ****        99.2500 153.2500 127.7500 Du        
   5143 ****        99.2500 153.2500 128.0000 Du        
   5144 ****        99.2500 153.2500 128.2500 Du        
   5145 ****        99.2500 153.5000 126.7500 Du        
   5146 ****        99.2500 153.5000 127.0000 Du        
   5147 ****        99.2500 153.5000 127.2500 Du        
   5148 ****        99.2500 153.5000 127.5000 Du        
   5149 ****        99.2500 153.5000 127.7500 Du        
   5150 ****        99.2500 153.5000 128.0000 Du        
   5151 ****        99.2500 153.5000 128.2500 Du        
   5152 ****        99.2500 153.7500 126.7500 Du        
   5153 ****        99.2500 153.7500 127.0000 Du        
   5154 ****        99.2500 153.7500 127.2500 Du        
   5155 ****        99.2500 153.7500 127.5000 Du        
   5156 ****        99.2500 153.7500 127.7500 Du        
   5157 ****        99.2500 153.7500 128.0000 Du        
   5158 ****        99.2500 153.7500 128.2500 Du        
   5159 ****        99.2500 153.7500 128.5000 Du        
   5160 ****        99.2500 154.0000 126.5000 Du        
   5161 ****        99.2500 154.0000 126.7500 Du        
   5162 ****        99.2500 154.0000 127.0000 Du        
   5163 ****        99.2500 154.0000 127.2500 Du        
   5164 ****        99.2500 154.0000 127.5000 Du        
   5165 ****        99.2500 154.0000 127.7500 Du        
   5166 ****        99.2500 154.0000 128.0000 Du        
   5167 ****        99.2500 154.0000 128.2500 Du        
   5168 ****        99.2500 154.0000 128.5000 Du        
   5169 ****        99.2500 154.2500 126.5000 Du        
   5170 ****        99.2500 154.2500 126.7500 Du        
   5171 ****        99.2500 154.2500 127.0000 Du        
   5172 ****        99.2500 154.2500 127.2500 Du        
   5173 ****        99.2500 154.2500 127.5000 Du        
   5174 ****        99.2500 154.2500 127.7500 Du        
   5175 ****        99.2500 154.2500 128.0000 Du        
   5176 ****        99.2500 154.2500 128.2500 Du        
   5177 ****        99.2500 154.2500 128.5000 Du        
   5178 ****        99.2500 154.5000 126.5000 Du        
   5179 ****        99.2500 154.5000 126.7500 Du        
   5180 ****        99.2500 154.5000 127.0000 Du        
   5181 ****        99.2500 154.5000 127.2500 Du        
   5182 ****        99.2500 154.5000 127.5000 Du        
   5183 ****        99.2500 154.5000 127.7500 Du        
   5184 ****        99.2500 154.5000 128.0000 Du        
   5185 ****        99.2500 154.5000 128.2500 Du        
   5186 ****        99.2500 154.5000 128.5000 Du        
   5187 ****        99.2500 154.7500 126.5000 Du        
   5188 ****        99.2500 154.7500 126.7500 Du        
   5189 ****        99.2500 154.7500 127.0000 Du        
   5190 ****        99.2500 154.7500 127.2500 Du        
   5191 ****        99.2500 154.7500 127.5000 Du        
   5192 ****        99.2500 154.7500 127.7500 Du        
   5193 ****        99.2500 154.7500 128.0000 Du        
   5194 ****        99.2500 154.7500 128.2500 Du        
   5195 ****        99.2500 154.7500 128.5000 Du        
   5196 ****        99.2500 155.0000 126.2500 Du        
   5197 ****        99.2500 155.0000 126.5000 Du        
   5198 ****        99.2500 155.0000 126.7500 Du        
   5199 ****        99.2500 155.0000 127.0000 Du        
   5200 ****        99.2500 155.0000 127.2500 Du        
   5201 ****        99.2500 155.0000 127.5000 Du        
   5202 ****        99.2500 155.0000 127.7500 Du        
   5203 ****        99.2500 155.0000 128.0000 Du        
   5204 ****        99.2500 155.0000 128.2500 Du        
   5205 ****        99.2500 155.2500 126.0000 Du        
   5206 ****        99.2500 155.2500 126.2500 Du        
   5207 ****        99.2500 155.2500 126.5000 Du        
   5208 ****        99.2500 155.2500 126.7500 Du        
   5209 ****        99.2500 155.2500 127.0000 Du        
   5210 ****        99.2500 155.2500 127.2500 Du        
   5211 ****        99.2500 155.2500 127.5000 Du        
   5212 ****        99.2500 155.2500 127.7500 Du        
   5213 ****        99.2500 155.2500 128.0000 Du        
   5214 ****        99.2500 155.2500 128.2500 Du        
   5215 ****        99.2500 155.5000 125.7500 Du        
   5216 ****        99.2500 155.5000 126.0000 Du        
   5217 ****        99.2500 155.5000 126.2500 Du        
   5218 ****        99.2500 155.5000 126.5000 Du        
   5219 ****        99.2500 155.5000 126.7500 Du        
   5220 ****        99.2500 155.5000 127.0000 Du        
   5221 ****        99.2500 155.5000 127.2500 Du        
   5222 ****        99.2500 155.5000 127.5000 Du        
   5223 ****        99.2500 155.5000 127.7500 Du        
   5224 ****        99.2500 155.5000 128.0000 Du        
   5225 ****        99.2500 155.5000 128.2500 Du        
   5226 ****        99.2500 155.7500 125.7500 Du        
   5227 ****        99.2500 155.7500 126.0000 Du        
   5228 ****        99.2500 155.7500 126.2500 Du        
   5229 ****        99.2500 155.7500 126.5000 Du        
   5230 ****        99.2500 155.7500 126.7500 Du        
   5231 ****        99.2500 155.7500 127.0000 Du        
   5232 ****        99.2500 155.7500 127.2500 Du        
   5233 ****        99.2500 155.7500 127.5000 Du        
   5234 ****        99.2500 155.7500 127.7500 Du        
   5235 ****        99.2500 155.7500 128.0000 Du        
   5236 ****        99.2500 156.0000 125.5000 Du        
   5237 ****        99.2500 156.0000 125.7500 Du        
   5238 ****        99.2500 156.0000 126.0000 Du        
   5239 ****        99.2500 156.0000 126.2500 Du        
   5240 ****        99.2500 156.0000 126.5000 Du        
   5241 ****        99.2500 156.0000 126.7500 Du        
   5242 ****        99.2500 156.0000 127.0000 Du        
   5243 ****        99.2500 156.0000 127.2500 Du        
   5244 ****        99.2500 156.0000 127.5000 Du        
   5245 ****        99.2500 156.0000 127.7500 Du        
   5246 ****        99.2500 156.0000 128.0000 Du        
   5247 ****        99.2500 156.2500 125.7500 Du        
   5248 ****        99.2500 156.2500 126.0000 Du        
   5249 ****        99.2500 156.2500 126.2500 Du        
   5250 ****        99.2500 156.2500 126.5000 Du        
   5251 ****        99.2500 156.2500 126.7500 Du        
   5252 ****        99.2500 156.2500 127.0000 Du        
   5253 ****        99.2500 156.2500 127.2500 Du        
   5254 ****        99.2500 156.2500 127.5000 Du        
   5255 ****        99.2500 156.2500 127.7500 Du        
   5256 ****        99.2500 156.2500 128.0000 Du        
   5257 ****        99.2500 156.5000 126.0000 Du        
   5258 ****        99.2500 156.5000 126.2500 Du        
   5259 ****        99.2500 156.5000 126.5000 Du        
   5260 ****        99.2500 156.5000 126.7500 Du        
   5261 ****        99.2500 156.5000 127.0000 Du        
   5262 ****        99.2500 156.5000 127.2500 Du        
   5263 ****        99.2500 156.5000 127.5000 Du        
   5264 ****        99.2500 156.5000 127.7500 Du        
   5265 ****        99.2500 156.7500 126.2500 Du        
   5266 ****        99.2500 156.7500 126.5000 Du        
   5267 ****        99.2500 156.7500 126.7500 Du        
   5268 ****        99.2500 156.7500 127.0000 Du        
   5269 ****        99.2500 156.7500 127.2500 Du        
   5270 ****        99.5000 149.7500 123.2500 Du        
   5271 ****        99.5000 149.7500 123.5000 Du        
   5272 ****        99.5000 150.0000 123.2500 Du        
   5273 ****        99.5000 150.0000 123.5000 Du        
   5274 ****        99.5000 150.0000 123.7500 Du        
   5275 ****        99.5000 150.0000 124.0000 Du        
   5276 ****        99.5000 150.0000 124.2500 Du        
   5277 ****        99.5000 150.0000 124.5000 Du        
   5278 ****        99.5000 150.2500 123.0000 Du        
   5279 ****        99.5000 150.2500 123.2500 Du        
   5280 ****        99.5000 150.2500 123.5000 Du        
   5281 ****        99.5000 150.2500 123.7500 Du        
   5282 ****        99.5000 150.2500 124.0000 Du        
   5283 ****        99.5000 150.2500 124.2500 Du        
   5284 ****        99.5000 150.2500 124.5000 Du        
   5285 ****        99.5000 150.2500 124.7500 Du        
   5286 ****        99.5000 150.2500 125.0000 Du        
   5287 ****        99.5000 150.5000 123.0000 Du        
   5288 ****        99.5000 150.5000 123.2500 Du        
   5289 ****        99.5000 150.5000 123.5000 Du        
   5290 ****        99.5000 150.5000 123.7500 Du        
   5291 ****        99.5000 150.5000 124.0000 Du        
   5292 ****        99.5000 150.5000 124.2500 Du        
   5293 ****        99.5000 150.5000 124.5000 Du        
   5294 ****        99.5000 150.5000 124.7500 Du        
   5295 ****        99.5000 150.5000 125.0000 Du        
   5296 ****        99.5000 150.5000 125.2500 Du        
   5297 ****        99.5000 150.7500 123.2500 Du        
   5298 ****        99.5000 150.7500 123.5000 Du        
   5299 ****        99.5000 150.7500 123.7500 Du        
   5300 ****        99.5000 150.7500 124.0000 Du        
   5301 ****        99.5000 150.7500 124.2500 Du        
   5302 ****        99.5000 150.7500 124.5000 Du        
   5303 ****        99.5000 150.7500 124.7500 Du        
   5304 ****        99.5000 150.7500 125.0000 Du        
   5305 ****        99.5000 150.7500 125.2500 Du        
   5306 ****        99.5000 150.7500 125.5000 Du        
   5307 ****        99.5000 150.7500 125.7500 Du        
   5308 ****        99.5000 151.0000 123.7500 Du        
   5309 ****        99.5000 151.0000 124.0000 Du        
   5310 ****        99.5000 151.0000 124.2500 Du        
   5311 ****        99.5000 151.0000 124.5000 Du        
   5312 ****        99.5000 151.0000 124.7500 Du        
   5313 ****        99.5000 151.0000 125.0000 Du        
   5314 ****        99.5000 151.0000 125.2500 Du        
   5315 ****        99.5000 151.0000 125.5000 Du        
   5316 ****        99.5000 151.0000 125.7500 Du        
   5317 ****        99.5000 151.0000 126.0000 Du        
   5318 ****        99.5000 151.2500 124.5000 Du        
   5319 ****        99.5000 151.2500 124.7500 Du        
   5320 ****        99.5000 151.2500 125.0000 Du        
   5321 ****        99.5000 151.2500 125.2500 Du        
   5322 ****        99.5000 151.2500 125.5000 Du        
   5323 ****        99.5000 151.2500 125.7500 Du        
   5324 ****        99.5000 151.2500 126.0000 Du        
   5325 ****        99.5000 151.2500 126.2500 Du        
   5326 ****        99.5000 151.2500 126.5000 Du        
   5327 ****        99.5000 151.2500 126.7500 Du        
   5328 ****        99.5000 151.2500 127.0000 Du        
   5329 ****        99.5000 151.2500 127.2500 Du        
   5330 ****        99.5000 151.2500 127.5000 Du        
   5331 ****        99.5000 151.2500 127.7500 Du        
   5332 ****        99.5000 151.2500 128.0000 Du        
   5333 ****        99.5000 151.5000 125.2500 Du        
   5334 ****        99.5000 151.5000 125.5000 Du        
   5335 ****        99.5000 151.5000 125.7500 Du        
   5336 ****        99.5000 151.5000 126.0000 Du        
   5337 ****        99.5000 151.5000 126.2500 Du        
   5338 ****        99.5000 151.5000 126.5000 Du        
   5339 ****        99.5000 151.5000 126.7500 Du        
   5340 ****        99.5000 151.5000 127.0000 Du        
   5341 ****        99.5000 151.5000 127.2500 Du        
   5342 ****        99.5000 151.5000 127.5000 Du        
   5343 ****        99.5000 151.5000 127.7500 Du        
   5344 ****        99.5000 151.5000 128.0000 Du        
   5345 ****        99.5000 151.5000 128.2500 Du        
   5346 ****        99.5000 151.7500 125.5000 Du        
   5347 ****        99.5000 151.7500 125.7500 Du        
   5348 ****        99.5000 151.7500 126.0000 Du        
   5349 ****        99.5000 151.7500 126.2500 Du        
   5350 ****        99.5000 151.7500 126.5000 Du        
   5351 ****        99.5000 151.7500 126.7500 Du        
   5352 ****        99.5000 151.7500 127.0000 Du        
   5353 ****        99.5000 151.7500 127.2500 Du        
   5354 ****        99.5000 151.7500 127.5000 Du        
   5355 ****        99.5000 151.7500 127.7500 Du        
   5356 ****        99.5000 151.7500 128.0000 Du        
   5357 ****        99.5000 152.0000 125.7500 Du        
   5358 ****        99.5000 152.0000 126.0000 Du        
   5359 ****        99.5000 152.0000 126.2500 Du        
   5360 ****        99.5000 152.0000 126.5000 Du        
   5361 ****        99.5000 152.0000 126.7500 Du        
   5362 ****        99.5000 152.0000 127.0000 Du        
   5363 ****        99.5000 152.0000 127.2500 Du        
   5364 ****        99.5000 152.0000 127.5000 Du        
   5365 ****        99.5000 152.0000 127.7500 Du        
   5366 ****        99.5000 152.0000 128.0000 Du        
   5367 ****        99.5000 152.2500 126.0000 Du        
   5368 ****        99.5000 152.2500 126.2500 Du        
   5369 ****        99.5000 152.2500 126.5000 Du        
   5370 ****        99.5000 152.2500 126.7500 Du        
   5371 ****        99.5000 152.2500 127.0000 Du        
   5372 ****        99.5000 152.2500 127.2500 Du        
   5373 ****        99.5000 152.2500 127.5000 Du        
   5374 ****        99.5000 152.2500 127.7500 Du        
   5375 ****        99.5000 152.2500 128.0000 Du        
   5376 ****        99.5000 152.5000 126.2500 Du        
   5377 ****        99.5000 152.5000 126.5000 Du        
   5378 ****        99.5000 152.5000 126.7500 Du        
   5379 ****        99.5000 152.5000 127.0000 Du        
   5380 ****        99.5000 152.5000 127.2500 Du        
   5381 ****        99.5000 152.5000 127.5000 Du        
   5382 ****        99.5000 152.5000 127.7500 Du        
   5383 ****        99.5000 152.5000 128.0000 Du        
   5384 ****        99.5000 152.7500 126.5000 Du        
   5385 ****        99.5000 152.7500 126.7500 Du        
   5386 ****        99.5000 152.7500 127.0000 Du        
   5387 ****        99.5000 152.7500 127.2500 Du        
   5388 ****        99.5000 152.7500 127.5000 Du        
   5389 ****        99.5000 152.7500 127.7500 Du        
   5390 ****        99.5000 152.7500 128.0000 Du        
   5391 ****        99.5000 153.0000 126.5000 Du        
   5392 ****        99.5000 153.0000 126.7500 Du        
   5393 ****        99.5000 153.0000 127.0000 Du        
   5394 ****        99.5000 153.0000 127.2500 Du        
   5395 ****        99.5000 153.0000 127.5000 Du        
   5396 ****        99.5000 153.0000 127.7500 Du        
   5397 ****        99.5000 153.0000 128.0000 Du        
   5398 ****        99.5000 153.0000 128.2500 Du        
   5399 ****        99.5000 153.2500 126.7500 Du        
   5400 ****        99.5000 153.2500 127.0000 Du        
   5401 ****        99.5000 153.2500 127.2500 Du        
   5402 ****        99.5000 153.2500 127.5000 Du        
   5403 ****        99.5000 153.2500 127.7500 Du        
   5404 ****        99.5000 153.2500 128.0000 Du        
   5405 ****        99.5000 153.2500 128.2500 Du        
   5406 ****        99.5000 153.5000 126.7500 Du        
   5407 ****        99.5000 153.5000 127.0000 Du        
   5408 ****        99.5000 153.5000 127.2500 Du        
   5409 ****        99.5000 153.5000 127.5000 Du        
   5410 ****        99.5000 153.5000 127.7500 Du        
   5411 ****        99.5000 153.5000 128.0000 Du        
   5412 ****        99.5000 153.5000 128.2500 Du        
   5413 ****        99.5000 153.7500 126.7500 Du        
   5414 ****        99.5000 153.7500 127.0000 Du        
   5415 ****        99.5000 153.7500 127.2500 Du        
   5416 ****        99.5000 153.7500 127.5000 Du        
   5417 ****        99.5000 153.7500 127.7500 Du        
   5418 ****        99.5000 153.7500 128.0000 Du        
   5419 ****        99.5000 153.7500 128.2500 Du        
   5420 ****        99.5000 153.7500 128.5000 Du        
   5421 ****        99.5000 154.0000 126.7500 Du        
   5422 ****        99.5000 154.0000 127.0000 Du        
   5423 ****        99.5000 154.0000 127.2500 Du        
   5424 ****        99.5000 154.0000 127.5000 Du        
   5425 ****        99.5000 154.0000 127.7500 Du        
   5426 ****        99.5000 154.0000 128.0000 Du        
   5427 ****        99.5000 154.0000 128.2500 Du        
   5428 ****        99.5000 154.0000 128.5000 Du        
   5429 ****        99.5000 154.2500 126.7500 Du        
   5430 ****        99.5000 154.2500 127.0000 Du        
   5431 ****        99.5000 154.2500 127.2500 Du        
   5432 ****        99.5000 154.2500 127.5000 Du        
   5433 ****        99.5000 154.2500 127.7500 Du        
   5434 ****        99.5000 154.2500 128.0000 Du        
   5435 ****        99.5000 154.2500 128.2500 Du        
   5436 ****        99.5000 154.2500 128.5000 Du        
   5437 ****        99.5000 154.5000 126.5000 Du        
   5438 ****        99.5000 154.5000 126.7500 Du        
   5439 ****        99.5000 154.5000 127.0000 Du        
   5440 ****        99.5000 154.5000 127.2500 Du        
   5441 ****        99.5000 154.5000 127.5000 Du        
   5442 ****        99.5000 154.5000 127.7500 Du        
   5443 ****        99.5000 154.5000 128.0000 Du        
   5444 ****        99.5000 154.5000 128.2500 Du        
   5445 ****        99.5000 154.5000 128.5000 Du        
   5446 ****        99.5000 154.7500 126.5000 Du        
   5447 ****        99.5000 154.7500 126.7500 Du        
   5448 ****        99.5000 154.7500 127.0000 Du        
   5449 ****        99.5000 154.7500 127.2500 Du        
   5450 ****        99.5000 154.7500 127.5000 Du        
   5451 ****        99.5000 154.7500 127.7500 Du        
   5452 ****        99.5000 154.7500 128.0000 Du        
   5453 ****        99.5000 154.7500 128.2500 Du        
   5454 ****        99.5000 154.7500 128.5000 Du        
   5455 ****        99.5000 155.0000 126.2500 Du        
   5456 ****        99.5000 155.0000 126.5000 Du        
   5457 ****        99.5000 155.0000 126.7500 Du        
   5458 ****        99.5000 155.0000 127.0000 Du        
   5459 ****        99.5000 155.0000 127.2500 Du        
   5460 ****        99.5000 155.0000 127.5000 Du        
   5461 ****        99.5000 155.0000 127.7500 Du        
   5462 ****        99.5000 155.0000 128.0000 Du        
   5463 ****        99.5000 155.0000 128.2500 Du        
   5464 ****        99.5000 155.0000 128.5000 Du        
   5465 ****        99.5000 155.2500 126.2500 Du        
   5466 ****        99.5000 155.2500 126.5000 Du        
   5467 ****        99.5000 155.2500 126.7500 Du        
   5468 ****        99.5000 155.2500 127.0000 Du        
   5469 ****        99.5000 155.2500 127.2500 Du        
   5470 ****        99.5000 155.2500 127.5000 Du        
   5471 ****        99.5000 155.2500 127.7500 Du        
   5472 ****        99.5000 155.2500 128.0000 Du        
   5473 ****        99.5000 155.2500 128.2500 Du        
   5474 ****        99.5000 155.5000 126.0000 Du        
   5475 ****        99.5000 155.5000 126.2500 Du        
   5476 ****        99.5000 155.5000 126.5000 Du        
   5477 ****        99.5000 155.5000 126.7500 Du        
   5478 ****        99.5000 155.5000 127.0000 Du        
   5479 ****        99.5000 155.5000 127.2500 Du        
   5480 ****        99.5000 155.5000 127.5000 Du        
   5481 ****        99.5000 155.5000 127.7500 Du        
   5482 ****        99.5000 155.5000 128.0000 Du        
   5483 ****        99.5000 155.5000 128.2500 Du        
   5484 ****        99.5000 155.7500 125.7500 Du        
   5485 ****        99.5000 155.7500 126.0000 Du        
   5486 ****        99.5000 155.7500 126.2500 Du        
   5487 ****        99.5000 155.7500 126.5000 Du        
   5488 ****        99.5000 155.7500 126.7500 Du        
   5489 ****        99.5000 155.7500 127.0000 Du        
   5490 ****        99.5000 155.7500 127.2500 Du        
   5491 ****        99.5000 155.7500 127.5000 Du        
   5492 ****        99.5000 155.7500 127.7500 Du        
   5493 ****        99.5000 155.7500 128.0000 Du        
   5494 ****        99.5000 155.7500 128.2500 Du        
   5495 ****        99.5000 156.0000 125.5000 Du        
   5496 ****        99.5000 156.0000 125.7500 Du        
   5497 ****        99.5000 156.0000 126.0000 Du        
   5498 ****        99.5000 156.0000 126.2500 Du        
   5499 ****        99.5000 156.0000 126.5000 Du        
   5500 ****        99.5000 156.0000 126.7500 Du        
   5501 ****        99.5000 156.0000 127.0000 Du        
   5502 ****        99.5000 156.0000 127.2500 Du        
   5503 ****        99.5000 156.0000 127.5000 Du        
   5504 ****        99.5000 156.0000 127.7500 Du        
   5505 ****        99.5000 156.0000 128.0000 Du        
   5506 ****        99.5000 156.2500 125.7500 Du        
   5507 ****        99.5000 156.2500 126.0000 Du        
   5508 ****        99.5000 156.2500 126.2500 Du        
   5509 ****        99.5000 156.2500 126.5000 Du        
   5510 ****        99.5000 156.2500 126.7500 Du        
   5511 ****        99.5000 156.2500 127.0000 Du        
   5512 ****        99.5000 156.2500 127.2500 Du        
   5513 ****        99.5000 156.2500 127.5000 Du        
   5514 ****        99.5000 156.2500 127.7500 Du        
   5515 ****        99.5000 156.2500 128.0000 Du        
   5516 ****        99.5000 156.5000 126.0000 Du        
   5517 ****        99.5000 156.5000 126.2500 Du        
   5518 ****        99.5000 156.5000 126.5000 Du        
   5519 ****        99.5000 156.5000 126.7500 Du        
   5520 ****        99.5000 156.5000 127.0000 Du        
   5521 ****        99.5000 156.5000 127.2500 Du        
   5522 ****        99.5000 156.5000 127.5000 Du        
   5523 ****        99.5000 156.5000 127.7500 Du        
   5524 ****        99.5000 156.5000 128.0000 Du        
   5525 ****        99.5000 156.7500 126.5000 Du        
   5526 ****        99.5000 156.7500 126.7500 Du        
   5527 ****        99.5000 156.7500 127.0000 Du        
   5528 ****        99.5000 156.7500 127.2500 Du        
   5529 ****        99.5000 156.7500 127.5000 Du        
   5530 ****        99.5000 156.7500 127.7500 Du        
   5531 ****        99.7500 150.0000 123.2500 Du        
   5532 ****        99.7500 150.0000 123.5000 Du        
   5533 ****        99.7500 150.0000 123.7500 Du        
   5534 ****        99.7500 150.0000 124.0000 Du        
   5535 ****        99.7500 150.0000 124.2500 Du        
   5536 ****        99.7500 150.0000 124.5000 Du        
   5537 ****        99.7500 150.2500 123.2500 Du        
   5538 ****        99.7500 150.2500 123.5000 Du        
   5539 ****        99.7500 150.2500 123.7500 Du        
   5540 ****        99.7500 150.2500 124.0000 Du        
   5541 ****        99.7500 150.2500 124.2500 Du        
   5542 ****        99.7500 150.2500 124.5000 Du        
   5543 ****        99.7500 150.2500 124.7500 Du        
   5544 ****        99.7500 150.2500 125.0000 Du        
   5545 ****        99.7500 150.5000 123.2500 Du        
   5546 ****        99.7500 150.5000 123.5000 Du        
   5547 ****        99.7500 150.5000 123.7500 Du        
   5548 ****        99.7500 150.5000 124.0000 Du        
   5549 ****        99.7500 150.5000 124.2500 Du        
   5550 ****        99.7500 150.5000 124.5000 Du        
   5551 ****        99.7500 150.5000 124.7500 Du        
   5552 ****        99.7500 150.5000 125.0000 Du        
   5553 ****        99.7500 150.5000 125.2500 Du        
   5554 ****        99.7500 150.7500 123.5000 Du        
   5555 ****        99.7500 150.7500 123.7500 Du        
   5556 ****        99.7500 150.7500 124.0000 Du        
   5557 ****        99.7500 150.7500 124.2500 Du        
   5558 ****        99.7500 150.7500 124.5000 Du        
   5559 ****        99.7500 150.7500 124.7500 Du        
   5560 ****        99.7500 150.7500 125.0000 Du        
   5561 ****        99.7500 150.7500 125.2500 Du        
   5562 ****        99.7500 150.7500 125.5000 Du        
   5563 ****        99.7500 150.7500 125.7500 Du        
   5564 ****        99.7500 151.0000 123.7500 Du        
   5565 ****        99.7500 151.0000 124.0000 Du        
   5566 ****        99.7500 151.0000 124.2500 Du        
   5567 ****        99.7500 151.0000 124.5000 Du        
   5568 ****        99.7500 151.0000 124.7500 Du        
   5569 ****        99.7500 151.0000 125.0000 Du        
   5570 ****        99.7500 151.0000 125.2500 Du        
   5571 ****        99.7500 151.0000 125.5000 Du        
   5572 ****        99.7500 151.0000 125.7500 Du        
   5573 ****        99.7500 151.0000 126.0000 Du        
   5574 ****        99.7500 151.2500 124.2500 Du        
   5575 ****        99.7500 151.2500 124.5000 Du        
   5576 ****        99.7500 151.2500 124.7500 Du        
   5577 ****        99.7500 151.2500 125.0000 Du        
   5578 ****        99.7500 151.2500 125.2500 Du        
   5579 ****        99.7500 151.2500 125.5000 Du        
   5580 ****        99.7500 151.2500 125.7500 Du        
   5581 ****        99.7500 151.2500 126.0000 Du        
   5582 ****        99.7500 151.2500 126.2500 Du        
   5583 ****        99.7500 151.2500 126.5000 Du        
   5584 ****        99.7500 151.2500 126.7500 Du        
   5585 ****        99.7500 151.2500 127.0000 Du        
   5586 ****        99.7500 151.2500 127.2500 Du        
   5587 ****        99.7500 151.2500 127.5000 Du        
   5588 ****        99.7500 151.2500 127.7500 Du        
   5589 ****        99.7500 151.2500 128.0000 Du        
   5590 ****        99.7500 151.5000 125.0000 Du        
   5591 ****        99.7500 151.5000 125.2500 Du        
   5592 ****        99.7500 151.5000 125.5000 Du        
   5593 ****        99.7500 151.5000 125.7500 Du        
   5594 ****        99.7500 151.5000 126.0000 Du        
   5595 ****        99.7500 151.5000 126.2500 Du        
   5596 ****        99.7500 151.5000 126.5000 Du        
   5597 ****        99.7500 151.5000 126.7500 Du        
   5598 ****        99.7500 151.5000 127.0000 Du        
   5599 ****        99.7500 151.5000 127.2500 Du        
   5600 ****        99.7500 151.5000 127.5000 Du        
   5601 ****        99.7500 151.5000 127.7500 Du        
   5602 ****        99.7500 151.5000 128.0000 Du        
   5603 ****        99.7500 151.5000 128.2500 Du        
   5604 ****        99.7500 151.7500 125.5000 Du        
   5605 ****        99.7500 151.7500 125.7500 Du        
   5606 ****        99.7500 151.7500 126.0000 Du        
   5607 ****        99.7500 151.7500 126.2500 Du        
   5608 ****        99.7500 151.7500 126.5000 Du        
   5609 ****        99.7500 151.7500 126.7500 Du        
   5610 ****        99.7500 151.7500 127.0000 Du        
   5611 ****        99.7500 151.7500 127.2500 Du        
   5612 ****        99.7500 151.7500 127.5000 Du        
   5613 ****        99.7500 151.7500 127.7500 Du        
   5614 ****        99.7500 151.7500 128.0000 Du        
   5615 ****        99.7500 151.7500 128.2500 Du        
   5616 ****        99.7500 152.0000 125.7500 Du        
   5617 ****        99.7500 152.0000 126.0000 Du        
   5618 ****        99.7500 152.0000 126.2500 Du        
   5619 ****        99.7500 152.0000 126.5000 Du        
   5620 ****        99.7500 152.0000 126.7500 Du        
   5621 ****        99.7500 152.0000 127.0000 Du        
   5622 ****        99.7500 152.0000 127.2500 Du        
   5623 ****        99.7500 152.0000 127.5000 Du        
   5624 ****        99.7500 152.0000 127.7500 Du        
   5625 ****        99.7500 152.0000 128.0000 Du        
   5626 ****        99.7500 152.0000 128.2500 Du        
   5627 ****        99.7500 152.2500 125.7500 Du        
   5628 ****        99.7500 152.2500 126.0000 Du        
   5629 ****        99.7500 152.2500 126.2500 Du        
   5630 ****        99.7500 152.2500 126.5000 Du        
   5631 ****        99.7500 152.2500 126.7500 Du        
   5632 ****        99.7500 152.2500 127.0000 Du        
   5633 ****        99.7500 152.2500 127.2500 Du        
   5634 ****        99.7500 152.2500 127.5000 Du        
   5635 ****        99.7500 152.2500 127.7500 Du        
   5636 ****        99.7500 152.2500 128.0000 Du        
   5637 ****        99.7500 152.5000 126.2500 Du        
   5638 ****        99.7500 152.5000 126.5000 Du        
   5639 ****        99.7500 152.5000 126.7500 Du        
   5640 ****        99.7500 152.5000 127.0000 Du        
   5641 ****        99.7500 152.5000 127.2500 Du        
   5642 ****        99.7500 152.5000 127.5000 Du        
   5643 ****        99.7500 152.5000 127.7500 Du        
   5644 ****        99.7500 152.5000 128.0000 Du        
   5645 ****        99.7500 152.7500 126.2500 Du        
   5646 ****        99.7500 152.7500 126.5000 Du        
   5647 ****        99.7500 152.7500 126.7500 Du        
   5648 ****        99.7500 152.7500 127.0000 Du        
   5649 ****        99.7500 152.7500 127.2500 Du        
   5650 ****        99.7500 152.7500 127.5000 Du        
   5651 ****        99.7500 152.7500 127.7500 Du        
   5652 ****        99.7500 152.7500 128.0000 Du        
   5653 ****        99.7500 153.0000 126.5000 Du        
   5654 ****        99.7500 153.0000 126.7500 Du        
   5655 ****        99.7500 153.0000 127.0000 Du        
   5656 ****        99.7500 153.0000 127.2500 Du        
   5657 ****        99.7500 153.0000 127.5000 Du        
   5658 ****        99.7500 153.0000 127.7500 Du        
   5659 ****        99.7500 153.0000 128.0000 Du        
   5660 ****        99.7500 153.0000 128.2500 Du        
   5661 ****        99.7500 153.2500 126.5000 Du        
   5662 ****        99.7500 153.2500 126.7500 Du        
   5663 ****        99.7500 153.2500 127.0000 Du        
   5664 ****        99.7500 153.2500 127.2500 Du        
   5665 ****        99.7500 153.2500 127.5000 Du        
   5666 ****        99.7500 153.2500 127.7500 Du        
   5667 ****        99.7500 153.2500 128.0000 Du        
   5668 ****        99.7500 153.2500 128.2500 Du        
   5669 ****        99.7500 153.5000 126.5000 Du        
   5670 ****        99.7500 153.5000 126.7500 Du        
   5671 ****        99.7500 153.5000 127.0000 Du        
   5672 ****        99.7500 153.5000 127.2500 Du        
   5673 ****        99.7500 153.5000 127.5000 Du        
   5674 ****        99.7500 153.5000 127.7500 Du        
   5675 ****        99.7500 153.5000 128.0000 Du        
   5676 ****        99.7500 153.5000 128.2500 Du        
   5677 ****        99.7500 153.7500 126.5000 Du        
   5678 ****        99.7500 153.7500 126.7500 Du        
   5679 ****        99.7500 153.7500 127.0000 Du        
   5680 ****        99.7500 153.7500 127.2500 Du        
   5681 ****        99.7500 153.7500 127.5000 Du        
   5682 ****        99.7500 153.7500 127.7500 Du        
   5683 ****        99.7500 153.7500 128.0000 Du        
   5684 ****        99.7500 153.7500 128.2500 Du        
   5685 ****        99.7500 153.7500 128.5000 Du        
   5686 ****        99.7500 154.0000 126.7500 Du        
   5687 ****        99.7500 154.0000 127.0000 Du        
   5688 ****        99.7500 154.0000 127.2500 Du        
   5689 ****        99.7500 154.0000 127.5000 Du        
   5690 ****        99.7500 154.0000 127.7500 Du        
   5691 ****        99.7500 154.0000 128.0000 Du        
   5692 ****        99.7500 154.0000 128.2500 Du        
   5693 ****        99.7500 154.0000 128.5000 Du        
   5694 ****        99.7500 154.2500 126.7500 Du        
   5695 ****        99.7500 154.2500 127.0000 Du        
   5696 ****        99.7500 154.2500 127.2500 Du        
   5697 ****        99.7500 154.2500 127.5000 Du        
   5698 ****        99.7500 154.2500 127.7500 Du        
   5699 ****        99.7500 154.2500 128.0000 Du        
   5700 ****        99.7500 154.2500 128.2500 Du        
   5701 ****        99.7500 154.2500 128.5000 Du        
   5702 ****        99.7500 154.2500 128.7500 Du        
   5703 ****        99.7500 154.5000 126.7500 Du        
   5704 ****        99.7500 154.5000 127.0000 Du        
   5705 ****        99.7500 154.5000 127.2500 Du        
   5706 ****        99.7500 154.5000 127.5000 Du        
   5707 ****        99.7500 154.5000 127.7500 Du        
   5708 ****        99.7500 154.5000 128.0000 Du        
   5709 ****        99.7500 154.5000 128.2500 Du        
   5710 ****        99.7500 154.5000 128.5000 Du        
   5711 ****        99.7500 154.5000 128.7500 Du        
   5712 ****        99.7500 154.7500 126.5000 Du        
   5713 ****        99.7500 154.7500 126.7500 Du        
   5714 ****        99.7500 154.7500 127.0000 Du        
   5715 ****        99.7500 154.7500 127.2500 Du        
   5716 ****        99.7500 154.7500 127.5000 Du        
   5717 ****        99.7500 154.7500 127.7500 Du        
   5718 ****        99.7500 154.7500 128.0000 Du        
   5719 ****        99.7500 154.7500 128.2500 Du        
   5720 ****        99.7500 154.7500 128.5000 Du        
   5721 ****        99.7500 154.7500 128.7500 Du        
   5722 ****        99.7500 155.0000 126.2500 Du        
   5723 ****        99.7500 155.0000 126.5000 Du        
   5724 ****        99.7500 155.0000 126.7500 Du        
   5725 ****        99.7500 155.0000 127.0000 Du        
   5726 ****        99.7500 155.0000 127.2500 Du        
   5727 ****        99.7500 155.0000 127.5000 Du        
   5728 ****        99.7500 155.0000 127.7500 Du        
   5729 ****        99.7500 155.0000 128.0000 Du        
   5730 ****        99.7500 155.0000 128.2500 Du        
   5731 ****        99.7500 155.0000 128.5000 Du        
   5732 ****        99.7500 155.2500 126.2500 Du        
   5733 ****        99.7500 155.2500 126.5000 Du        
   5734 ****        99.7500 155.2500 126.7500 Du        
   5735 ****        99.7500 155.2500 127.0000 Du        
   5736 ****        99.7500 155.2500 127.2500 Du        
   5737 ****        99.7500 155.2500 127.5000 Du        
   5738 ****        99.7500 155.2500 127.7500 Du        
   5739 ****        99.7500 155.2500 128.0000 Du        
   5740 ****        99.7500 155.2500 128.2500 Du        
   5741 ****        99.7500 155.2500 128.5000 Du        
   5742 ****        99.7500 155.5000 125.7500 Du        
   5743 ****        99.7500 155.5000 126.0000 Du        
   5744 ****        99.7500 155.5000 126.2500 Du        
   5745 ****        99.7500 155.5000 126.5000 Du        
   5746 ****        99.7500 155.5000 126.7500 Du        
   5747 ****        99.7500 155.5000 127.0000 Du        
   5748 ****        99.7500 155.5000 127.2500 Du        
   5749 ****        99.7500 155.5000 127.5000 Du        
   5750 ****        99.7500 155.5000 127.7500 Du        
   5751 ****        99.7500 155.5000 128.0000 Du        
   5752 ****        99.7500 155.5000 128.2500 Du        
   5753 ****        99.7500 155.7500 125.7500 Du        
   5754 ****        99.7500 155.7500 126.0000 Du        
   5755 ****        99.7500 155.7500 126.2500 Du        
   5756 ****        99.7500 155.7500 126.5000 Du        
   5757 ****        99.7500 155.7500 126.7500 Du        
   5758 ****        99.7500 155.7500 127.0000 Du        
   5759 ****        99.7500 155.7500 127.2500 Du        
   5760 ****        99.7500 155.7500 127.5000 Du        
   5761 ****        99.7500 155.7500 127.7500 Du        
   5762 ****        99.7500 155.7500 128.0000 Du        
   5763 ****        99.7500 155.7500 128.2500 Du        
   5764 ****        99.7500 156.0000 125.7500 Du        
   5765 ****        99.7500 156.0000 126.0000 Du        
   5766 ****        99.7500 156.0000 126.2500 Du        
   5767 ****        99.7500 156.0000 126.5000 Du        
   5768 ****        99.7500 156.0000 126.7500 Du        
   5769 ****        99.7500 156.0000 127.0000 Du        
   5770 ****        99.7500 156.0000 127.2500 Du        
   5771 ****        99.7500 156.0000 127.5000 Du        
   5772 ****        99.7500 156.0000 127.7500 Du        
   5773 ****        99.7500 156.0000 128.0000 Du        
   5774 ****        99.7500 156.0000 128.2500 Du        
   5775 ****        99.7500 156.2500 125.7500 Du        
   5776 ****        99.7500 156.2500 126.0000 Du        
   5777 ****        99.7500 156.2500 126.2500 Du        
   5778 ****        99.7500 156.2500 126.5000 Du        
   5779 ****        99.7500 156.2500 126.7500 Du        
   5780 ****        99.7500 156.2500 127.0000 Du        
   5781 ****        99.7500 156.2500 127.2500 Du        
   5782 ****        99.7500 156.2500 127.5000 Du        
   5783 ****        99.7500 156.2500 127.7500 Du        
   5784 ****        99.7500 156.2500 128.0000 Du        
   5785 ****        99.7500 156.2500 128.2500 Du        
   5786 ****        99.7500 156.5000 126.0000 Du        
   5787 ****        99.7500 156.5000 126.2500 Du        
   5788 ****        99.7500 156.5000 126.5000 Du        
   5789 ****        99.7500 156.5000 126.7500 Du        
   5790 ****        99.7500 156.5000 127.0000 Du        
   5791 ****        99.7500 156.5000 127.2500 Du        
   5792 ****        99.7500 156.5000 127.5000 Du        
   5793 ****        99.7500 156.5000 127.7500 Du        
   5794 ****        99.7500 156.5000 128.0000 Du        
   5795 ****        99.7500 156.5000 128.2500 Du        
   5796 ****        99.7500 156.7500 126.5000 Du        
   5797 ****        99.7500 156.7500 126.7500 Du        
   5798 ****        99.7500 156.7500 127.0000 Du        
   5799 ****        99.7500 156.7500 127.2500 Du        
   5800 ****        99.7500 156.7500 127.5000 Du        
   5801 ****        99.7500 156.7500 127.7500 Du        
   5802 ****        99.7500 156.7500 128.0000 Du        
   5803 ****        99.7500 157.0000 126.7500 Du        
   5804 ****        99.7500 157.0000 127.0000 Du        
   5805 ****        99.7500 157.0000 127.2500 Du        
   5806 ****        99.7500 157.0000 127.5000 Du        
   5807 ****        99.7500 157.0000 127.7500 Du        
   5808 ****       100.0000 135.5000 137.2500 Du        
   5809 ****       100.0000 135.7500 137.0000 Du        
   5810 ****       100.0000 136.0000 136.5000 Du        
   5811 ****       100.0000 136.0000 136.7500 Du        
   5812 ****       100.0000 150.0000 123.7500 Du        
   5813 ****       100.0000 150.0000 124.0000 Du        
   5814 ****       100.0000 150.0000 124.2500 Du        
   5815 ****       100.0000 150.0000 124.5000 Du        
   5816 ****       100.0000 150.0000 124.7500 Du        
   5817 ****       100.0000 150.2500 123.5000 Du        
   5818 ****       100.0000 150.2500 123.7500 Du        
   5819 ****       100.0000 150.2500 124.0000 Du        
   5820 ****       100.0000 150.2500 124.2500 Du        
   5821 ****       100.0000 150.2500 124.5000 Du        
   5822 ****       100.0000 150.2500 124.7500 Du        
   5823 ****       100.0000 150.2500 125.0000 Du        
   5824 ****       100.0000 150.5000 123.5000 Du        
   5825 ****       100.0000 150.5000 123.7500 Du        
   5826 ****       100.0000 150.5000 124.0000 Du        
   5827 ****       100.0000 150.5000 124.2500 Du        
   5828 ****       100.0000 150.5000 124.5000 Du        
   5829 ****       100.0000 150.5000 124.7500 Du        
   5830 ****       100.0000 150.5000 125.0000 Du        
   5831 ****       100.0000 150.5000 125.2500 Du        
   5832 ****       100.0000 150.7500 123.7500 Du        
   5833 ****       100.0000 150.7500 124.0000 Du        
   5834 ****       100.0000 150.7500 124.2500 Du        
   5835 ****       100.0000 150.7500 124.5000 Du        
   5836 ****       100.0000 150.7500 124.7500 Du        
   5837 ****       100.0000 150.7500 125.0000 Du        
   5838 ****       100.0000 150.7500 125.2500 Du        
   5839 ****       100.0000 150.7500 125.5000 Du        
   5840 ****       100.0000 150.7500 125.7500 Du        
   5841 ****       100.0000 151.0000 123.7500 Du        
   5842 ****       100.0000 151.0000 124.0000 Du        
   5843 ****       100.0000 151.0000 124.2500 Du        
   5844 ****       100.0000 151.0000 124.5000 Du        
   5845 ****       100.0000 151.0000 124.7500 Du        
   5846 ****       100.0000 151.0000 125.0000 Du        
   5847 ****       100.0000 151.0000 125.2500 Du        
   5848 ****       100.0000 151.0000 125.5000 Du        
   5849 ****       100.0000 151.0000 125.7500 Du        
   5850 ****       100.0000 151.0000 126.0000 Du        
   5851 ****       100.0000 151.2500 124.0000 Du        
   5852 ****       100.0000 151.2500 124.2500 Du        
   5853 ****       100.0000 151.2500 124.5000 Du        
   5854 ****       100.0000 151.2500 124.7500 Du        
   5855 ****       100.0000 151.2500 125.0000 Du        
   5856 ****       100.0000 151.2500 125.2500 Du        
   5857 ****       100.0000 151.2500 125.5000 Du        
   5858 ****       100.0000 151.2500 125.7500 Du        
   5859 ****       100.0000 151.2500 126.0000 Du        
   5860 ****       100.0000 151.2500 126.2500 Du        
   5861 ****       100.0000 151.2500 126.5000 Du        
   5862 ****       100.0000 151.5000 124.7500 Du        
   5863 ****       100.0000 151.5000 125.0000 Du        
   5864 ****       100.0000 151.5000 125.2500 Du        
   5865 ****       100.0000 151.5000 125.5000 Du        
   5866 ****       100.0000 151.5000 125.7500 Du        
   5867 ****       100.0000 151.5000 126.0000 Du        
   5868 ****       100.0000 151.5000 126.2500 Du        
   5869 ****       100.0000 151.5000 126.5000 Du        
   5870 ****       100.0000 151.5000 126.7500 Du        
   5871 ****       100.0000 151.5000 127.0000 Du        
   5872 ****       100.0000 151.5000 127.2500 Du        
   5873 ****       100.0000 151.5000 127.5000 Du        
   5874 ****       100.0000 151.5000 127.7500 Du        
   5875 ****       100.0000 151.5000 128.0000 Du        
   5876 ****       100.0000 151.7500 125.2500 Du        
   5877 ****       100.0000 151.7500 125.5000 Du        
   5878 ****       100.0000 151.7500 125.7500 Du        
   5879 ****       100.0000 151.7500 126.0000 Du        
   5880 ****       100.0000 151.7500 126.2500 Du        
   5881 ****       100.0000 151.7500 126.5000 Du        
   5882 ****       100.0000 151.7500 126.7500 Du        
   5883 ****       100.0000 151.7500 127.0000 Du        
   5884 ****       100.0000 151.7500 127.2500 Du        
   5885 ****       100.0000 151.7500 127.5000 Du        
   5886 ****       100.0000 151.7500 127.7500 Du        
   5887 ****       100.0000 151.7500 128.0000 Du        
   5888 ****       100.0000 152.0000 125.5000 Du        
   5889 ****       100.0000 152.0000 125.7500 Du        
   5890 ****       100.0000 152.0000 126.0000 Du        
   5891 ****       100.0000 152.0000 126.2500 Du        
   5892 ****       100.0000 152.0000 126.5000 Du        
   5893 ****       100.0000 152.0000 126.7500 Du        
   5894 ****       100.0000 152.0000 127.0000 Du        
   5895 ****       100.0000 152.0000 127.2500 Du        
   5896 ****       100.0000 152.0000 127.5000 Du        
   5897 ****       100.0000 152.0000 127.7500 Du        
   5898 ****       100.0000 152.0000 128.0000 Du        
   5899 ****       100.0000 152.2500 125.7500 Du        
   5900 ****       100.0000 152.2500 126.0000 Du        
   5901 ****       100.0000 152.2500 126.2500 Du        
   5902 ****       100.0000 152.2500 126.5000 Du        
   5903 ****       100.0000 152.2500 126.7500 Du        
   5904 ****       100.0000 152.2500 127.0000 Du        
   5905 ****       100.0000 152.2500 127.2500 Du        
   5906 ****       100.0000 152.2500 127.5000 Du        
   5907 ****       100.0000 152.2500 127.7500 Du        
   5908 ****       100.0000 152.2500 128.0000 Du        
   5909 ****       100.0000 152.5000 126.0000 Du        
   5910 ****       100.0000 152.5000 126.2500 Du        
   5911 ****       100.0000 152.5000 126.5000 Du        
   5912 ****       100.0000 152.5000 126.7500 Du        
   5913 ****       100.0000 152.5000 127.0000 Du        
   5914 ****       100.0000 152.5000 127.2500 Du        
   5915 ****       100.0000 152.5000 127.5000 Du        
   5916 ****       100.0000 152.5000 127.7500 Du        
   5917 ****       100.0000 152.5000 128.0000 Du        
   5918 ****       100.0000 152.7500 126.2500 Du        
   5919 ****       100.0000 152.7500 126.5000 Du        
   5920 ****       100.0000 152.7500 126.7500 Du        
   5921 ****       100.0000 152.7500 127.0000 Du        
   5922 ****       100.0000 152.7500 127.2500 Du        
   5923 ****       100.0000 152.7500 127.5000 Du        
   5924 ****       100.0000 152.7500 127.7500 Du        
   5925 ****       100.0000 152.7500 128.0000 Du        
   5926 ****       100.0000 153.0000 126.2500 Du        
   5927 ****       100.0000 153.0000 126.5000 Du        
   5928 ****       100.0000 153.0000 126.7500 Du        
   5929 ****       100.0000 153.0000 127.0000 Du        
   5930 ****       100.0000 153.0000 127.2500 Du        
   5931 ****       100.0000 153.0000 127.5000 Du        
   5932 ****       100.0000 153.0000 127.7500 Du        
   5933 ****       100.0000 153.0000 128.0000 Du        
   5934 ****       100.0000 153.0000 128.2500 Du        
   5935 ****       100.0000 153.2500 126.5000 Du        
   5936 ****       100.0000 153.2500 126.7500 Du        
   5937 ****       100.0000 153.2500 127.0000 Du        
   5938 ****       100.0000 153.2500 127.2500 Du        
   5939 ****       100.0000 153.2500 127.5000 Du        
   5940 ****       100.0000 153.2500 127.7500 Du        
   5941 ****       100.0000 153.2500 128.0000 Du        
   5942 ****       100.0000 153.2500 128.2500 Du        
   5943 ****       100.0000 153.5000 126.5000 Du        
   5944 ****       100.0000 153.5000 126.7500 Du        
   5945 ****       100.0000 153.5000 127.0000 Du        
   5946 ****       100.0000 153.5000 127.2500 Du        
   5947 ****       100.0000 153.5000 127.5000 Du        
   5948 ****       100.0000 153.5000 127.7500 Du        
   5949 ****       100.0000 153.5000 128.0000 Du        
   5950 ****       100.0000 153.5000 128.2500 Du        
   5951 ****       100.0000 153.7500 126.5000 Du        
   5952 ****       100.0000 153.7500 126.7500 Du        
   5953 ****       100.0000 153.7500 127.0000 Du        
   5954 ****       100.0000 153.7500 127.2500 Du        
   5955 ****       100.0000 153.7500 127.5000 Du        
   5956 ****       100.0000 153.7500 127.7500 Du        
   5957 ****       100.0000 153.7500 128.0000 Du        
   5958 ****       100.0000 153.7500 128.2500 Du        
   5959 ****       100.0000 153.7500 128.5000 Du        
   5960 ****       100.0000 154.0000 126.7500 Du        
   5961 ****       100.0000 154.0000 127.0000 Du        
   5962 ****       100.0000 154.0000 127.2500 Du        
   5963 ****       100.0000 154.0000 127.5000 Du        
   5964 ****       100.0000 154.0000 127.7500 Du        
   5965 ****       100.0000 154.0000 128.0000 Du        
   5966 ****       100.0000 154.0000 128.2500 Du        
   5967 ****       100.0000 154.0000 128.5000 Du        
   5968 ****       100.0000 154.2500 126.7500 Du        
   5969 ****       100.0000 154.2500 127.0000 Du        
   5970 ****       100.0000 154.2500 127.2500 Du        
   5971 ****       100.0000 154.2500 127.5000 Du        
   5972 ****       100.0000 154.2500 127.7500 Du        
   5973 ****       100.0000 154.2500 128.0000 Du        
   5974 ****       100.0000 154.2500 128.2500 Du        
   5975 ****       100.0000 154.2500 128.5000 Du        
   5976 ****       100.0000 154.2500 128.7500 Du        
   5977 ****       100.0000 154.5000 126.7500 Du        
   5978 ****       100.0000 154.5000 127.0000 Du        
   5979 ****       100.0000 154.5000 127.2500 Du        
   5980 ****       100.0000 154.5000 127.5000 Du        
   5981 ****       100.0000 154.5000 127.7500 Du        
   5982 ****       100.0000 154.5000 128.0000 Du        
   5983 ****       100.0000 154.5000 128.2500 Du        
   5984 ****       100.0000 154.5000 128.5000 Du        
   5985 ****       100.0000 154.5000 128.7500 Du        
   5986 ****       100.0000 154.7500 126.7500 Du        
   5987 ****       100.0000 154.7500 127.0000 Du        
   5988 ****       100.0000 154.7500 127.2500 Du        
   5989 ****       100.0000 154.7500 127.5000 Du        
   5990 ****       100.0000 154.7500 127.7500 Du        
   5991 ****       100.0000 154.7500 128.0000 Du        
   5992 ****       100.0000 154.7500 128.2500 Du        
   5993 ****       100.0000 154.7500 128.5000 Du        
   5994 ****       100.0000 154.7500 128.7500 Du        
   5995 ****       100.0000 155.0000 126.2500 Du        
   5996 ****       100.0000 155.0000 126.5000 Du        
   5997 ****       100.0000 155.0000 126.7500 Du        
   5998 ****       100.0000 155.0000 127.0000 Du        
   5999 ****       100.0000 155.0000 127.2500 Du        
   6000 ****       100.0000 155.0000 127.5000 Du        
   6001 ****       100.0000 155.0000 127.7500 Du        
   6002 ****       100.0000 155.0000 128.0000 Du        
   6003 ****       100.0000 155.0000 128.2500 Du        
   6004 ****       100.0000 155.0000 128.5000 Du        
   6005 ****       100.0000 155.0000 128.7500 Du        
   6006 ****       100.0000 155.2500 126.0000 Du        
   6007 ****       100.0000 155.2500 126.2500 Du        
   6008 ****       100.0000 155.2500 126.5000 Du        
   6009 ****       100.0000 155.2500 126.7500 Du        
   6010 ****       100.0000 155.2500 127.0000 Du        
   6011 ****       100.0000 155.2500 127.2500 Du        
   6012 ****       100.0000 155.2500 127.5000 Du        
   6013 ****       100.0000 155.2500 127.7500 Du        
   6014 ****       100.0000 155.2500 128.0000 Du        
   6015 ****       100.0000 155.2500 128.2500 Du        
   6016 ****       100.0000 155.2500 128.5000 Du        
   6017 ****       100.0000 155.5000 126.0000 Du        
   6018 ****       100.0000 155.5000 126.2500 Du        
   6019 ****       100.0000 155.5000 126.5000 Du        
   6020 ****       100.0000 155.5000 126.7500 Du        
   6021 ****       100.0000 155.5000 127.0000 Du        
   6022 ****       100.0000 155.5000 127.2500 Du        
   6023 ****       100.0000 155.5000 127.5000 Du        
   6024 ****       100.0000 155.5000 127.7500 Du        
   6025 ****       100.0000 155.5000 128.0000 Du        
   6026 ****       100.0000 155.5000 128.2500 Du        
   6027 ****       100.0000 155.5000 128.5000 Du        
   6028 ****       100.0000 155.7500 125.7500 Du        
   6029 ****       100.0000 155.7500 126.0000 Du        
   6030 ****       100.0000 155.7500 126.2500 Du        
   6031 ****       100.0000 155.7500 126.5000 Du        
   6032 ****       100.0000 155.7500 126.7500 Du        
   6033 ****       100.0000 155.7500 127.0000 Du        
   6034 ****       100.0000 155.7500 127.2500 Du        
   6035 ****       100.0000 155.7500 127.5000 Du        
   6036 ****       100.0000 155.7500 127.7500 Du        
   6037 ****       100.0000 155.7500 128.0000 Du        
   6038 ****       100.0000 155.7500 128.2500 Du        
   6039 ****       100.0000 155.7500 128.5000 Du        
   6040 ****       100.0000 156.0000 125.7500 Du        
   6041 ****       100.0000 156.0000 126.0000 Du        
   6042 ****       100.0000 156.0000 126.2500 Du        
   6043 ****       100.0000 156.0000 126.5000 Du        
   6044 ****       100.0000 156.0000 126.7500 Du        
   6045 ****       100.0000 156.0000 127.0000 Du        
   6046 ****       100.0000 156.0000 127.2500 Du        
   6047 ****       100.0000 156.0000 127.5000 Du        
   6048 ****       100.0000 156.0000 127.7500 Du        
   6049 ****       100.0000 156.0000 128.0000 Du        
   6050 ****       100.0000 156.0000 128.2500 Du        
   6051 ****       100.0000 156.0000 128.5000 Du        
   6052 ****       100.0000 156.2500 126.0000 Du        
   6053 ****       100.0000 156.2500 126.2500 Du        
   6054 ****       100.0000 156.2500 126.5000 Du        
   6055 ****       100.0000 156.2500 126.7500 Du        
   6056 ****       100.0000 156.2500 127.0000 Du        
   6057 ****       100.0000 156.2500 127.2500 Du        
   6058 ****       100.0000 156.2500 127.5000 Du        
   6059 ****       100.0000 156.2500 127.7500 Du        
   6060 ****       100.0000 156.2500 128.0000 Du        
   6061 ****       100.0000 156.2500 128.2500 Du        
   6062 ****       100.0000 156.5000 126.2500 Du        
   6063 ****       100.0000 156.5000 126.5000 Du        
   6064 ****       100.0000 156.5000 126.7500 Du        
   6065 ****       100.0000 156.5000 127.0000 Du        
   6066 ****       100.0000 156.5000 127.2500 Du        
   6067 ****       100.0000 156.5000 127.5000 Du        
   6068 ****       100.0000 156.5000 127.7500 Du        
   6069 ****       100.0000 156.5000 128.0000 Du        
   6070 ****       100.0000 156.5000 128.2500 Du        
   6071 ****       100.0000 156.7500 126.5000 Du        
   6072 ****       100.0000 156.7500 126.7500 Du        
   6073 ****       100.0000 156.7500 127.0000 Du        
   6074 ****       100.0000 156.7500 127.2500 Du        
   6075 ****       100.0000 156.7500 127.5000 Du        
   6076 ****       100.0000 156.7500 127.7500 Du        
   6077 ****       100.0000 156.7500 128.0000 Du        
   6078 ****       100.0000 156.7500 128.2500 Du        
   6079 ****       100.0000 157.0000 126.7500 Du        
   6080 ****       100.0000 157.0000 127.0000 Du        
   6081 ****       100.0000 157.0000 127.2500 Du        
   6082 ****       100.0000 157.0000 127.5000 Du        
   6083 ****       100.0000 157.0000 127.7500 Du        
   6084 ****       100.0000 157.0000 128.0000 Du        
   6085 ****       100.0000 157.0000 128.2500 Du        
   6086 ****       100.2500 135.0000 137.0000 Du        
   6087 ****       100.2500 135.0000 137.2500 Du        
   6088 ****       100.2500 135.0000 137.5000 Du        
   6089 ****       100.2500 135.2500 136.7500 Du        
   6090 ****       100.2500 135.2500 137.0000 Du        
   6091 ****       100.2500 135.2500 137.2500 Du        
   6092 ****       100.2500 135.2500 137.5000 Du        
   6093 ****       100.2500 135.5000 136.7500 Du        
   6094 ****       100.2500 135.5000 137.0000 Du        
   6095 ****       100.2500 135.5000 137.2500 Du        
   6096 ****       100.2500 135.7500 136.2500 Du        
   6097 ****       100.2500 135.7500 136.5000 Du        
   6098 ****       100.2500 135.7500 136.7500 Du        
   6099 ****       100.2500 136.0000 136.2500 Du        
   6100 ****       100.2500 136.0000 136.5000 Du        
   6101 ****       100.2500 150.0000 124.2500 Du        
   6102 ****       100.2500 150.0000 124.5000 Du        
   6103 ****       100.2500 150.0000 124.7500 Du        
   6104 ****       100.2500 150.2500 124.0000 Du        
   6105 ****       100.2500 150.2500 124.2500 Du        
   6106 ****       100.2500 150.2500 124.5000 Du        
   6107 ****       100.2500 150.2500 124.7500 Du        
   6108 ****       100.2500 150.2500 125.0000 Du        
   6109 ****       100.2500 150.5000 123.7500 Du        
   6110 ****       100.2500 150.5000 124.0000 Du        
   6111 ****       100.2500 150.5000 124.2500 Du        
   6112 ****       100.2500 150.5000 124.5000 Du        
   6113 ****       100.2500 150.5000 124.7500 Du        
   6114 ****       100.2500 150.5000 125.0000 Du        
   6115 ****       100.2500 150.5000 125.2500 Du        
   6116 ****       100.2500 150.7500 124.0000 Du        
   6117 ****       100.2500 150.7500 124.2500 Du        
   6118 ****       100.2500 150.7500 124.5000 Du        
   6119 ****       100.2500 150.7500 124.7500 Du        
   6120 ****       100.2500 150.7500 125.0000 Du        
   6121 ****       100.2500 150.7500 125.2500 Du        
   6122 ****       100.2500 150.7500 125.5000 Du        
   6123 ****       100.2500 150.7500 125.7500 Du        
   6124 ****       100.2500 151.0000 124.0000 Du        
   6125 ****       100.2500 151.0000 124.2500 Du        
   6126 ****       100.2500 151.0000 124.5000 Du        
   6127 ****       100.2500 151.0000 124.7500 Du        
   6128 ****       100.2500 151.0000 125.0000 Du        
   6129 ****       100.2500 151.0000 125.2500 Du        
   6130 ****       100.2500 151.0000 125.5000 Du        
   6131 ****       100.2500 151.0000 125.7500 Du        
   6132 ****       100.2500 151.0000 126.0000 Du        
   6133 ****       100.2500 151.2500 124.2500 Du        
   6134 ****       100.2500 151.2500 124.5000 Du        
   6135 ****       100.2500 151.2500 124.7500 Du        
   6136 ****       100.2500 151.2500 125.0000 Du        
   6137 ****       100.2500 151.2500 125.2500 Du        
   6138 ****       100.2500 151.2500 125.5000 Du        
   6139 ****       100.2500 151.2500 125.7500 Du        
   6140 ****       100.2500 151.2500 126.0000 Du        
   6141 ****       100.2500 151.2500 126.2500 Du        
   6142 ****       100.2500 151.5000 124.5000 Du        
   6143 ****       100.2500 151.5000 124.7500 Du        
   6144 ****       100.2500 151.5000 125.0000 Du        
   6145 ****       100.2500 151.5000 125.2500 Du        
   6146 ****       100.2500 151.5000 125.5000 Du        
   6147 ****       100.2500 151.5000 125.7500 Du        
   6148 ****       100.2500 151.5000 126.0000 Du        
   6149 ****       100.2500 151.5000 126.2500 Du        
   6150 ****       100.2500 151.5000 126.5000 Du        
   6151 ****       100.2500 151.5000 126.7500 Du        
   6152 ****       100.2500 151.5000 127.0000 Du        
   6153 ****       100.2500 151.5000 127.2500 Du        
   6154 ****       100.2500 151.7500 125.0000 Du        
   6155 ****       100.2500 151.7500 125.2500 Du        
   6156 ****       100.2500 151.7500 125.5000 Du        
   6157 ****       100.2500 151.7500 125.7500 Du        
   6158 ****       100.2500 151.7500 126.0000 Du        
   6159 ****       100.2500 151.7500 126.2500 Du        
   6160 ****       100.2500 151.7500 126.5000 Du        
   6161 ****       100.2500 151.7500 126.7500 Du        
   6162 ****       100.2500 151.7500 127.0000 Du        
   6163 ****       100.2500 151.7500 127.2500 Du        
   6164 ****       100.2500 151.7500 127.5000 Du        
   6165 ****       100.2500 151.7500 127.7500 Du        
   6166 ****       100.2500 151.7500 128.0000 Du        
   6167 ****       100.2500 152.0000 125.2500 Du        
   6168 ****       100.2500 152.0000 125.5000 Du        
   6169 ****       100.2500 152.0000 125.7500 Du        
   6170 ****       100.2500 152.0000 126.0000 Du        
   6171 ****       100.2500 152.0000 126.2500 Du        
   6172 ****       100.2500 152.0000 126.5000 Du        
   6173 ****       100.2500 152.0000 126.7500 Du        
   6174 ****       100.2500 152.0000 127.0000 Du        
   6175 ****       100.2500 152.0000 127.2500 Du        
   6176 ****       100.2500 152.0000 127.5000 Du        
   6177 ****       100.2500 152.0000 127.7500 Du        
   6178 ****       100.2500 152.0000 128.0000 Du        
   6179 ****       100.2500 152.2500 125.5000 Du        
   6180 ****       100.2500 152.2500 125.7500 Du        
   6181 ****       100.2500 152.2500 126.0000 Du        
   6182 ****       100.2500 152.2500 126.2500 Du        
   6183 ****       100.2500 152.2500 126.5000 Du        
   6184 ****       100.2500 152.2500 126.7500 Du        
   6185 ****       100.2500 152.2500 127.0000 Du        
   6186 ****       100.2500 152.2500 127.2500 Du        
   6187 ****       100.2500 152.2500 127.5000 Du        
   6188 ****       100.2500 152.2500 127.7500 Du        
   6189 ****       100.2500 152.2500 128.0000 Du        
   6190 ****       100.2500 152.5000 126.0000 Du        
   6191 ****       100.2500 152.5000 126.2500 Du        
   6192 ****       100.2500 152.5000 126.5000 Du        
   6193 ****       100.2500 152.5000 126.7500 Du        
   6194 ****       100.2500 152.5000 127.0000 Du        
   6195 ****       100.2500 152.5000 127.2500 Du        
   6196 ****       100.2500 152.5000 127.5000 Du        
   6197 ****       100.2500 152.5000 127.7500 Du        
   6198 ****       100.2500 152.5000 128.0000 Du        
   6199 ****       100.2500 152.7500 126.0000 Du        
   6200 ****       100.2500 152.7500 126.2500 Du        
   6201 ****       100.2500 152.7500 126.5000 Du        
   6202 ****       100.2500 152.7500 126.7500 Du        
   6203 ****       100.2500 152.7500 127.0000 Du        
   6204 ****       100.2500 152.7500 127.2500 Du        
   6205 ****       100.2500 152.7500 127.5000 Du        
   6206 ****       100.2500 152.7500 127.7500 Du        
   6207 ****       100.2500 152.7500 128.0000 Du        
   6208 ****       100.2500 153.0000 126.2500 Du        
   6209 ****       100.2500 153.0000 126.5000 Du        
   6210 ****       100.2500 153.0000 126.7500 Du        
   6211 ****       100.2500 153.0000 127.0000 Du        
   6212 ****       100.2500 153.0000 127.2500 Du        
   6213 ****       100.2500 153.0000 127.5000 Du        
   6214 ****       100.2500 153.0000 127.7500 Du        
   6215 ****       100.2500 153.0000 128.0000 Du        
   6216 ****       100.2500 153.0000 128.2500 Du        
   6217 ****       100.2500 153.2500 126.5000 Du        
   6218 ****       100.2500 153.2500 126.7500 Du        
   6219 ****       100.2500 153.2500 127.0000 Du        
   6220 ****       100.2500 153.2500 127.2500 Du        
   6221 ****       100.2500 153.2500 127.5000 Du        
   6222 ****       100.2500 153.2500 127.7500 Du        
   6223 ****       100.2500 153.2500 128.0000 Du        
   6224 ****       100.2500 153.2500 128.2500 Du        
   6225 ****       100.2500 153.5000 126.5000 Du        
   6226 ****       100.2500 153.5000 126.7500 Du        
   6227 ****       100.2500 153.5000 127.0000 Du        
   6228 ****       100.2500 153.5000 127.2500 Du        
   6229 ****       100.2500 153.5000 127.5000 Du        
   6230 ****       100.2500 153.5000 127.7500 Du        
   6231 ****       100.2500 153.5000 128.0000 Du        
   6232 ****       100.2500 153.5000 128.2500 Du        
   6233 ****       100.2500 153.7500 126.5000 Du        
   6234 ****       100.2500 153.7500 126.7500 Du        
   6235 ****       100.2500 153.7500 127.0000 Du        
   6236 ****       100.2500 153.7500 127.2500 Du        
   6237 ****       100.2500 153.7500 127.5000 Du        
   6238 ****       100.2500 153.7500 127.7500 Du        
   6239 ****       100.2500 153.7500 128.0000 Du        
   6240 ****       100.2500 153.7500 128.2500 Du        
   6241 ****       100.2500 153.7500 128.5000 Du        
   6242 ****       100.2500 154.0000 126.5000 Du        
   6243 ****       100.2500 154.0000 126.7500 Du        
   6244 ****       100.2500 154.0000 127.0000 Du        
   6245 ****       100.2500 154.0000 127.2500 Du        
   6246 ****       100.2500 154.0000 127.5000 Du        
   6247 ****       100.2500 154.0000 127.7500 Du        
   6248 ****       100.2500 154.0000 128.0000 Du        
   6249 ****       100.2500 154.0000 128.2500 Du        
   6250 ****       100.2500 154.0000 128.5000 Du        
   6251 ****       100.2500 154.2500 126.5000 Du        
   6252 ****       100.2500 154.2500 126.7500 Du        
   6253 ****       100.2500 154.2500 127.0000 Du        
   6254 ****       100.2500 154.2500 127.2500 Du        
   6255 ****       100.2500 154.2500 127.5000 Du        
   6256 ****       100.2500 154.2500 127.7500 Du        
   6257 ****       100.2500 154.2500 128.0000 Du        
   6258 ****       100.2500 154.2500 128.2500 Du        
   6259 ****       100.2500 154.2500 128.5000 Du        
   6260 ****       100.2500 154.2500 128.7500 Du        
   6261 ****       100.2500 154.5000 126.7500 Du        
   6262 ****       100.2500 154.5000 127.0000 Du        
   6263 ****       100.2500 154.5000 127.2500 Du        
   6264 ****       100.2500 154.5000 127.5000 Du        
   6265 ****       100.2500 154.5000 127.7500 Du        
   6266 ****       100.2500 154.5000 128.0000 Du        
   6267 ****       100.2500 154.5000 128.2500 Du        
   6268 ****       100.2500 154.5000 128.5000 Du        
   6269 ****       100.2500 154.5000 128.7500 Du        
   6270 ****       100.2500 154.7500 126.7500 Du        
   6271 ****       100.2500 154.7500 127.0000 Du        
   6272 ****       100.2500 154.7500 127.2500 Du        
   6273 ****       100.2500 154.7500 127.5000 Du        
   6274 ****       100.2500 154.7500 127.7500 Du        
   6275 ****       100.2500 154.7500 128.0000 Du        
   6276 ****       100.2500 154.7500 128.2500 Du        
   6277 ****       100.2500 154.7500 128.5000 Du        
   6278 ****       100.2500 154.7500 128.7500 Du        
   6279 ****       100.2500 155.0000 126.7500 Du        
   6280 ****       100.2500 155.0000 127.0000 Du        
   6281 ****       100.2500 155.0000 127.2500 Du        
   6282 ****       100.2500 155.0000 127.5000 Du        
   6283 ****       100.2500 155.0000 127.7500 Du        
   6284 ****       100.2500 155.0000 128.0000 Du        
   6285 ****       100.2500 155.0000 128.2500 Du        
   6286 ****       100.2500 155.0000 128.5000 Du        
   6287 ****       100.2500 155.0000 128.7500 Du        
   6288 ****       100.2500 155.2500 126.0000 Du        
   6289 ****       100.2500 155.2500 126.2500 Du        
   6290 ****       100.2500 155.2500 126.5000 Du        
   6291 ****       100.2500 155.2500 126.7500 Du        
   6292 ****       100.2500 155.2500 127.0000 Du        
   6293 ****       100.2500 155.2500 127.2500 Du        
   6294 ****       100.2500 155.2500 127.5000 Du        
   6295 ****       100.2500 155.2500 127.7500 Du        
   6296 ****       100.2500 155.2500 128.0000 Du        
   6297 ****       100.2500 155.2500 128.2500 Du        
   6298 ****       100.2500 155.2500 128.5000 Du        
   6299 ****       100.2500 155.2500 128.7500 Du        
   6300 ****       100.2500 155.5000 126.0000 Du        
   6301 ****       100.2500 155.5000 126.2500 Du        
   6302 ****       100.2500 155.5000 126.5000 Du        
   6303 ****       100.2500 155.5000 126.7500 Du        
   6304 ****       100.2500 155.5000 127.0000 Du        
   6305 ****       100.2500 155.5000 127.2500 Du        
   6306 ****       100.2500 155.5000 127.5000 Du        
   6307 ****       100.2500 155.5000 127.7500 Du        
   6308 ****       100.2500 155.5000 128.0000 Du        
   6309 ****       100.2500 155.5000 128.2500 Du        
   6310 ****       100.2500 155.5000 128.5000 Du        
   6311 ****       100.2500 155.5000 128.7500 Du        
   6312 ****       100.2500 155.7500 125.7500 Du        
   6313 ****       100.2500 155.7500 126.0000 Du        
   6314 ****       100.2500 155.7500 126.2500 Du        
   6315 ****       100.2500 155.7500 126.5000 Du        
   6316 ****       100.2500 155.7500 126.7500 Du        
   6317 ****       100.2500 155.7500 127.0000 Du        
   6318 ****       100.2500 155.7500 127.2500 Du        
   6319 ****       100.2500 155.7500 127.5000 Du        
   6320 ****       100.2500 155.7500 127.7500 Du        
   6321 ****       100.2500 155.7500 128.0000 Du        
   6322 ****       100.2500 155.7500 128.2500 Du        
   6323 ****       100.2500 155.7500 128.5000 Du        
   6324 ****       100.2500 155.7500 128.7500 Du        
   6325 ****       100.2500 156.0000 125.7500 Du        
   6326 ****       100.2500 156.0000 126.0000 Du        
   6327 ****       100.2500 156.0000 126.2500 Du        
   6328 ****       100.2500 156.0000 126.5000 Du        
   6329 ****       100.2500 156.0000 126.7500 Du        
   6330 ****       100.2500 156.0000 127.0000 Du        
   6331 ****       100.2500 156.0000 127.2500 Du        
   6332 ****       100.2500 156.0000 127.5000 Du        
   6333 ****       100.2500 156.0000 127.7500 Du        
   6334 ****       100.2500 156.0000 128.0000 Du        
   6335 ****       100.2500 156.0000 128.2500 Du        
   6336 ****       100.2500 156.0000 128.5000 Du        
   6337 ****       100.2500 156.2500 126.0000 Du        
   6338 ****       100.2500 156.2500 126.2500 Du        
   6339 ****       100.2500 156.2500 126.5000 Du        
   6340 ****       100.2500 156.2500 126.7500 Du        
   6341 ****       100.2500 156.2500 127.0000 Du        
   6342 ****       100.2500 156.2500 127.2500 Du        
   6343 ****       100.2500 156.2500 127.5000 Du        
   6344 ****       100.2500 156.2500 127.7500 Du        
   6345 ****       100.2500 156.2500 128.0000 Du        
   6346 ****       100.2500 156.2500 128.2500 Du        
   6347 ****       100.2500 156.2500 128.5000 Du        
   6348 ****       100.2500 156.5000 126.2500 Du        
   6349 ****       100.2500 156.5000 126.5000 Du        
   6350 ****       100.2500 156.5000 126.7500 Du        
   6351 ****       100.2500 156.5000 127.0000 Du        
   6352 ****       100.2500 156.5000 127.2500 Du        
   6353 ****       100.2500 156.5000 127.5000 Du        
   6354 ****       100.2500 156.5000 127.7500 Du        
   6355 ****       100.2500 156.5000 128.0000 Du        
   6356 ****       100.2500 156.5000 128.2500 Du        
   6357 ****       100.2500 156.5000 128.5000 Du        
   6358 ****       100.2500 156.7500 126.5000 Du        
   6359 ****       100.2500 156.7500 126.7500 Du        
   6360 ****       100.2500 156.7500 127.0000 Du        
   6361 ****       100.2500 156.7500 127.2500 Du        
   6362 ****       100.2500 156.7500 127.5000 Du        
   6363 ****       100.2500 156.7500 127.7500 Du        
   6364 ****       100.2500 156.7500 128.0000 Du        
   6365 ****       100.2500 156.7500 128.2500 Du        
   6366 ****       100.2500 156.7500 128.5000 Du        
   6367 ****       100.2500 157.0000 126.7500 Du        
   6368 ****       100.2500 157.0000 127.0000 Du        
   6369 ****       100.2500 157.0000 127.2500 Du        
   6370 ****       100.2500 157.0000 127.5000 Du        
   6371 ****       100.2500 157.0000 127.7500 Du        
   6372 ****       100.2500 157.0000 128.0000 Du        
   6373 ****       100.2500 157.0000 128.2500 Du        
   6374 ****       100.2500 157.2500 127.0000 Du        
   6375 ****       100.2500 157.2500 127.2500 Du        
   6376 ****       100.2500 157.2500 127.5000 Du        
   6377 ****       100.2500 157.2500 127.7500 Du        
   6378 ****       100.2500 157.2500 128.0000 Du        
   6379 ****       100.2500 157.2500 128.2500 Du        
   6380 ****       100.5000 135.0000 136.7500 Du        
   6381 ****       100.5000 135.0000 137.0000 Du        
   6382 ****       100.5000 135.0000 137.2500 Du        
   6383 ****       100.5000 135.0000 137.5000 Du        
   6384 ****       100.5000 135.2500 136.5000 Du        
   6385 ****       100.5000 135.2500 136.7500 Du        
   6386 ****       100.5000 135.2500 137.0000 Du        
   6387 ****       100.5000 135.2500 137.2500 Du        
   6388 ****       100.5000 135.2500 137.5000 Du        
   6389 ****       100.5000 135.5000 136.2500 Du        
   6390 ****       100.5000 135.5000 136.5000 Du        
   6391 ****       100.5000 135.5000 136.7500 Du        
   6392 ****       100.5000 135.5000 137.0000 Du        
   6393 ****       100.5000 135.7500 136.0000 Du        
   6394 ****       100.5000 135.7500 136.2500 Du        
   6395 ****       100.5000 135.7500 136.5000 Du        
   6396 ****       100.5000 150.0000 124.5000 Du        
   6397 ****       100.5000 150.0000 124.7500 Du        
   6398 ****       100.5000 150.2500 124.0000 Du        
   6399 ****       100.5000 150.2500 124.2500 Du        
   6400 ****       100.5000 150.2500 124.5000 Du        
   6401 ****       100.5000 150.2500 124.7500 Du        
   6402 ****       100.5000 150.2500 125.0000 Du        
   6403 ****       100.5000 150.2500 125.2500 Du        
   6404 ****       100.5000 150.5000 124.0000 Du        
   6405 ****       100.5000 150.5000 124.2500 Du        
   6406 ****       100.5000 150.5000 124.5000 Du        
   6407 ****       100.5000 150.5000 124.7500 Du        
   6408 ****       100.5000 150.5000 125.0000 Du        
   6409 ****       100.5000 150.5000 125.2500 Du        
   6410 ****       100.5000 150.7500 124.0000 Du        
   6411 ****       100.5000 150.7500 124.2500 Du        
   6412 ****       100.5000 150.7500 124.5000 Du        
   6413 ****       100.5000 150.7500 124.7500 Du        
   6414 ****       100.5000 150.7500 125.0000 Du        
   6415 ****       100.5000 150.7500 125.2500 Du        
   6416 ****       100.5000 150.7500 125.5000 Du        
   6417 ****       100.5000 151.0000 124.2500 Du        
   6418 ****       100.5000 151.0000 124.5000 Du        
   6419 ****       100.5000 151.0000 124.7500 Du        
   6420 ****       100.5000 151.0000 125.0000 Du        
   6421 ****       100.5000 151.0000 125.2500 Du        
   6422 ****       100.5000 151.0000 125.5000 Du        
   6423 ****       100.5000 151.0000 125.7500 Du        
   6424 ****       100.5000 151.2500 124.2500 Du        
   6425 ****       100.5000 151.2500 124.5000 Du        
   6426 ****       100.5000 151.2500 124.7500 Du        
   6427 ****       100.5000 151.2500 125.0000 Du        
   6428 ****       100.5000 151.2500 125.2500 Du        
   6429 ****       100.5000 151.2500 125.5000 Du        
   6430 ****       100.5000 151.2500 125.7500 Du        
   6431 ****       100.5000 151.2500 126.0000 Du        
   6432 ****       100.5000 151.5000 124.5000 Du        
   6433 ****       100.5000 151.5000 124.7500 Du        
   6434 ****       100.5000 151.5000 125.0000 Du        
   6435 ****       100.5000 151.5000 125.2500 Du        
   6436 ****       100.5000 151.5000 125.5000 Du        
   6437 ****       100.5000 151.5000 125.7500 Du        
   6438 ****       100.5000 151.5000 126.0000 Du        
   6439 ****       100.5000 151.5000 126.2500 Du        
   6440 ****       100.5000 151.5000 126.5000 Du        
   6441 ****       100.5000 151.7500 124.7500 Du        
   6442 ****       100.5000 151.7500 125.0000 Du        
   6443 ****       100.5000 151.7500 125.2500 Du        
   6444 ****       100.5000 151.7500 125.5000 Du        
   6445 ****       100.5000 151.7500 125.7500 Du        
   6446 ****       100.5000 151.7500 126.0000 Du        
   6447 ****       100.5000 151.7500 126.2500 Du        
   6448 ****       100.5000 151.7500 126.5000 Du        
   6449 ****       100.5000 151.7500 126.7500 Du        
   6450 ****       100.5000 151.7500 127.0000 Du        
   6451 ****       100.5000 151.7500 127.2500 Du        
   6452 ****       100.5000 151.7500 127.5000 Du        
   6453 ****       100.5000 152.0000 125.2500 Du        
   6454 ****       100.5000 152.0000 125.5000 Du        
   6455 ****       100.5000 152.0000 125.7500 Du        
   6456 ****       100.5000 152.0000 126.0000 Du        
   6457 ****       100.5000 152.0000 126.2500 Du        
   6458 ****       100.5000 152.0000 126.5000 Du        
   6459 ****       100.5000 152.0000 126.7500 Du        
   6460 ****       100.5000 152.0000 127.0000 Du        
   6461 ****       100.5000 152.0000 127.2500 Du        
   6462 ****       100.5000 152.0000 127.5000 Du        
   6463 ****       100.5000 152.0000 127.7500 Du        
   6464 ****       100.5000 152.0000 128.0000 Du        
   6465 ****       100.5000 152.2500 125.5000 Du        
   6466 ****       100.5000 152.2500 125.7500 Du        
   6467 ****       100.5000 152.2500 126.0000 Du        
   6468 ****       100.5000 152.2500 126.2500 Du        
   6469 ****       100.5000 152.2500 126.5000 Du        
   6470 ****       100.5000 152.2500 126.7500 Du        
   6471 ****       100.5000 152.2500 127.0000 Du        
   6472 ****       100.5000 152.2500 127.2500 Du        
   6473 ****       100.5000 152.2500 127.5000 Du        
   6474 ****       100.5000 152.2500 127.7500 Du        
   6475 ****       100.5000 152.2500 128.0000 Du        
   6476 ****       100.5000 152.5000 125.7500 Du        
   6477 ****       100.5000 152.5000 126.0000 Du        
   6478 ****       100.5000 152.5000 126.2500 Du        
   6479 ****       100.5000 152.5000 126.5000 Du        
   6480 ****       100.5000 152.5000 126.7500 Du        
   6481 ****       100.5000 152.5000 127.0000 Du        
   6482 ****       100.5000 152.5000 127.2500 Du        
   6483 ****       100.5000 152.5000 127.5000 Du        
   6484 ****       100.5000 152.5000 127.7500 Du        
   6485 ****       100.5000 152.5000 128.0000 Du        
   6486 ****       100.5000 152.7500 126.0000 Du        
   6487 ****       100.5000 152.7500 126.2500 Du        
   6488 ****       100.5000 152.7500 126.5000 Du        
   6489 ****       100.5000 152.7500 126.7500 Du        
   6490 ****       100.5000 152.7500 127.0000 Du        
   6491 ****       100.5000 152.7500 127.2500 Du        
   6492 ****       100.5000 152.7500 127.5000 Du        
   6493 ****       100.5000 152.7500 127.7500 Du        
   6494 ****       100.5000 152.7500 128.0000 Du        
   6495 ****       100.5000 153.0000 126.0000 Du        
   6496 ****       100.5000 153.0000 126.2500 Du        
   6497 ****       100.5000 153.0000 126.5000 Du        
   6498 ****       100.5000 153.0000 126.7500 Du        
   6499 ****       100.5000 153.0000 127.0000 Du        
   6500 ****       100.5000 153.0000 127.2500 Du        
   6501 ****       100.5000 153.0000 127.5000 Du        
   6502 ****       100.5000 153.0000 127.7500 Du        
   6503 ****       100.5000 153.0000 128.0000 Du        
   6504 ****       100.5000 153.0000 128.2500 Du        
   6505 ****       100.5000 153.2500 126.5000 Du        
   6506 ****       100.5000 153.2500 126.7500 Du        
   6507 ****       100.5000 153.2500 127.0000 Du        
   6508 ****       100.5000 153.2500 127.2500 Du        
   6509 ****       100.5000 153.2500 127.5000 Du        
   6510 ****       100.5000 153.2500 127.7500 Du        
   6511 ****       100.5000 153.2500 128.0000 Du        
   6512 ****       100.5000 153.2500 128.2500 Du        
   6513 ****       100.5000 153.5000 126.5000 Du        
   6514 ****       100.5000 153.5000 126.7500 Du        
   6515 ****       100.5000 153.5000 127.0000 Du        
   6516 ****       100.5000 153.5000 127.2500 Du        
   6517 ****       100.5000 153.5000 127.5000 Du        
   6518 ****       100.5000 153.5000 127.7500 Du        
   6519 ****       100.5000 153.5000 128.0000 Du        
   6520 ****       100.5000 153.5000 128.2500 Du        
   6521 ****       100.5000 153.7500 126.5000 Du        
   6522 ****       100.5000 153.7500 126.7500 Du        
   6523 ****       100.5000 153.7500 127.0000 Du        
   6524 ****       100.5000 153.7500 127.2500 Du        
   6525 ****       100.5000 153.7500 127.5000 Du        
   6526 ****       100.5000 153.7500 127.7500 Du        
   6527 ****       100.5000 153.7500 128.0000 Du        
   6528 ****       100.5000 153.7500 128.2500 Du        
   6529 ****       100.5000 154.0000 126.5000 Du        
   6530 ****       100.5000 154.0000 126.7500 Du        
   6531 ****       100.5000 154.0000 127.0000 Du        
   6532 ****       100.5000 154.0000 127.2500 Du        
   6533 ****       100.5000 154.0000 127.5000 Du        
   6534 ****       100.5000 154.0000 127.7500 Du        
   6535 ****       100.5000 154.0000 128.0000 Du        
   6536 ****       100.5000 154.0000 128.2500 Du        
   6537 ****       100.5000 154.0000 128.5000 Du        
   6538 ****       100.5000 154.2500 126.7500 Du        
   6539 ****       100.5000 154.2500 127.0000 Du        
   6540 ****       100.5000 154.2500 127.2500 Du        
   6541 ****       100.5000 154.2500 127.5000 Du        
   6542 ****       100.5000 154.2500 127.7500 Du        
   6543 ****       100.5000 154.2500 128.0000 Du        
   6544 ****       100.5000 154.2500 128.2500 Du        
   6545 ****       100.5000 154.2500 128.5000 Du        
   6546 ****       100.5000 154.5000 126.5000 Du        
   6547 ****       100.5000 154.5000 126.7500 Du        
   6548 ****       100.5000 154.5000 127.0000 Du        
   6549 ****       100.5000 154.5000 127.2500 Du        
   6550 ****       100.5000 154.5000 127.5000 Du        
   6551 ****       100.5000 154.5000 127.7500 Du        
   6552 ****       100.5000 154.5000 128.0000 Du        
   6553 ****       100.5000 154.5000 128.2500 Du        
   6554 ****       100.5000 154.5000 128.5000 Du        
   6555 ****       100.5000 154.5000 128.7500 Du        
   6556 ****       100.5000 154.7500 126.5000 Du        
   6557 ****       100.5000 154.7500 126.7500 Du        
   6558 ****       100.5000 154.7500 127.0000 Du        
   6559 ****       100.5000 154.7500 127.2500 Du        
   6560 ****       100.5000 154.7500 127.5000 Du        
   6561 ****       100.5000 154.7500 127.7500 Du        
   6562 ****       100.5000 154.7500 128.0000 Du        
   6563 ****       100.5000 154.7500 128.2500 Du        
   6564 ****       100.5000 154.7500 128.5000 Du        
   6565 ****       100.5000 154.7500 128.7500 Du        
   6566 ****       100.5000 155.0000 126.5000 Du        
   6567 ****       100.5000 155.0000 126.7500 Du        
   6568 ****       100.5000 155.0000 127.0000 Du        
   6569 ****       100.5000 155.0000 127.2500 Du        
   6570 ****       100.5000 155.0000 127.5000 Du        
   6571 ****       100.5000 155.0000 127.7500 Du        
   6572 ****       100.5000 155.0000 128.0000 Du        
   6573 ****       100.5000 155.0000 128.2500 Du        
   6574 ****       100.5000 155.0000 128.5000 Du        
   6575 ****       100.5000 155.0000 128.7500 Du        
   6576 ****       100.5000 155.2500 126.7500 Du        
   6577 ****       100.5000 155.2500 127.0000 Du        
   6578 ****       100.5000 155.2500 127.2500 Du        
   6579 ****       100.5000 155.2500 127.5000 Du        
   6580 ****       100.5000 155.2500 127.7500 Du        
   6581 ****       100.5000 155.2500 128.0000 Du        
   6582 ****       100.5000 155.2500 128.2500 Du        
   6583 ****       100.5000 155.2500 128.5000 Du        
   6584 ****       100.5000 155.2500 128.7500 Du        
   6585 ****       100.5000 155.5000 126.0000 Du        
   6586 ****       100.5000 155.5000 126.2500 Du        
   6587 ****       100.5000 155.5000 126.5000 Du        
   6588 ****       100.5000 155.5000 126.7500 Du        
   6589 ****       100.5000 155.5000 127.0000 Du        
   6590 ****       100.5000 155.5000 127.2500 Du        
   6591 ****       100.5000 155.5000 127.5000 Du        
   6592 ****       100.5000 155.5000 127.7500 Du        
   6593 ****       100.5000 155.5000 128.0000 Du        
   6594 ****       100.5000 155.5000 128.2500 Du        
   6595 ****       100.5000 155.5000 128.5000 Du        
   6596 ****       100.5000 155.5000 128.7500 Du        
   6597 ****       100.5000 155.7500 125.7500 Du        
   6598 ****       100.5000 155.7500 126.0000 Du        
   6599 ****       100.5000 155.7500 126.2500 Du        
   6600 ****       100.5000 155.7500 126.5000 Du        
   6601 ****       100.5000 155.7500 126.7500 Du        
   6602 ****       100.5000 155.7500 127.0000 Du        
   6603 ****       100.5000 155.7500 127.2500 Du        
   6604 ****       100.5000 155.7500 127.5000 Du        
   6605 ****       100.5000 155.7500 127.7500 Du        
   6606 ****       100.5000 155.7500 128.0000 Du        
   6607 ****       100.5000 155.7500 128.2500 Du        
   6608 ****       100.5000 155.7500 128.5000 Du        
   6609 ****       100.5000 155.7500 128.7500 Du        
   6610 ****       100.5000 156.0000 126.0000 Du        
   6611 ****       100.5000 156.0000 126.2500 Du        
   6612 ****       100.5000 156.0000 126.5000 Du        
   6613 ****       100.5000 156.0000 126.7500 Du        
   6614 ****       100.5000 156.0000 127.0000 Du        
   6615 ****       100.5000 156.0000 127.2500 Du        
   6616 ****       100.5000 156.0000 127.5000 Du        
   6617 ****       100.5000 156.0000 127.7500 Du        
   6618 ****       100.5000 156.0000 128.0000 Du        
   6619 ****       100.5000 156.0000 128.2500 Du        
   6620 ****       100.5000 156.0000 128.5000 Du        
   6621 ****       100.5000 156.0000 128.7500 Du        
   6622 ****       100.5000 156.2500 126.2500 Du        
   6623 ****       100.5000 156.2500 126.5000 Du        
   6624 ****       100.5000 156.2500 126.7500 Du        
   6625 ****       100.5000 156.2500 127.0000 Du        
   6626 ****       100.5000 156.2500 127.2500 Du        
   6627 ****       100.5000 156.2500 127.5000 Du        
   6628 ****       100.5000 156.2500 127.7500 Du        
   6629 ****       100.5000 156.2500 128.0000 Du        
   6630 ****       100.5000 156.2500 128.2500 Du        
   6631 ****       100.5000 156.2500 128.5000 Du        
   6632 ****       100.5000 156.5000 126.5000 Du        
   6633 ****       100.5000 156.5000 126.7500 Du        
   6634 ****       100.5000 156.5000 127.0000 Du        
   6635 ****       100.5000 156.5000 127.2500 Du        
   6636 ****       100.5000 156.5000 127.5000 Du        
   6637 ****       100.5000 156.5000 127.7500 Du        
   6638 ****       100.5000 156.5000 128.0000 Du        
   6639 ****       100.5000 156.5000 128.2500 Du        
   6640 ****       100.5000 156.5000 128.5000 Du        
   6641 ****       100.5000 156.7500 126.5000 Du        
   6642 ****       100.5000 156.7500 126.7500 Du        
   6643 ****       100.5000 156.7500 127.0000 Du        
   6644 ****       100.5000 156.7500 127.2500 Du        
   6645 ****       100.5000 156.7500 127.5000 Du        
   6646 ****       100.5000 156.7500 127.7500 Du        
   6647 ****       100.5000 156.7500 128.0000 Du        
   6648 ****       100.5000 156.7500 128.2500 Du        
   6649 ****       100.5000 156.7500 128.5000 Du        
   6650 ****       100.5000 157.0000 126.7500 Du        
   6651 ****       100.5000 157.0000 127.0000 Du        
   6652 ****       100.5000 157.0000 127.2500 Du        
   6653 ****       100.5000 157.0000 127.5000 Du        
   6654 ****       100.5000 157.0000 127.7500 Du        
   6655 ****       100.5000 157.0000 128.0000 Du        
   6656 ****       100.5000 157.0000 128.2500 Du        
   6657 ****       100.5000 157.2500 127.0000 Du        
   6658 ****       100.5000 157.2500 127.2500 Du        
   6659 ****       100.5000 157.2500 127.5000 Du        
   6660 ****       100.5000 157.2500 127.7500 Du        
   6661 ****       100.5000 157.2500 128.0000 Du        
   6662 ****       100.5000 157.2500 128.2500 Du        
   6663 ****       100.7500 134.5000 136.7500 Du        
   6664 ****       100.7500 134.5000 137.0000 Du        
   6665 ****       100.7500 134.5000 137.2500 Du        
   6666 ****       100.7500 134.5000 137.5000 Du        
   6667 ****       100.7500 134.7500 136.5000 Du        
   6668 ****       100.7500 134.7500 136.7500 Du        
   6669 ****       100.7500 134.7500 137.0000 Du        
   6670 ****       100.7500 134.7500 137.2500 Du        
   6671 ****       100.7500 134.7500 137.5000 Du        
   6672 ****       100.7500 135.0000 136.2500 Du        
   6673 ****       100.7500 135.0000 136.5000 Du        
   6674 ****       100.7500 135.0000 136.7500 Du        
   6675 ****       100.7500 135.0000 137.0000 Du        
   6676 ****       100.7500 135.0000 137.2500 Du        
   6677 ****       100.7500 135.0000 137.5000 Du        
   6678 ****       100.7500 135.0000 137.7500 Du        
   6679 ****       100.7500 135.0000 138.0000 Du        
   6680 ****       100.7500 135.2500 136.2500 Du        
   6681 ****       100.7500 135.2500 136.5000 Du        
   6682 ****       100.7500 135.2500 136.7500 Du        
   6683 ****       100.7500 135.2500 137.0000 Du        
   6684 ****       100.7500 135.2500 137.2500 Du        
   6685 ****       100.7500 135.2500 137.5000 Du        
   6686 ****       100.7500 135.5000 136.0000 Du        
   6687 ****       100.7500 135.5000 136.2500 Du        
   6688 ****       100.7500 135.5000 136.5000 Du        
   6689 ****       100.7500 135.5000 136.7500 Du        
   6690 ****       100.7500 135.7500 136.0000 Du        
   6691 ****       100.7500 135.7500 136.2500 Du        
   6692 ****       100.7500 135.7500 136.5000 Du        
   6693 ****       100.7500 150.2500 124.2500 Du        
   6694 ****       100.7500 150.2500 124.5000 Du        
   6695 ****       100.7500 150.2500 124.7500 Du        
   6696 ****       100.7500 150.2500 125.0000 Du        
   6697 ****       100.7500 150.5000 124.2500 Du        
   6698 ****       100.7500 150.5000 124.5000 Du        
   6699 ****       100.7500 150.5000 124.7500 Du        
   6700 ****       100.7500 150.5000 125.0000 Du        
   6701 ****       100.7500 150.5000 125.2500 Du        
   6702 ****       100.7500 150.7500 124.2500 Du        
   6703 ****       100.7500 150.7500 124.5000 Du        
   6704 ****       100.7500 150.7500 124.7500 Du        
   6705 ****       100.7500 150.7500 125.0000 Du        
   6706 ****       100.7500 150.7500 125.2500 Du        
   6707 ****       100.7500 150.7500 125.5000 Du        
   6708 ****       100.7500 151.0000 124.2500 Du        
   6709 ****       100.7500 151.0000 124.5000 Du        
   6710 ****       100.7500 151.0000 124.7500 Du        
   6711 ****       100.7500 151.0000 125.0000 Du        
   6712 ****       100.7500 151.0000 125.2500 Du        
   6713 ****       100.7500 151.0000 125.5000 Du        
   6714 ****       100.7500 151.0000 125.7500 Du        
   6715 ****       100.7500 151.2500 124.2500 Du        
   6716 ****       100.7500 151.2500 124.5000 Du        
   6717 ****       100.7500 151.2500 124.7500 Du        
   6718 ****       100.7500 151.2500 125.0000 Du        
   6719 ****       100.7500 151.2500 125.2500 Du        
   6720 ****       100.7500 151.2500 125.5000 Du        
   6721 ****       100.7500 151.2500 125.7500 Du        
   6722 ****       100.7500 151.2500 126.0000 Du        
   6723 ****       100.7500 151.5000 124.5000 Du        
   6724 ****       100.7500 151.5000 124.7500 Du        
   6725 ****       100.7500 151.5000 125.0000 Du        
   6726 ****       100.7500 151.5000 125.2500 Du        
   6727 ****       100.7500 151.5000 125.5000 Du        
   6728 ****       100.7500 151.5000 125.7500 Du        
   6729 ****       100.7500 151.5000 126.0000 Du        
   6730 ****       100.7500 151.5000 126.2500 Du        
   6731 ****       100.7500 151.7500 124.7500 Du        
   6732 ****       100.7500 151.7500 125.0000 Du        
   6733 ****       100.7500 151.7500 125.2500 Du        
   6734 ****       100.7500 151.7500 125.5000 Du        
   6735 ****       100.7500 151.7500 125.7500 Du        
   6736 ****       100.7500 151.7500 126.0000 Du        
   6737 ****       100.7500 151.7500 126.2500 Du        
   6738 ****       100.7500 151.7500 126.5000 Du        
   6739 ****       100.7500 151.7500 126.7500 Du        
   6740 ****       100.7500 152.0000 125.0000 Du        
   6741 ****       100.7500 152.0000 125.2500 Du        
   6742 ****       100.7500 152.0000 125.5000 Du        
   6743 ****       100.7500 152.0000 125.7500 Du        
   6744 ****       100.7500 152.0000 126.0000 Du        
   6745 ****       100.7500 152.0000 126.2500 Du        
   6746 ****       100.7500 152.0000 126.5000 Du        
   6747 ****       100.7500 152.0000 126.7500 Du        
   6748 ****       100.7500 152.0000 127.0000 Du        
   6749 ****       100.7500 152.0000 127.2500 Du        
   6750 ****       100.7500 152.0000 127.5000 Du        
   6751 ****       100.7500 152.0000 127.7500 Du        
   6752 ****       100.7500 152.2500 125.2500 Du        
   6753 ****       100.7500 152.2500 125.5000 Du        
   6754 ****       100.7500 152.2500 125.7500 Du        
   6755 ****       100.7500 152.2500 126.0000 Du        
   6756 ****       100.7500 152.2500 126.2500 Du        
   6757 ****       100.7500 152.2500 126.5000 Du        
   6758 ****       100.7500 152.2500 126.7500 Du        
   6759 ****       100.7500 152.2500 127.0000 Du        
   6760 ****       100.7500 152.2500 127.2500 Du        
   6761 ****       100.7500 152.2500 127.5000 Du        
   6762 ****       100.7500 152.2500 127.7500 Du        
   6763 ****       100.7500 152.2500 128.0000 Du        
   6764 ****       100.7500 152.5000 125.5000 Du        
   6765 ****       100.7500 152.5000 125.7500 Du        
   6766 ****       100.7500 152.5000 126.0000 Du        
   6767 ****       100.7500 152.5000 126.2500 Du        
   6768 ****       100.7500 152.5000 126.5000 Du        
   6769 ****       100.7500 152.5000 126.7500 Du        
   6770 ****       100.7500 152.5000 127.0000 Du        
   6771 ****       100.7500 152.5000 127.2500 Du        
   6772 ****       100.7500 152.5000 127.5000 Du        
   6773 ****       100.7500 152.5000 127.7500 Du        
   6774 ****       100.7500 152.5000 128.0000 Du        
   6775 ****       100.7500 152.7500 125.7500 Du        
   6776 ****       100.7500 152.7500 126.0000 Du        
   6777 ****       100.7500 152.7500 126.2500 Du        
   6778 ****       100.7500 152.7500 126.5000 Du        
   6779 ****       100.7500 152.7500 126.7500 Du        
   6780 ****       100.7500 152.7500 127.0000 Du        
   6781 ****       100.7500 152.7500 127.2500 Du        
   6782 ****       100.7500 152.7500 127.5000 Du        
   6783 ****       100.7500 152.7500 127.7500 Du        
   6784 ****       100.7500 152.7500 128.0000 Du        
   6785 ****       100.7500 153.0000 126.0000 Du        
   6786 ****       100.7500 153.0000 126.2500 Du        
   6787 ****       100.7500 153.0000 126.5000 Du        
   6788 ****       100.7500 153.0000 126.7500 Du        
   6789 ****       100.7500 153.0000 127.0000 Du        
   6790 ****       100.7500 153.0000 127.2500 Du        
   6791 ****       100.7500 153.0000 127.5000 Du        
   6792 ****       100.7500 153.0000 127.7500 Du        
   6793 ****       100.7500 153.0000 128.0000 Du        
   6794 ****       100.7500 153.0000 128.2500 Du        
   6795 ****       100.7500 153.2500 126.0000 Du        
   6796 ****       100.7500 153.2500 126.2500 Du        
   6797 ****       100.7500 153.2500 126.5000 Du        
   6798 ****       100.7500 153.2500 126.7500 Du        
   6799 ****       100.7500 153.2500 127.0000 Du        
   6800 ****       100.7500 153.2500 127.2500 Du        
   6801 ****       100.7500 153.2500 127.5000 Du        
   6802 ****       100.7500 153.2500 127.7500 Du        
   6803 ****       100.7500 153.2500 128.0000 Du        
   6804 ****       100.7500 153.2500 128.2500 Du        
   6805 ****       100.7500 153.5000 126.2500 Du        
   6806 ****       100.7500 153.5000 126.5000 Du        
   6807 ****       100.7500 153.5000 126.7500 Du        
   6808 ****       100.7500 153.5000 127.0000 Du        
   6809 ****       100.7500 153.5000 127.2500 Du        
   6810 ****       100.7500 153.5000 127.5000 Du        
   6811 ****       100.7500 153.5000 127.7500 Du        
   6812 ****       100.7500 153.5000 128.0000 Du        
   6813 ****       100.7500 153.5000 128.2500 Du        
   6814 ****       100.7500 153.7500 126.2500 Du        
   6815 ****       100.7500 153.7500 126.5000 Du        
   6816 ****       100.7500 153.7500 126.7500 Du        
   6817 ****       100.7500 153.7500 127.0000 Du        
   6818 ****       100.7500 153.7500 127.2500 Du        
   6819 ****       100.7500 153.7500 127.5000 Du        
   6820 ****       100.7500 153.7500 127.7500 Du        
   6821 ****       100.7500 153.7500 128.0000 Du        
   6822 ****       100.7500 153.7500 128.2500 Du        
   6823 ****       100.7500 153.7500 128.5000 Du        
   6824 ****       100.7500 154.0000 126.5000 Du        
   6825 ****       100.7500 154.0000 126.7500 Du        
   6826 ****       100.7500 154.0000 127.0000 Du        
   6827 ****       100.7500 154.0000 127.2500 Du        
   6828 ****       100.7500 154.0000 127.5000 Du        
   6829 ****       100.7500 154.0000 127.7500 Du        
   6830 ****       100.7500 154.0000 128.0000 Du        
   6831 ****       100.7500 154.0000 128.2500 Du        
   6832 ****       100.7500 154.0000 128.5000 Du        
   6833 ****       100.7500 154.2500 126.5000 Du        
   6834 ****       100.7500 154.2500 126.7500 Du        
   6835 ****       100.7500 154.2500 127.0000 Du        
   6836 ****       100.7500 154.2500 127.2500 Du        
   6837 ****       100.7500 154.2500 127.5000 Du        
   6838 ****       100.7500 154.2500 127.7500 Du        
   6839 ****       100.7500 154.2500 128.0000 Du        
   6840 ****       100.7500 154.2500 128.2500 Du        
   6841 ****       100.7500 154.2500 128.5000 Du        
   6842 ****       100.7500 154.5000 126.7500 Du        
   6843 ****       100.7500 154.5000 127.0000 Du        
   6844 ****       100.7500 154.5000 127.2500 Du        
   6845 ****       100.7500 154.5000 127.5000 Du        
   6846 ****       100.7500 154.5000 127.7500 Du        
   6847 ****       100.7500 154.5000 128.0000 Du        
   6848 ****       100.7500 154.5000 128.2500 Du        
   6849 ****       100.7500 154.5000 128.5000 Du        
   6850 ****       100.7500 154.5000 128.7500 Du        
   6851 ****       100.7500 154.7500 126.5000 Du        
   6852 ****       100.7500 154.7500 126.7500 Du        
   6853 ****       100.7500 154.7500 127.0000 Du        
   6854 ****       100.7500 154.7500 127.2500 Du        
   6855 ****       100.7500 154.7500 127.5000 Du        
   6856 ****       100.7500 154.7500 127.7500 Du        
   6857 ****       100.7500 154.7500 128.0000 Du        
   6858 ****       100.7500 154.7500 128.2500 Du        
   6859 ****       100.7500 154.7500 128.5000 Du        
   6860 ****       100.7500 154.7500 128.7500 Du        
   6861 ****       100.7500 155.0000 126.5000 Du        
   6862 ****       100.7500 155.0000 126.7500 Du        
   6863 ****       100.7500 155.0000 127.0000 Du        
   6864 ****       100.7500 155.0000 127.2500 Du        
   6865 ****       100.7500 155.0000 127.5000 Du        
   6866 ****       100.7500 155.0000 127.7500 Du        
   6867 ****       100.7500 155.0000 128.0000 Du        
   6868 ****       100.7500 155.0000 128.2500 Du        
   6869 ****       100.7500 155.0000 128.5000 Du        
   6870 ****       100.7500 155.0000 128.7500 Du        
   6871 ****       100.7500 155.0000 129.0000 Du        
   6872 ****       100.7500 155.2500 126.7500 Du        
   6873 ****       100.7500 155.2500 127.0000 Du        
   6874 ****       100.7500 155.2500 127.2500 Du        
   6875 ****       100.7500 155.2500 127.5000 Du        
   6876 ****       100.7500 155.2500 127.7500 Du        
   6877 ****       100.7500 155.2500 128.0000 Du        
   6878 ****       100.7500 155.2500 128.2500 Du        
   6879 ****       100.7500 155.2500 128.5000 Du        
   6880 ****       100.7500 155.2500 128.7500 Du        
   6881 ****       100.7500 155.2500 129.0000 Du        
   6882 ****       100.7500 155.5000 125.7500 Du        
   6883 ****       100.7500 155.5000 126.0000 Du        
   6884 ****       100.7500 155.5000 126.2500 Du        
   6885 ****       100.7500 155.5000 126.5000 Du        
   6886 ****       100.7500 155.5000 126.7500 Du        
   6887 ****       100.7500 155.5000 127.0000 Du        
   6888 ****       100.7500 155.5000 127.2500 Du        
   6889 ****       100.7500 155.5000 127.5000 Du        
   6890 ****       100.7500 155.5000 127.7500 Du        
   6891 ****       100.7500 155.5000 128.0000 Du        
   6892 ****       100.7500 155.5000 128.2500 Du        
   6893 ****       100.7500 155.5000 128.5000 Du        
   6894 ****       100.7500 155.5000 128.7500 Du        
   6895 ****       100.7500 155.5000 129.0000 Du        
   6896 ****       100.7500 155.7500 125.7500 Du        
   6897 ****       100.7500 155.7500 126.0000 Du        
   6898 ****       100.7500 155.7500 126.2500 Du        
   6899 ****       100.7500 155.7500 126.5000 Du        
   6900 ****       100.7500 155.7500 126.7500 Du        
   6901 ****       100.7500 155.7500 127.0000 Du        
   6902 ****       100.7500 155.7500 127.2500 Du        
   6903 ****       100.7500 155.7500 127.5000 Du        
   6904 ****       100.7500 155.7500 127.7500 Du        
   6905 ****       100.7500 155.7500 128.0000 Du        
   6906 ****       100.7500 155.7500 128.2500 Du        
   6907 ****       100.7500 155.7500 128.5000 Du        
   6908 ****       100.7500 155.7500 128.7500 Du        
   6909 ****       100.7500 155.7500 129.0000 Du        
   6910 ****       100.7500 156.0000 126.0000 Du        
   6911 ****       100.7500 156.0000 126.2500 Du        
   6912 ****       100.7500 156.0000 126.5000 Du        
   6913 ****       100.7500 156.0000 126.7500 Du        
   6914 ****       100.7500 156.0000 127.0000 Du        
   6915 ****       100.7500 156.0000 127.2500 Du        
   6916 ****       100.7500 156.0000 127.5000 Du        
   6917 ****       100.7500 156.0000 127.7500 Du        
   6918 ****       100.7500 156.0000 128.0000 Du        
   6919 ****       100.7500 156.0000 128.2500 Du        
   6920 ****       100.7500 156.0000 128.5000 Du        
   6921 ****       100.7500 156.0000 128.7500 Du        
   6922 ****       100.7500 156.2500 126.2500 Du        
   6923 ****       100.7500 156.2500 126.5000 Du        
   6924 ****       100.7500 156.2500 126.7500 Du        
   6925 ****       100.7500 156.2500 127.0000 Du        
   6926 ****       100.7500 156.2500 127.2500 Du        
   6927 ****       100.7500 156.2500 127.5000 Du        
   6928 ****       100.7500 156.2500 127.7500 Du        
   6929 ****       100.7500 156.2500 128.0000 Du        
   6930 ****       100.7500 156.2500 128.2500 Du        
   6931 ****       100.7500 156.2500 128.5000 Du        
   6932 ****       100.7500 156.2500 128.7500 Du        
   6933 ****       100.7500 156.5000 126.5000 Du        
   6934 ****       100.7500 156.5000 126.7500 Du        
   6935 ****       100.7500 156.5000 127.0000 Du        
   6936 ****       100.7500 156.5000 127.2500 Du        
   6937 ****       100.7500 156.5000 127.5000 Du        
   6938 ****       100.7500 156.5000 127.7500 Du        
   6939 ****       100.7500 156.5000 128.0000 Du        
   6940 ****       100.7500 156.5000 128.2500 Du        
   6941 ****       100.7500 156.5000 128.5000 Du        
   6942 ****       100.7500 156.7500 126.7500 Du        
   6943 ****       100.7500 156.7500 127.0000 Du        
   6944 ****       100.7500 156.7500 127.2500 Du        
   6945 ****       100.7500 156.7500 127.5000 Du        
   6946 ****       100.7500 156.7500 127.7500 Du        
   6947 ****       100.7500 156.7500 128.0000 Du        
   6948 ****       100.7500 156.7500 128.2500 Du        
   6949 ****       100.7500 156.7500 128.5000 Du        
   6950 ****       100.7500 157.0000 126.7500 Du        
   6951 ****       100.7500 157.0000 127.0000 Du        
   6952 ****       100.7500 157.0000 127.2500 Du        
   6953 ****       100.7500 157.0000 127.5000 Du        
   6954 ****       100.7500 157.0000 127.7500 Du        
   6955 ****       100.7500 157.0000 128.0000 Du        
   6956 ****       100.7500 157.0000 128.2500 Du        
   6957 ****       100.7500 157.0000 128.5000 Du        
   6958 ****       100.7500 157.2500 127.0000 Du        
   6959 ****       100.7500 157.2500 127.2500 Du        
   6960 ****       100.7500 157.2500 127.5000 Du        
   6961 ****       100.7500 157.2500 127.7500 Du        
   6962 ****       100.7500 157.2500 128.0000 Du        
   6963 ****       100.7500 157.2500 128.2500 Du        
   6964 ****       100.7500 157.5000 127.5000 Du        
   6965 ****       100.7500 157.5000 127.7500 Du        
   6966 ****       100.7500 157.5000 128.0000 Du        
   6967 ****       100.7500 157.5000 128.2500 Du        
   6968 ****       101.0000 134.2500 136.5000 Du        
   6969 ****       101.0000 134.5000 136.5000 Du        
   6970 ****       101.0000 134.5000 136.7500 Du        
   6971 ****       101.0000 134.5000 137.0000 Du        
   6972 ****       101.0000 134.5000 137.2500 Du        
   6973 ****       101.0000 134.5000 137.5000 Du        
   6974 ****       101.0000 134.7500 136.2500 Du        
   6975 ****       101.0000 134.7500 136.5000 Du        
   6976 ****       101.0000 134.7500 136.7500 Du        
   6977 ****       101.0000 134.7500 137.0000 Du        
   6978 ****       101.0000 134.7500 137.2500 Du        
   6979 ****       101.0000 134.7500 137.5000 Du        
   6980 ****       101.0000 135.0000 136.2500 Du        
   6981 ****       101.0000 135.0000 136.5000 Du        
   6982 ****       101.0000 135.0000 136.7500 Du        
   6983 ****       101.0000 135.0000 137.0000 Du        
   6984 ****       101.0000 135.0000 137.2500 Du        
   6985 ****       101.0000 135.0000 137.5000 Du        
   6986 ****       101.0000 135.0000 137.7500 Du        
   6987 ****       101.0000 135.0000 138.0000 Du        
   6988 ****       101.0000 135.2500 136.0000 Du        
   6989 ****       101.0000 135.2500 136.2500 Du        
   6990 ****       101.0000 135.2500 136.5000 Du        
   6991 ****       101.0000 135.2500 136.7500 Du        
   6992 ****       101.0000 135.2500 137.0000 Du        
   6993 ****       101.0000 135.2500 137.2500 Du        
   6994 ****       101.0000 135.5000 136.0000 Du        
   6995 ****       101.0000 135.5000 136.2500 Du        
   6996 ****       101.0000 135.5000 136.5000 Du        
   6997 ****       101.0000 135.5000 136.7500 Du        
   6998 ****       101.0000 135.7500 136.0000 Du        
   6999 ****       101.0000 135.7500 136.2500 Du        
   7000 ****       101.0000 150.2500 124.7500 Du        
   7001 ****       101.0000 150.2500 125.0000 Du        
   7002 ****       101.0000 150.5000 124.5000 Du        
   7003 ****       101.0000 150.5000 124.7500 Du        
   7004 ****       101.0000 150.5000 125.0000 Du        
   7005 ****       101.0000 150.5000 125.2500 Du        
   7006 ****       101.0000 150.7500 124.5000 Du        
   7007 ****       101.0000 150.7500 124.7500 Du        
   7008 ****       101.0000 150.7500 125.0000 Du        
   7009 ****       101.0000 150.7500 125.2500 Du        
   7010 ****       101.0000 151.0000 124.5000 Du        
   7011 ****       101.0000 151.0000 124.7500 Du        
   7012 ****       101.0000 151.0000 125.0000 Du        
   7013 ****       101.0000 151.0000 125.2500 Du        
   7014 ****       101.0000 151.0000 125.5000 Du        
   7015 ****       101.0000 151.2500 124.5000 Du        
   7016 ****       101.0000 151.2500 124.7500 Du        
   7017 ****       101.0000 151.2500 125.0000 Du        
   7018 ****       101.0000 151.2500 125.2500 Du        
   7019 ****       101.0000 151.2500 125.5000 Du        
   7020 ****       101.0000 151.2500 125.7500 Du        
   7021 ****       101.0000 151.5000 124.5000 Du        
   7022 ****       101.0000 151.5000 124.7500 Du        
   7023 ****       101.0000 151.5000 125.0000 Du        
   7024 ****       101.0000 151.5000 125.2500 Du        
   7025 ****       101.0000 151.5000 125.5000 Du        
   7026 ****       101.0000 151.5000 125.7500 Du        
   7027 ****       101.0000 151.5000 126.0000 Du        
   7028 ****       101.0000 151.7500 124.7500 Du        
   7029 ****       101.0000 151.7500 125.0000 Du        
   7030 ****       101.0000 151.7500 125.2500 Du        
   7031 ****       101.0000 151.7500 125.5000 Du        
   7032 ****       101.0000 151.7500 125.7500 Du        
   7033 ****       101.0000 151.7500 126.0000 Du        
   7034 ****       101.0000 151.7500 126.2500 Du        
   7035 ****       101.0000 151.7500 126.5000 Du        
   7036 ****       101.0000 152.0000 124.7500 Du        
   7037 ****       101.0000 152.0000 125.0000 Du        
   7038 ****       101.0000 152.0000 125.2500 Du        
   7039 ****       101.0000 152.0000 125.5000 Du        
   7040 ****       101.0000 152.0000 125.7500 Du        
   7041 ****       101.0000 152.0000 126.0000 Du        
   7042 ****       101.0000 152.0000 126.2500 Du        
   7043 ****       101.0000 152.0000 126.5000 Du        
   7044 ****       101.0000 152.0000 126.7500 Du        
   7045 ****       101.0000 152.0000 127.0000 Du        
   7046 ****       101.0000 152.0000 127.2500 Du        
   7047 ****       101.0000 152.2500 125.0000 Du        
   7048 ****       101.0000 152.2500 125.2500 Du        
   7049 ****       101.0000 152.2500 125.5000 Du        
   7050 ****       101.0000 152.2500 125.7500 Du        
   7051 ****       101.0000 152.2500 126.0000 Du        
   7052 ****       101.0000 152.2500 126.2500 Du        
   7053 ****       101.0000 152.2500 126.5000 Du        
   7054 ****       101.0000 152.2500 126.7500 Du        
   7055 ****       101.0000 152.2500 127.0000 Du        
   7056 ****       101.0000 152.2500 127.2500 Du        
   7057 ****       101.0000 152.2500 127.5000 Du        
   7058 ****       101.0000 152.2500 127.7500 Du        
   7059 ****       101.0000 152.2500 128.0000 Du        
   7060 ****       101.0000 152.5000 125.2500 Du        
   7061 ****       101.0000 152.5000 125.5000 Du        
   7062 ****       101.0000 152.5000 125.7500 Du        
   7063 ****       101.0000 152.5000 126.0000 Du        
   7064 ****       101.0000 152.5000 126.2500 Du        
   7065 ****       101.0000 152.5000 126.5000 Du        
   7066 ****       101.0000 152.5000 126.7500 Du        
   7067 ****       101.0000 152.5000 127.0000 Du        
   7068 ****       101.0000 152.5000 127.2500 Du        
   7069 ****       101.0000 152.5000 127.5000 Du        
   7070 ****       101.0000 152.5000 127.7500 Du        
   7071 ****       101.0000 152.5000 128.0000 Du        
   7072 ****       101.0000 152.7500 125.5000 Du        
   7073 ****       101.0000 152.7500 125.7500 Du        
   7074 ****       101.0000 152.7500 126.0000 Du        
   7075 ****       101.0000 152.7500 126.2500 Du        
   7076 ****       101.0000 152.7500 126.5000 Du        
   7077 ****       101.0000 152.7500 126.7500 Du        
   7078 ****       101.0000 152.7500 127.0000 Du        
   7079 ****       101.0000 152.7500 127.2500 Du        
   7080 ****       101.0000 152.7500 127.5000 Du        
   7081 ****       101.0000 152.7500 127.7500 Du        
   7082 ****       101.0000 152.7500 128.0000 Du        
   7083 ****       101.0000 153.0000 125.7500 Du        
   7084 ****       101.0000 153.0000 126.0000 Du        
   7085 ****       101.0000 153.0000 126.2500 Du        
   7086 ****       101.0000 153.0000 126.5000 Du        
   7087 ****       101.0000 153.0000 126.7500 Du        
   7088 ****       101.0000 153.0000 127.0000 Du        
   7089 ****       101.0000 153.0000 127.2500 Du        
   7090 ****       101.0000 153.0000 127.5000 Du        
   7091 ****       101.0000 153.0000 127.7500 Du        
   7092 ****       101.0000 153.0000 128.0000 Du        
   7093 ****       101.0000 153.0000 128.2500 Du        
   7094 ****       101.0000 153.2500 125.7500 Du        
   7095 ****       101.0000 153.2500 126.0000 Du        
   7096 ****       101.0000 153.2500 126.2500 Du        
   7097 ****       101.0000 153.2500 126.5000 Du        
   7098 ****       101.0000 153.2500 126.7500 Du        
   7099 ****       101.0000 153.2500 127.0000 Du        
   7100 ****       101.0000 153.2500 127.2500 Du        
   7101 ****       101.0000 153.2500 127.5000 Du        
   7102 ****       101.0000 153.2500 127.7500 Du        
   7103 ****       101.0000 153.2500 128.0000 Du        
   7104 ****       101.0000 153.2500 128.2500 Du        
   7105 ****       101.0000 153.5000 126.0000 Du        
   7106 ****       101.0000 153.5000 126.2500 Du        
   7107 ****       101.0000 153.5000 126.5000 Du        
   7108 ****       101.0000 153.5000 126.7500 Du        
   7109 ****       101.0000 153.5000 127.0000 Du        
   7110 ****       101.0000 153.5000 127.2500 Du        
   7111 ****       101.0000 153.5000 127.5000 Du        
   7112 ****       101.0000 153.5000 127.7500 Du        
   7113 ****       101.0000 153.5000 128.0000 Du        
   7114 ****       101.0000 153.5000 128.2500 Du        
   7115 ****       101.0000 153.7500 126.0000 Du        
   7116 ****       101.0000 153.7500 126.2500 Du        
   7117 ****       101.0000 153.7500 126.5000 Du        
   7118 ****       101.0000 153.7500 126.7500 Du        
   7119 ****       101.0000 153.7500 127.0000 Du        
   7120 ****       101.0000 153.7500 127.2500 Du        
   7121 ****       101.0000 153.7500 127.5000 Du        
   7122 ****       101.0000 153.7500 127.7500 Du        
   7123 ****       101.0000 153.7500 128.0000 Du        
   7124 ****       101.0000 153.7500 128.2500 Du        
   7125 ****       101.0000 153.7500 128.5000 Du        
   7126 ****       101.0000 154.0000 126.0000 Du        
   7127 ****       101.0000 154.0000 126.2500 Du        
   7128 ****       101.0000 154.0000 126.5000 Du        
   7129 ****       101.0000 154.0000 126.7500 Du        
   7130 ****       101.0000 154.0000 127.0000 Du        
   7131 ****       101.0000 154.0000 127.2500 Du        
   7132 ****       101.0000 154.0000 127.5000 Du        
   7133 ****       101.0000 154.0000 127.7500 Du        
   7134 ****       101.0000 154.0000 128.0000 Du        
   7135 ****       101.0000 154.0000 128.2500 Du        
   7136 ****       101.0000 154.0000 128.5000 Du        
   7137 ****       101.0000 154.2500 126.5000 Du        
   7138 ****       101.0000 154.2500 126.7500 Du        
   7139 ****       101.0000 154.2500 127.0000 Du        
   7140 ****       101.0000 154.2500 127.2500 Du        
   7141 ****       101.0000 154.2500 127.5000 Du        
   7142 ****       101.0000 154.2500 127.7500 Du        
   7143 ****       101.0000 154.2500 128.0000 Du        
   7144 ****       101.0000 154.2500 128.2500 Du        
   7145 ****       101.0000 154.2500 128.5000 Du        
   7146 ****       101.0000 154.5000 126.7500 Du        
   7147 ****       101.0000 154.5000 127.2500 Du        
   7148 ****       101.0000 154.5000 127.5000 Du        
   7149 ****       101.0000 154.5000 127.7500 Du        
   7150 ****       101.0000 154.5000 128.0000 Du        
   7151 ****       101.0000 154.5000 128.2500 Du        
   7152 ****       101.0000 154.5000 128.5000 Du        
   7153 ****       101.0000 154.7500 126.5000 Du        
   7154 ****       101.0000 154.7500 126.7500 Du        
   7155 ****       101.0000 154.7500 127.0000 Du        
   7156 ****       101.0000 154.7500 127.2500 Du        
   7157 ****       101.0000 154.7500 127.5000 Du        
   7158 ****       101.0000 154.7500 127.7500 Du        
   7159 ****       101.0000 154.7500 128.0000 Du        
   7160 ****       101.0000 154.7500 128.2500 Du        
   7161 ****       101.0000 154.7500 128.5000 Du        
   7162 ****       101.0000 154.7500 128.7500 Du        
   7163 ****       101.0000 155.0000 125.7500 Du        
   7164 ****       101.0000 155.0000 126.0000 Du        
   7165 ****       101.0000 155.0000 126.2500 Du        
   7166 ****       101.0000 155.0000 126.5000 Du        
   7167 ****       101.0000 155.0000 126.7500 Du        
   7168 ****       101.0000 155.0000 127.0000 Du        
   7169 ****       101.0000 155.0000 127.2500 Du        
   7170 ****       101.0000 155.0000 127.5000 Du        
   7171 ****       101.0000 155.0000 127.7500 Du        
   7172 ****       101.0000 155.0000 128.0000 Du        
   7173 ****       101.0000 155.0000 128.2500 Du        
   7174 ****       101.0000 155.0000 128.5000 Du        
   7175 ****       101.0000 155.0000 128.7500 Du        
   7176 ****       101.0000 155.0000 129.0000 Du        
   7177 ****       101.0000 155.2500 126.0000 Du        
   7178 ****       101.0000 155.2500 126.2500 Du        
   7179 ****       101.0000 155.2500 126.5000 Du        
   7180 ****       101.0000 155.2500 126.7500 Du        
   7181 ****       101.0000 155.2500 127.0000 Du        
   7182 ****       101.0000 155.2500 127.2500 Du        
   7183 ****       101.0000 155.2500 127.5000 Du        
   7184 ****       101.0000 155.2500 127.7500 Du        
   7185 ****       101.0000 155.2500 128.0000 Du        
   7186 ****       101.0000 155.2500 128.2500 Du        
   7187 ****       101.0000 155.2500 128.5000 Du        
   7188 ****       101.0000 155.2500 128.7500 Du        
   7189 ****       101.0000 155.2500 129.0000 Du        
   7190 ****       101.0000 155.5000 125.7500 Du        
   7191 ****       101.0000 155.5000 126.0000 Du        
   7192 ****       101.0000 155.5000 126.2500 Du        
   7193 ****       101.0000 155.5000 126.5000 Du        
   7194 ****       101.0000 155.5000 126.7500 Du        
   7195 ****       101.0000 155.5000 127.0000 Du        
   7196 ****       101.0000 155.5000 127.2500 Du        
   7197 ****       101.0000 155.5000 127.5000 Du        
   7198 ****       101.0000 155.5000 127.7500 Du        
   7199 ****       101.0000 155.5000 128.0000 Du        
   7200 ****       101.0000 155.5000 128.2500 Du        
   7201 ****       101.0000 155.5000 128.5000 Du        
   7202 ****       101.0000 155.5000 128.7500 Du        
   7203 ****       101.0000 155.5000 129.0000 Du        
   7204 ****       101.0000 155.7500 125.7500 Du        
   7205 ****       101.0000 155.7500 126.0000 Du        
   7206 ****       101.0000 155.7500 126.2500 Du        
   7207 ****       101.0000 155.7500 126.5000 Du        
   7208 ****       101.0000 155.7500 126.7500 Du        
   7209 ****       101.0000 155.7500 127.0000 Du        
   7210 ****       101.0000 155.7500 127.2500 Du        
   7211 ****       101.0000 155.7500 127.5000 Du        
   7212 ****       101.0000 155.7500 127.7500 Du        
   7213 ****       101.0000 155.7500 128.0000 Du        
   7214 ****       101.0000 155.7500 128.2500 Du        
   7215 ****       101.0000 155.7500 128.5000 Du        
   7216 ****       101.0000 155.7500 128.7500 Du        
   7217 ****       101.0000 155.7500 129.0000 Du        
   7218 ****       101.0000 156.0000 126.0000 Du        
   7219 ****       101.0000 156.0000 126.2500 Du        
   7220 ****       101.0000 156.0000 126.5000 Du        
   7221 ****       101.0000 156.0000 126.7500 Du        
   7222 ****       101.0000 156.0000 127.0000 Du        
   7223 ****       101.0000 156.0000 127.2500 Du        
   7224 ****       101.0000 156.0000 127.5000 Du        
   7225 ****       101.0000 156.0000 127.7500 Du        
   7226 ****       101.0000 156.0000 128.0000 Du        
   7227 ****       101.0000 156.0000 128.2500 Du        
   7228 ****       101.0000 156.0000 128.5000 Du        
   7229 ****       101.0000 156.0000 128.7500 Du        
   7230 ****       101.0000 156.0000 129.0000 Du        
   7231 ****       101.0000 156.2500 126.2500 Du        
   7232 ****       101.0000 156.2500 126.5000 Du        
   7233 ****       101.0000 156.2500 126.7500 Du        
   7234 ****       101.0000 156.2500 127.0000 Du        
   7235 ****       101.0000 156.2500 127.2500 Du        
   7236 ****       101.0000 156.2500 127.5000 Du        
   7237 ****       101.0000 156.2500 127.7500 Du        
   7238 ****       101.0000 156.2500 128.0000 Du        
   7239 ****       101.0000 156.2500 128.2500 Du        
   7240 ****       101.0000 156.2500 128.5000 Du        
   7241 ****       101.0000 156.2500 128.7500 Du        
   7242 ****       101.0000 156.5000 126.5000 Du        
   7243 ****       101.0000 156.5000 126.7500 Du        
   7244 ****       101.0000 156.5000 127.0000 Du        
   7245 ****       101.0000 156.5000 127.2500 Du        
   7246 ****       101.0000 156.5000 127.5000 Du        
   7247 ****       101.0000 156.5000 127.7500 Du        
   7248 ****       101.0000 156.5000 128.0000 Du        
   7249 ****       101.0000 156.5000 128.2500 Du        
   7250 ****       101.0000 156.5000 128.5000 Du        
   7251 ****       101.0000 156.5000 128.7500 Du        
   7252 ****       101.0000 156.7500 126.7500 Du        
   7253 ****       101.0000 156.7500 127.0000 Du        
   7254 ****       101.0000 156.7500 127.2500 Du        
   7255 ****       101.0000 156.7500 127.5000 Du        
   7256 ****       101.0000 156.7500 127.7500 Du        
   7257 ****       101.0000 156.7500 128.0000 Du        
   7258 ****       101.0000 156.7500 128.2500 Du        
   7259 ****       101.0000 156.7500 128.5000 Du        
   7260 ****       101.0000 156.7500 128.7500 Du        
   7261 ****       101.0000 157.0000 127.0000 Du        
   7262 ****       101.0000 157.0000 127.2500 Du        
   7263 ****       101.0000 157.0000 127.5000 Du        
   7264 ****       101.0000 157.0000 127.7500 Du        
   7265 ****       101.0000 157.0000 128.0000 Du        
   7266 ****       101.0000 157.0000 128.2500 Du        
   7267 ****       101.0000 157.0000 128.5000 Du        
   7268 ****       101.0000 157.2500 127.0000 Du        
   7269 ****       101.0000 157.2500 127.2500 Du        
   7270 ****       101.0000 157.2500 127.5000 Du        
   7271 ****       101.0000 157.2500 127.7500 Du        
   7272 ****       101.0000 157.2500 128.0000 Du        
   7273 ****       101.0000 157.2500 128.2500 Du        
   7274 ****       101.0000 157.2500 128.5000 Du        
   7275 ****       101.0000 157.5000 127.2500 Du        
   7276 ****       101.0000 157.5000 127.5000 Du        
   7277 ****       101.0000 157.5000 127.7500 Du        
   7278 ****       101.0000 157.5000 128.0000 Du        
   7279 ****       101.0000 157.5000 128.2500 Du        
   7280 ****       101.0000 157.5000 128.5000 Du        
   7281 ****       101.0000 157.7500 128.0000 Du        
   7282 ****       101.2500 134.0000 136.5000 Du        
   7283 ****       101.2500 134.0000 136.7500 Du        
   7284 ****       101.2500 134.0000 137.0000 Du        
   7285 ****       101.2500 134.0000 137.2500 Du        
   7286 ****       101.2500 134.0000 137.5000 Du        
   7287 ****       101.2500 134.2500 136.5000 Du        
   7288 ****       101.2500 134.2500 136.7500 Du        
   7289 ****       101.2500 134.2500 137.0000 Du        
   7290 ****       101.2500 134.2500 137.2500 Du        
   7291 ****       101.2500 134.2500 137.5000 Du        
   7292 ****       101.2500 134.5000 136.2500 Du        
   7293 ****       101.2500 134.5000 136.5000 Du        
   7294 ****       101.2500 134.5000 136.7500 Du        
   7295 ****       101.2500 134.5000 137.0000 Du        
   7296 ****       101.2500 134.5000 137.2500 Du        
   7297 ****       101.2500 134.5000 137.5000 Du        
   7298 ****       101.2500 134.5000 137.7500 Du        
   7299 ****       101.2500 134.5000 138.0000 Du        
   7300 ****       101.2500 134.5000 138.2500 Du        
   7301 ****       101.2500 134.5000 138.5000 Du        
   7302 ****       101.2500 134.7500 136.2500 Du        
   7303 ****       101.2500 134.7500 136.5000 Du        
   7304 ****       101.2500 134.7500 136.7500 Du        
   7305 ****       101.2500 134.7500 137.0000 Du        
   7306 ****       101.2500 134.7500 137.2500 Du        
   7307 ****       101.2500 134.7500 137.5000 Du        
   7308 ****       101.2500 134.7500 137.7500 Du        
   7309 ****       101.2500 134.7500 138.0000 Du        
   7310 ****       101.2500 134.7500 138.2500 Du        
   7311 ****       101.2500 134.7500 138.5000 Du        
   7312 ****       101.2500 135.0000 136.0000 Du        
   7313 ****       101.2500 135.0000 136.2500 Du        
   7314 ****       101.2500 135.0000 136.5000 Du        
   7315 ****       101.2500 135.0000 136.7500 Du        
   7316 ****       101.2500 135.0000 137.0000 Du        
   7317 ****       101.2500 135.0000 137.2500 Du        
   7318 ****       101.2500 135.0000 137.5000 Du        
   7319 ****       101.2500 135.0000 137.7500 Du        
   7320 ****       101.2500 135.0000 138.0000 Du        
   7321 ****       101.2500 135.2500 136.0000 Du        
   7322 ****       101.2500 135.2500 136.2500 Du        
   7323 ****       101.2500 135.2500 136.5000 Du        
   7324 ****       101.2500 135.2500 136.7500 Du        
   7325 ****       101.2500 135.2500 137.0000 Du        
   7326 ****       101.2500 135.5000 135.7500 Du        
   7327 ****       101.2500 135.5000 136.0000 Du        
   7328 ****       101.2500 135.5000 136.2500 Du        
   7329 ****       101.2500 135.5000 136.5000 Du        
   7330 ****       101.2500 135.7500 136.0000 Du        
   7331 ****       101.2500 150.5000 124.7500 Du        
   7332 ****       101.2500 150.5000 125.0000 Du        
   7333 ****       101.2500 150.7500 124.7500 Du        
   7334 ****       101.2500 150.7500 125.0000 Du        
   7335 ****       101.2500 150.7500 125.2500 Du        
   7336 ****       101.2500 151.0000 124.7500 Du        
   7337 ****       101.2500 151.0000 125.0000 Du        
   7338 ****       101.2500 151.0000 125.2500 Du        
   7339 ****       101.2500 151.0000 125.5000 Du        
   7340 ****       101.2500 151.2500 124.7500 Du        
   7341 ****       101.2500 151.2500 125.0000 Du        
   7342 ****       101.2500 151.2500 125.2500 Du        
   7343 ****       101.2500 151.2500 125.5000 Du        
   7344 ****       101.2500 151.5000 124.7500 Du        
   7345 ****       101.2500 151.5000 125.0000 Du        
   7346 ****       101.2500 151.5000 125.2500 Du        
   7347 ****       101.2500 151.5000 125.5000 Du        
   7348 ****       101.2500 151.5000 125.7500 Du        
   7349 ****       101.2500 151.7500 124.7500 Du        
   7350 ****       101.2500 151.7500 125.0000 Du        
   7351 ****       101.2500 151.7500 125.2500 Du        
   7352 ****       101.2500 151.7500 125.5000 Du        
   7353 ****       101.2500 151.7500 125.7500 Du        
   7354 ****       101.2500 151.7500 126.0000 Du        
   7355 ****       101.2500 151.7500 126.2500 Du        
   7356 ****       101.2500 152.0000 124.7500 Du        
   7357 ****       101.2500 152.0000 125.0000 Du        
   7358 ****       101.2500 152.0000 125.2500 Du        
   7359 ****       101.2500 152.0000 125.5000 Du        
   7360 ****       101.2500 152.0000 125.7500 Du        
   7361 ****       101.2500 152.0000 126.0000 Du        
   7362 ****       101.2500 152.0000 126.2500 Du        
   7363 ****       101.2500 152.0000 126.5000 Du        
   7364 ****       101.2500 152.0000 126.7500 Du        
   7365 ****       101.2500 152.2500 124.7500 Du        
   7366 ****       101.2500 152.2500 125.0000 Du        
   7367 ****       101.2500 152.2500 125.2500 Du        
   7368 ****       101.2500 152.2500 125.5000 Du        
   7369 ****       101.2500 152.2500 125.7500 Du        
   7370 ****       101.2500 152.2500 126.0000 Du        
   7371 ****       101.2500 152.2500 126.2500 Du        
   7372 ****       101.2500 152.2500 126.5000 Du        
   7373 ****       101.2500 152.2500 126.7500 Du        
   7374 ****       101.2500 152.2500 127.0000 Du        
   7375 ****       101.2500 152.2500 127.2500 Du        
   7376 ****       101.2500 152.2500 127.5000 Du        
   7377 ****       101.2500 152.2500 127.7500 Du        
   7378 ****       101.2500 152.5000 125.0000 Du        
   7379 ****       101.2500 152.5000 125.2500 Du        
   7380 ****       101.2500 152.5000 125.5000 Du        
   7381 ****       101.2500 152.5000 125.7500 Du        
   7382 ****       101.2500 152.5000 126.0000 Du        
   7383 ****       101.2500 152.5000 126.2500 Du        
   7384 ****       101.2500 152.5000 126.5000 Du        
   7385 ****       101.2500 152.5000 126.7500 Du        
   7386 ****       101.2500 152.5000 127.0000 Du        
   7387 ****       101.2500 152.5000 127.2500 Du        
   7388 ****       101.2500 152.5000 127.5000 Du        
   7389 ****       101.2500 152.5000 127.7500 Du        
   7390 ****       101.2500 152.5000 128.0000 Du        
   7391 ****       101.2500 152.7500 125.2500 Du        
   7392 ****       101.2500 152.7500 125.5000 Du        
   7393 ****       101.2500 152.7500 125.7500 Du        
   7394 ****       101.2500 152.7500 126.0000 Du        
   7395 ****       101.2500 152.7500 126.2500 Du        
   7396 ****       101.2500 152.7500 126.5000 Du        
   7397 ****       101.2500 152.7500 126.7500 Du        
   7398 ****       101.2500 152.7500 127.0000 Du        
   7399 ****       101.2500 152.7500 127.2500 Du        
   7400 ****       101.2500 152.7500 127.5000 Du        
   7401 ****       101.2500 152.7500 127.7500 Du        
   7402 ****       101.2500 152.7500 128.0000 Du        
   7403 ****       101.2500 153.0000 125.5000 Du        
   7404 ****       101.2500 153.0000 125.7500 Du        
   7405 ****       101.2500 153.0000 126.0000 Du        
   7406 ****       101.2500 153.0000 126.2500 Du        
   7407 ****       101.2500 153.0000 126.5000 Du        
   7408 ****       101.2500 153.0000 126.7500 Du        
   7409 ****       101.2500 153.0000 127.0000 Du        
   7410 ****       101.2500 153.0000 127.2500 Du        
   7411 ****       101.2500 153.0000 127.5000 Du        
   7412 ****       101.2500 153.0000 127.7500 Du        
   7413 ****       101.2500 153.0000 128.0000 Du        
   7414 ****       101.2500 153.0000 128.2500 Du        
   7415 ****       101.2500 153.2500 125.7500 Du        
   7416 ****       101.2500 153.2500 126.0000 Du        
   7417 ****       101.2500 153.2500 126.2500 Du        
   7418 ****       101.2500 153.2500 126.5000 Du        
   7419 ****       101.2500 153.2500 126.7500 Du        
   7420 ****       101.2500 153.2500 127.0000 Du        
   7421 ****       101.2500 153.2500 127.2500 Du        
   7422 ****       101.2500 153.2500 127.5000 Du        
   7423 ****       101.2500 153.2500 127.7500 Du        
   7424 ****       101.2500 153.2500 128.0000 Du        
   7425 ****       101.2500 153.2500 128.2500 Du        
   7426 ****       101.2500 153.5000 125.7500 Du        
   7427 ****       101.2500 153.5000 126.0000 Du        
   7428 ****       101.2500 153.5000 126.2500 Du        
   7429 ****       101.2500 153.5000 126.5000 Du        
   7430 ****       101.2500 153.5000 126.7500 Du        
   7431 ****       101.2500 153.5000 127.0000 Du        
   7432 ****       101.2500 153.5000 127.2500 Du        
   7433 ****       101.2500 153.5000 127.5000 Du        
   7434 ****       101.2500 153.5000 127.7500 Du        
   7435 ****       101.2500 153.5000 128.0000 Du        
   7436 ****       101.2500 153.5000 128.2500 Du        
   7437 ****       101.2500 153.7500 126.0000 Du        
   7438 ****       101.2500 153.7500 126.2500 Du        
   7439 ****       101.2500 153.7500 126.5000 Du        
   7440 ****       101.2500 153.7500 126.7500 Du        
   7441 ****       101.2500 153.7500 127.0000 Du        
   7442 ****       101.2500 153.7500 127.2500 Du        
   7443 ****       101.2500 153.7500 127.5000 Du        
   7444 ****       101.2500 153.7500 127.7500 Du        
   7445 ****       101.2500 153.7500 128.0000 Du        
   7446 ****       101.2500 153.7500 128.2500 Du        
   7447 ****       101.2500 153.7500 128.5000 Du        
   7448 ****       101.2500 154.0000 126.0000 Du        
   7449 ****       101.2500 154.0000 126.2500 Du        
   7450 ****       101.2500 154.0000 126.5000 Du        
   7451 ****       101.2500 154.0000 126.7500 Du        
   7452 ****       101.2500 154.0000 127.0000 Du        
   7453 ****       101.2500 154.0000 127.2500 Du        
   7454 ****       101.2500 154.0000 127.5000 Du        
   7455 ****       101.2500 154.0000 127.7500 Du        
   7456 ****       101.2500 154.0000 128.0000 Du        
   7457 ****       101.2500 154.0000 128.2500 Du        
   7458 ****       101.2500 154.0000 128.5000 Du        
   7459 ****       101.2500 154.2500 126.2500 Du        
   7460 ****       101.2500 154.2500 126.5000 Du        
   7461 ****       101.2500 154.2500 126.7500 Du        
   7462 ****       101.2500 154.2500 127.0000 Du        
   7463 ****       101.2500 154.2500 127.2500 Du        
   7464 ****       101.2500 154.2500 127.5000 Du        
   7465 ****       101.2500 154.2500 127.7500 Du        
   7466 ****       101.2500 154.2500 128.0000 Du        
   7467 ****       101.2500 154.2500 128.2500 Du        
   7468 ****       101.2500 154.2500 128.5000 Du        
   7469 ****       101.2500 154.5000 126.5000 Du        
   7470 ****       101.2500 154.5000 126.7500 Du        
   7471 ****       101.2500 154.5000 127.0000 Du        
   7472 ****       101.2500 154.5000 127.2500 Du        
   7473 ****       101.2500 154.5000 127.5000 Du        
   7474 ****       101.2500 154.5000 127.7500 Du        
   7475 ****       101.2500 154.5000 128.0000 Du        
   7476 ****       101.2500 154.5000 128.2500 Du        
   7477 ****       101.2500 154.5000 128.5000 Du        
   7478 ****       101.2500 154.7500 125.7500 Du        
   7479 ****       101.2500 154.7500 126.0000 Du        
   7480 ****       101.2500 154.7500 126.2500 Du        
   7481 ****       101.2500 154.7500 126.5000 Du        
   7482 ****       101.2500 154.7500 126.7500 Du        
   7483 ****       101.2500 154.7500 127.0000 Du        
   7484 ****       101.2500 154.7500 127.2500 Du        
   7485 ****       101.2500 154.7500 127.5000 Du        
   7486 ****       101.2500 154.7500 127.7500 Du        
   7487 ****       101.2500 154.7500 128.0000 Du        
   7488 ****       101.2500 154.7500 128.2500 Du        
   7489 ****       101.2500 154.7500 128.5000 Du        
   7490 ****       101.2500 154.7500 128.7500 Du        
   7491 ****       101.2500 155.0000 125.7500 Du        
   7492 ****       101.2500 155.0000 126.0000 Du        
   7493 ****       101.2500 155.0000 126.2500 Du        
   7494 ****       101.2500 155.0000 126.5000 Du        
   7495 ****       101.2500 155.0000 126.7500 Du        
   7496 ****       101.2500 155.0000 127.0000 Du        
   7497 ****       101.2500 155.0000 127.2500 Du        
   7498 ****       101.2500 155.0000 127.5000 Du        
   7499 ****       101.2500 155.0000 127.7500 Du        
   7500 ****       101.2500 155.0000 128.0000 Du        
   7501 ****       101.2500 155.0000 128.2500 Du        
   7502 ****       101.2500 155.0000 128.5000 Du        
   7503 ****       101.2500 155.0000 128.7500 Du        
   7504 ****       101.2500 155.2500 125.7500 Du        
   7505 ****       101.2500 155.2500 126.0000 Du        
   7506 ****       101.2500 155.2500 126.2500 Du        
   7507 ****       101.2500 155.2500 126.5000 Du        
   7508 ****       101.2500 155.2500 126.7500 Du        
   7509 ****       101.2500 155.2500 127.0000 Du        
   7510 ****       101.2500 155.2500 127.2500 Du        
   7511 ****       101.2500 155.2500 127.5000 Du        
   7512 ****       101.2500 155.2500 127.7500 Du        
   7513 ****       101.2500 155.2500 128.0000 Du        
   7514 ****       101.2500 155.2500 128.2500 Du        
   7515 ****       101.2500 155.2500 128.5000 Du        
   7516 ****       101.2500 155.2500 128.7500 Du        
   7517 ****       101.2500 155.2500 129.0000 Du        
   7518 ****       101.2500 155.5000 125.7500 Du        
   7519 ****       101.2500 155.5000 126.0000 Du        
   7520 ****       101.2500 155.5000 126.2500 Du        
   7521 ****       101.2500 155.5000 126.5000 Du        
   7522 ****       101.2500 155.5000 126.7500 Du        
   7523 ****       101.2500 155.5000 127.0000 Du        
   7524 ****       101.2500 155.5000 127.2500 Du        
   7525 ****       101.2500 155.5000 127.5000 Du        
   7526 ****       101.2500 155.5000 127.7500 Du        
   7527 ****       101.2500 155.5000 128.0000 Du        
   7528 ****       101.2500 155.5000 128.2500 Du        
   7529 ****       101.2500 155.5000 128.5000 Du        
   7530 ****       101.2500 155.5000 128.7500 Du        
   7531 ****       101.2500 155.5000 129.0000 Du        
   7532 ****       101.2500 155.7500 125.7500 Du        
   7533 ****       101.2500 155.7500 126.0000 Du        
   7534 ****       101.2500 155.7500 126.2500 Du        
   7535 ****       101.2500 155.7500 126.5000 Du        
   7536 ****       101.2500 155.7500 126.7500 Du        
   7537 ****       101.2500 155.7500 127.0000 Du        
   7538 ****       101.2500 155.7500 127.2500 Du        
   7539 ****       101.2500 155.7500 127.5000 Du        
   7540 ****       101.2500 155.7500 127.7500 Du        
   7541 ****       101.2500 155.7500 128.0000 Du        
   7542 ****       101.2500 155.7500 128.2500 Du        
   7543 ****       101.2500 155.7500 128.5000 Du        
   7544 ****       101.2500 155.7500 128.7500 Du        
   7545 ****       101.2500 155.7500 129.0000 Du        
   7546 ****       101.2500 156.0000 126.0000 Du        
   7547 ****       101.2500 156.0000 126.2500 Du        
   7548 ****       101.2500 156.0000 126.5000 Du        
   7549 ****       101.2500 156.0000 126.7500 Du        
   7550 ****       101.2500 156.0000 127.0000 Du        
   7551 ****       101.2500 156.0000 127.2500 Du        
   7552 ****       101.2500 156.0000 127.5000 Du        
   7553 ****       101.2500 156.0000 127.7500 Du        
   7554 ****       101.2500 156.0000 128.0000 Du        
   7555 ****       101.2500 156.0000 128.2500 Du        
   7556 ****       101.2500 156.0000 128.5000 Du        
   7557 ****       101.2500 156.0000 128.7500 Du        
   7558 ****       101.2500 156.0000 129.0000 Du        
   7559 ****       101.2500 156.2500 126.2500 Du        
   7560 ****       101.2500 156.2500 126.5000 Du        
   7561 ****       101.2500 156.2500 126.7500 Du        
   7562 ****       101.2500 156.2500 127.0000 Du        
   7563 ****       101.2500 156.2500 127.2500 Du        
   7564 ****       101.2500 156.2500 127.5000 Du        
   7565 ****       101.2500 156.2500 127.7500 Du        
   7566 ****       101.2500 156.2500 128.0000 Du        
   7567 ****       101.2500 156.2500 128.2500 Du        
   7568 ****       101.2500 156.2500 128.5000 Du        
   7569 ****       101.2500 156.2500 128.7500 Du        
   7570 ****       101.2500 156.2500 129.0000 Du        
   7571 ****       101.2500 156.5000 126.7500 Du        
   7572 ****       101.2500 156.5000 127.0000 Du        
   7573 ****       101.2500 156.5000 127.2500 Du        
   7574 ****       101.2500 156.5000 127.5000 Du        
   7575 ****       101.2500 156.5000 127.7500 Du        
   7576 ****       101.2500 156.5000 128.0000 Du        
   7577 ****       101.2500 156.5000 128.2500 Du        
   7578 ****       101.2500 156.5000 128.5000 Du        
   7579 ****       101.2500 156.5000 128.7500 Du        
   7580 ****       101.2500 156.7500 126.7500 Du        
   7581 ****       101.2500 156.7500 127.0000 Du        
   7582 ****       101.2500 156.7500 127.2500 Du        
   7583 ****       101.2500 156.7500 127.5000 Du        
   7584 ****       101.2500 156.7500 127.7500 Du        
   7585 ****       101.2500 156.7500 128.0000 Du        
   7586 ****       101.2500 156.7500 128.2500 Du        
   7587 ****       101.2500 156.7500 128.5000 Du        
   7588 ****       101.2500 156.7500 128.7500 Du        
   7589 ****       101.2500 157.0000 127.0000 Du        
   7590 ****       101.2500 157.0000 127.2500 Du        
   7591 ****       101.2500 157.0000 127.5000 Du        
   7592 ****       101.2500 157.0000 127.7500 Du        
   7593 ****       101.2500 157.0000 128.0000 Du        
   7594 ****       101.2500 157.0000 128.2500 Du        
   7595 ****       101.2500 157.0000 128.5000 Du        
   7596 ****       101.2500 157.0000 128.7500 Du        
   7597 ****       101.2500 157.2500 127.0000 Du        
   7598 ****       101.2500 157.2500 127.2500 Du        
   7599 ****       101.2500 157.2500 127.5000 Du        
   7600 ****       101.2500 157.2500 127.7500 Du        
   7601 ****       101.2500 157.2500 128.0000 Du        
   7602 ****       101.2500 157.2500 128.2500 Du        
   7603 ****       101.2500 157.2500 128.5000 Du        
   7604 ****       101.2500 157.5000 127.2500 Du        
   7605 ****       101.2500 157.5000 127.5000 Du        
   7606 ****       101.2500 157.5000 127.7500 Du        
   7607 ****       101.2500 157.5000 128.0000 Du        
   7608 ****       101.2500 157.5000 128.2500 Du        
   7609 ****       101.2500 157.5000 128.5000 Du        
   7610 ****       101.2500 157.7500 127.7500 Du        
   7611 ****       101.2500 157.7500 128.0000 Du        
   7612 ****       101.2500 157.7500 128.2500 Du        
   7613 ****       101.2500 157.7500 128.5000 Du        
   7614 ****       101.5000 134.0000 137.0000 Du        
   7615 ****       101.5000 134.0000 137.2500 Du        
   7616 ****       101.5000 134.0000 137.5000 Du        
   7617 ****       101.5000 134.2500 136.2500 Du        
   7618 ****       101.5000 134.2500 136.5000 Du        
   7619 ****       101.5000 134.2500 136.7500 Du        
   7620 ****       101.5000 134.2500 137.0000 Du        
   7621 ****       101.5000 134.2500 137.2500 Du        
   7622 ****       101.5000 134.2500 137.5000 Du        
   7623 ****       101.5000 134.5000 136.2500 Du        
   7624 ****       101.5000 134.5000 136.5000 Du        
   7625 ****       101.5000 134.5000 136.7500 Du        
   7626 ****       101.5000 134.5000 137.0000 Du        
   7627 ****       101.5000 134.5000 137.2500 Du        
   7628 ****       101.5000 134.5000 137.5000 Du        
   7629 ****       101.5000 134.5000 137.7500 Du        
   7630 ****       101.5000 134.5000 138.0000 Du        
   7631 ****       101.5000 134.5000 138.2500 Du        
   7632 ****       101.5000 134.5000 138.5000 Du        
   7633 ****       101.5000 134.7500 136.0000 Du        
   7634 ****       101.5000 134.7500 136.2500 Du        
   7635 ****       101.5000 134.7500 136.5000 Du        
   7636 ****       101.5000 134.7500 136.7500 Du        
   7637 ****       101.5000 134.7500 137.0000 Du        
   7638 ****       101.5000 134.7500 137.2500 Du        
   7639 ****       101.5000 134.7500 137.5000 Du        
   7640 ****       101.5000 134.7500 137.7500 Du        
   7641 ****       101.5000 134.7500 138.0000 Du        
   7642 ****       101.5000 134.7500 138.2500 Du        
   7643 ****       101.5000 135.0000 136.0000 Du        
   7644 ****       101.5000 135.0000 136.2500 Du        
   7645 ****       101.5000 135.0000 136.5000 Du        
   7646 ****       101.5000 135.0000 136.7500 Du        
   7647 ****       101.5000 135.0000 137.0000 Du        
   7648 ****       101.5000 135.0000 137.2500 Du        
   7649 ****       101.5000 135.2500 135.7500 Du        
   7650 ****       101.5000 135.2500 136.0000 Du        
   7651 ****       101.5000 135.2500 136.2500 Du        
   7652 ****       101.5000 135.2500 136.5000 Du        
   7653 ****       101.5000 135.2500 136.7500 Du        
   7654 ****       101.5000 135.5000 135.7500 Du        
   7655 ****       101.5000 135.5000 136.0000 Du        
   7656 ****       101.5000 135.5000 136.2500 Du        
   7657 ****       101.5000 151.0000 125.0000 Du        
   7658 ****       101.5000 151.0000 125.2500 Du        
   7659 ****       101.5000 151.2500 125.0000 Du        
   7660 ****       101.5000 151.2500 125.2500 Du        
   7661 ****       101.5000 151.2500 125.5000 Du        
   7662 ****       101.5000 151.5000 125.0000 Du        
   7663 ****       101.5000 151.5000 125.2500 Du        
   7664 ****       101.5000 151.5000 125.5000 Du        
   7665 ****       101.5000 151.5000 125.7500 Du        
   7666 ****       101.5000 151.7500 124.7500 Du        
   7667 ****       101.5000 151.7500 125.0000 Du        
   7668 ****       101.5000 151.7500 125.2500 Du        
   7669 ****       101.5000 151.7500 125.5000 Du        
   7670 ****       101.5000 151.7500 125.7500 Du        
   7671 ****       101.5000 151.7500 126.0000 Du        
   7672 ****       101.5000 152.0000 124.7500 Du        
   7673 ****       101.5000 152.0000 125.0000 Du        
   7674 ****       101.5000 152.0000 125.2500 Du        
   7675 ****       101.5000 152.0000 125.5000 Du        
   7676 ****       101.5000 152.0000 125.7500 Du        
   7677 ****       101.5000 152.0000 126.0000 Du        
   7678 ****       101.5000 152.0000 126.2500 Du        
   7679 ****       101.5000 152.0000 126.5000 Du        
   7680 ****       101.5000 152.2500 124.7500 Du        
   7681 ****       101.5000 152.2500 125.0000 Du        
   7682 ****       101.5000 152.2500 125.2500 Du        
   7683 ****       101.5000 152.2500 125.5000 Du        
   7684 ****       101.5000 152.2500 125.7500 Du        
   7685 ****       101.5000 152.2500 126.0000 Du        
   7686 ****       101.5000 152.2500 126.2500 Du        
   7687 ****       101.5000 152.2500 126.5000 Du        
   7688 ****       101.5000 152.2500 126.7500 Du        
   7689 ****       101.5000 152.2500 127.0000 Du        
   7690 ****       101.5000 152.5000 125.0000 Du        
   7691 ****       101.5000 152.5000 125.2500 Du        
   7692 ****       101.5000 152.5000 125.5000 Du        
   7693 ****       101.5000 152.5000 125.7500 Du        
   7694 ****       101.5000 152.5000 126.0000 Du        
   7695 ****       101.5000 152.5000 126.2500 Du        
   7696 ****       101.5000 152.5000 126.5000 Du        
   7697 ****       101.5000 152.5000 126.7500 Du        
   7698 ****       101.5000 152.5000 127.0000 Du        
   7699 ****       101.5000 152.5000 127.2500 Du        
   7700 ****       101.5000 152.5000 127.5000 Du        
   7701 ****       101.5000 152.5000 127.7500 Du        
   7702 ****       101.5000 152.7500 125.0000 Du        
   7703 ****       101.5000 152.7500 125.2500 Du        
   7704 ****       101.5000 152.7500 125.5000 Du        
   7705 ****       101.5000 152.7500 125.7500 Du        
   7706 ****       101.5000 152.7500 126.0000 Du        
   7707 ****       101.5000 152.7500 126.2500 Du        
   7708 ****       101.5000 152.7500 126.5000 Du        
   7709 ****       101.5000 152.7500 126.7500 Du        
   7710 ****       101.5000 152.7500 127.0000 Du        
   7711 ****       101.5000 152.7500 127.2500 Du        
   7712 ****       101.5000 152.7500 127.5000 Du        
   7713 ****       101.5000 152.7500 127.7500 Du        
   7714 ****       101.5000 152.7500 128.0000 Du        
   7715 ****       101.5000 153.0000 125.0000 Du        
   7716 ****       101.5000 153.0000 125.2500 Du        
   7717 ****       101.5000 153.0000 125.5000 Du        
   7718 ****       101.5000 153.0000 125.7500 Du        
   7719 ****       101.5000 153.0000 126.0000 Du        
   7720 ****       101.5000 153.0000 126.2500 Du        
   7721 ****       101.5000 153.0000 126.5000 Du        
   7722 ****       101.5000 153.0000 126.7500 Du        
   7723 ****       101.5000 153.0000 127.0000 Du        
   7724 ****       101.5000 153.0000 127.2500 Du        
   7725 ****       101.5000 153.0000 127.5000 Du        
   7726 ****       101.5000 153.0000 127.7500 Du        
   7727 ****       101.5000 153.0000 128.0000 Du        
   7728 ****       101.5000 153.0000 128.2500 Du        
   7729 ****       101.5000 153.2500 125.2500 Du        
   7730 ****       101.5000 153.2500 125.5000 Du        
   7731 ****       101.5000 153.2500 125.7500 Du        
   7732 ****       101.5000 153.2500 126.0000 Du        
   7733 ****       101.5000 153.2500 126.2500 Du        
   7734 ****       101.5000 153.2500 126.5000 Du        
   7735 ****       101.5000 153.2500 126.7500 Du        
   7736 ****       101.5000 153.2500 127.0000 Du        
   7737 ****       101.5000 153.2500 127.2500 Du        
   7738 ****       101.5000 153.2500 127.5000 Du        
   7739 ****       101.5000 153.2500 127.7500 Du        
   7740 ****       101.5000 153.2500 128.0000 Du        
   7741 ****       101.5000 153.2500 128.2500 Du        
   7742 ****       101.5000 153.5000 125.5000 Du        
   7743 ****       101.5000 153.5000 125.7500 Du        
   7744 ****       101.5000 153.5000 126.0000 Du        
   7745 ****       101.5000 153.5000 126.2500 Du        
   7746 ****       101.5000 153.5000 126.5000 Du        
   7747 ****       101.5000 153.5000 126.7500 Du        
   7748 ****       101.5000 153.5000 127.0000 Du        
   7749 ****       101.5000 153.5000 127.2500 Du        
   7750 ****       101.5000 153.5000 127.5000 Du        
   7751 ****       101.5000 153.5000 127.7500 Du        
   7752 ****       101.5000 153.5000 128.0000 Du        
   7753 ****       101.5000 153.5000 128.2500 Du        
   7754 ****       101.5000 153.7500 125.7500 Du        
   7755 ****       101.5000 153.7500 126.0000 Du        
   7756 ****       101.5000 153.7500 126.2500 Du        
   7757 ****       101.5000 153.7500 126.5000 Du        
   7758 ****       101.5000 153.7500 126.7500 Du        
   7759 ****       101.5000 153.7500 127.0000 Du        
   7760 ****       101.5000 153.7500 127.2500 Du        
   7761 ****       101.5000 153.7500 127.5000 Du        
   7762 ****       101.5000 153.7500 127.7500 Du        
   7763 ****       101.5000 153.7500 128.0000 Du        
   7764 ****       101.5000 153.7500 128.2500 Du        
   7765 ****       101.5000 154.0000 125.5000 Du        
   7766 ****       101.5000 154.0000 125.7500 Du        
   7767 ****       101.5000 154.0000 126.0000 Du        
   7768 ****       101.5000 154.0000 126.2500 Du        
   7769 ****       101.5000 154.0000 126.5000 Du        
   7770 ****       101.5000 154.0000 126.7500 Du        
   7771 ****       101.5000 154.0000 127.0000 Du        
   7772 ****       101.5000 154.0000 127.2500 Du        
   7773 ****       101.5000 154.0000 127.5000 Du        
   7774 ****       101.5000 154.0000 127.7500 Du        
   7775 ****       101.5000 154.0000 128.0000 Du        
   7776 ****       101.5000 154.0000 128.2500 Du        
   7777 ****       101.5000 154.0000 128.5000 Du        
   7778 ****       101.5000 154.2500 125.7500 Du        
   7779 ****       101.5000 154.2500 126.0000 Du        
   7780 ****       101.5000 154.2500 126.2500 Du        
   7781 ****       101.5000 154.2500 126.5000 Du        
   7782 ****       101.5000 154.2500 126.7500 Du        
   7783 ****       101.5000 154.2500 127.0000 Du        
   7784 ****       101.5000 154.2500 127.2500 Du        
   7785 ****       101.5000 154.2500 127.5000 Du        
   7786 ****       101.5000 154.2500 127.7500 Du        
   7787 ****       101.5000 154.2500 128.0000 Du        
   7788 ****       101.5000 154.2500 128.2500 Du        
   7789 ****       101.5000 154.2500 128.5000 Du        
   7790 ****       101.5000 154.5000 125.7500 Du        
   7791 ****       101.5000 154.5000 126.0000 Du        
   7792 ****       101.5000 154.5000 126.2500 Du        
   7793 ****       101.5000 154.5000 126.5000 Du        
   7794 ****       101.5000 154.5000 126.7500 Du        
   7795 ****       101.5000 154.5000 127.0000 Du        
   7796 ****       101.5000 154.5000 127.2500 Du        
   7797 ****       101.5000 154.5000 127.5000 Du        
   7798 ****       101.5000 154.5000 127.7500 Du        
   7799 ****       101.5000 154.5000 128.0000 Du        
   7800 ****       101.5000 154.5000 128.2500 Du        
   7801 ****       101.5000 154.5000 128.5000 Du        
   7802 ****       101.5000 154.7500 125.2500 Du        
   7803 ****       101.5000 154.7500 125.5000 Du        
   7804 ****       101.5000 154.7500 125.7500 Du        
   7805 ****       101.5000 154.7500 126.0000 Du        
   7806 ****       101.5000 154.7500 126.2500 Du        
   7807 ****       101.5000 154.7500 126.5000 Du        
   7808 ****       101.5000 154.7500 126.7500 Du        
   7809 ****       101.5000 154.7500 127.0000 Du        
   7810 ****       101.5000 154.7500 127.2500 Du        
   7811 ****       101.5000 154.7500 127.5000 Du        
   7812 ****       101.5000 154.7500 127.7500 Du        
   7813 ****       101.5000 154.7500 128.0000 Du        
   7814 ****       101.5000 154.7500 128.2500 Du        
   7815 ****       101.5000 154.7500 128.5000 Du        
   7816 ****       101.5000 155.0000 125.2500 Du        
   7817 ****       101.5000 155.0000 125.5000 Du        
   7818 ****       101.5000 155.0000 125.7500 Du        
   7819 ****       101.5000 155.0000 126.0000 Du        
   7820 ****       101.5000 155.0000 126.2500 Du        
   7821 ****       101.5000 155.0000 126.5000 Du        
   7822 ****       101.5000 155.0000 126.7500 Du        
   7823 ****       101.5000 155.0000 127.0000 Du        
   7824 ****       101.5000 155.0000 127.2500 Du        
   7825 ****       101.5000 155.0000 127.5000 Du        
   7826 ****       101.5000 155.0000 127.7500 Du        
   7827 ****       101.5000 155.0000 128.0000 Du        
   7828 ****       101.5000 155.0000 128.2500 Du        
   7829 ****       101.5000 155.0000 128.5000 Du        
   7830 ****       101.5000 155.0000 128.7500 Du        
   7831 ****       101.5000 155.2500 125.2500 Du        
   7832 ****       101.5000 155.2500 125.5000 Du        
   7833 ****       101.5000 155.2500 125.7500 Du        
   7834 ****       101.5000 155.2500 126.0000 Du        
   7835 ****       101.5000 155.2500 126.2500 Du        
   7836 ****       101.5000 155.2500 126.5000 Du        
   7837 ****       101.5000 155.2500 126.7500 Du        
   7838 ****       101.5000 155.2500 127.0000 Du        
   7839 ****       101.5000 155.2500 127.2500 Du        
   7840 ****       101.5000 155.2500 127.5000 Du        
   7841 ****       101.5000 155.2500 127.7500 Du        
   7842 ****       101.5000 155.2500 128.0000 Du        
   7843 ****       101.5000 155.2500 128.2500 Du        
   7844 ****       101.5000 155.2500 128.5000 Du        
   7845 ****       101.5000 155.2500 128.7500 Du        
   7846 ****       101.5000 155.5000 125.2500 Du        
   7847 ****       101.5000 155.5000 125.5000 Du        
   7848 ****       101.5000 155.5000 125.7500 Du        
   7849 ****       101.5000 155.5000 126.0000 Du        
   7850 ****       101.5000 155.5000 126.2500 Du        
   7851 ****       101.5000 155.5000 126.5000 Du        
   7852 ****       101.5000 155.5000 126.7500 Du        
   7853 ****       101.5000 155.5000 127.0000 Du        
   7854 ****       101.5000 155.5000 127.2500 Du        
   7855 ****       101.5000 155.5000 127.5000 Du        
   7856 ****       101.5000 155.5000 127.7500 Du        
   7857 ****       101.5000 155.5000 128.0000 Du        
   7858 ****       101.5000 155.5000 128.2500 Du        
   7859 ****       101.5000 155.5000 128.5000 Du        
   7860 ****       101.5000 155.5000 128.7500 Du        
   7861 ****       101.5000 155.5000 129.0000 Du        
   7862 ****       101.5000 155.7500 125.7500 Du        
   7863 ****       101.5000 155.7500 126.0000 Du        
   7864 ****       101.5000 155.7500 126.2500 Du        
   7865 ****       101.5000 155.7500 126.5000 Du        
   7866 ****       101.5000 155.7500 126.7500 Du        
   7867 ****       101.5000 155.7500 127.0000 Du        
   7868 ****       101.5000 155.7500 127.2500 Du        
   7869 ****       101.5000 155.7500 127.5000 Du        
   7870 ****       101.5000 155.7500 127.7500 Du        
   7871 ****       101.5000 155.7500 128.0000 Du        
   7872 ****       101.5000 155.7500 128.2500 Du        
   7873 ****       101.5000 155.7500 128.5000 Du        
   7874 ****       101.5000 155.7500 128.7500 Du        
   7875 ****       101.5000 155.7500 129.0000 Du        
   7876 ****       101.5000 156.0000 126.0000 Du        
   7877 ****       101.5000 156.0000 126.2500 Du        
   7878 ****       101.5000 156.0000 126.5000 Du        
   7879 ****       101.5000 156.0000 126.7500 Du        
   7880 ****       101.5000 156.0000 127.0000 Du        
   7881 ****       101.5000 156.0000 127.2500 Du        
   7882 ****       101.5000 156.0000 127.5000 Du        
   7883 ****       101.5000 156.0000 127.7500 Du        
   7884 ****       101.5000 156.0000 128.0000 Du        
   7885 ****       101.5000 156.0000 128.2500 Du        
   7886 ****       101.5000 156.0000 128.5000 Du        
   7887 ****       101.5000 156.0000 128.7500 Du        
   7888 ****       101.5000 156.0000 129.0000 Du        
   7889 ****       101.5000 156.0000 129.2500 Du        
   7890 ****       101.5000 156.2500 126.7500 Du        
   7891 ****       101.5000 156.2500 127.0000 Du        
   7892 ****       101.5000 156.2500 127.2500 Du        
   7893 ****       101.5000 156.2500 127.5000 Du        
   7894 ****       101.5000 156.2500 127.7500 Du        
   7895 ****       101.5000 156.2500 128.0000 Du        
   7896 ****       101.5000 156.2500 128.2500 Du        
   7897 ****       101.5000 156.2500 128.5000 Du        
   7898 ****       101.5000 156.2500 128.7500 Du        
   7899 ****       101.5000 156.2500 129.0000 Du        
   7900 ****       101.5000 156.5000 126.7500 Du        
   7901 ****       101.5000 156.5000 127.0000 Du        
   7902 ****       101.5000 156.5000 127.2500 Du        
   7903 ****       101.5000 156.5000 127.5000 Du        
   7904 ****       101.5000 156.5000 127.7500 Du        
   7905 ****       101.5000 156.5000 128.0000 Du        
   7906 ****       101.5000 156.5000 128.2500 Du        
   7907 ****       101.5000 156.5000 128.5000 Du        
   7908 ****       101.5000 156.5000 128.7500 Du        
   7909 ****       101.5000 156.5000 129.0000 Du        
   7910 ****       101.5000 156.7500 126.7500 Du        
   7911 ****       101.5000 156.7500 127.0000 Du        
   7912 ****       101.5000 156.7500 127.2500 Du        
   7913 ****       101.5000 156.7500 127.5000 Du        
   7914 ****       101.5000 156.7500 127.7500 Du        
   7915 ****       101.5000 156.7500 128.0000 Du        
   7916 ****       101.5000 156.7500 128.2500 Du        
   7917 ****       101.5000 156.7500 128.5000 Du        
   7918 ****       101.5000 156.7500 128.7500 Du        
   7919 ****       101.5000 157.0000 127.0000 Du        
   7920 ****       101.5000 157.0000 127.2500 Du        
   7921 ****       101.5000 157.0000 127.5000 Du        
   7922 ****       101.5000 157.0000 127.7500 Du        
   7923 ****       101.5000 157.0000 128.0000 Du        
   7924 ****       101.5000 157.0000 128.2500 Du        
   7925 ****       101.5000 157.0000 128.5000 Du        
   7926 ****       101.5000 157.0000 128.7500 Du        
   7927 ****       101.5000 157.2500 127.0000 Du        
   7928 ****       101.5000 157.2500 127.2500 Du        
   7929 ****       101.5000 157.2500 127.5000 Du        
   7930 ****       101.5000 157.2500 127.7500 Du        
   7931 ****       101.5000 157.2500 128.0000 Du        
   7932 ****       101.5000 157.2500 128.2500 Du        
   7933 ****       101.5000 157.2500 128.5000 Du        
   7934 ****       101.5000 157.2500 128.7500 Du        
   7935 ****       101.5000 157.5000 127.2500 Du        
   7936 ****       101.5000 157.5000 127.5000 Du        
   7937 ****       101.5000 157.5000 127.7500 Du        
   7938 ****       101.5000 157.5000 128.0000 Du        
   7939 ****       101.5000 157.5000 128.2500 Du        
   7940 ****       101.5000 157.5000 128.5000 Du        
   7941 ****       101.5000 157.5000 128.7500 Du        
   7942 ****       101.5000 157.7500 127.5000 Du        
   7943 ****       101.5000 157.7500 127.7500 Du        
   7944 ****       101.5000 157.7500 128.0000 Du        
   7945 ****       101.5000 157.7500 128.2500 Du        
   7946 ****       101.5000 157.7500 128.5000 Du        
   7947 ****       101.7500 134.2500 136.2500 Du        
   7948 ****       101.7500 134.2500 136.5000 Du        
   7949 ****       101.7500 134.2500 136.7500 Du        
   7950 ****       101.7500 134.2500 137.0000 Du        
   7951 ****       101.7500 134.2500 137.2500 Du        
   7952 ****       101.7500 134.2500 137.5000 Du        
   7953 ****       101.7500 134.2500 137.7500 Du        
   7954 ****       101.7500 134.2500 138.0000 Du        
   7955 ****       101.7500 134.5000 136.0000 Du        
   7956 ****       101.7500 134.5000 136.2500 Du        
   7957 ****       101.7500 134.5000 136.5000 Du        
   7958 ****       101.7500 134.5000 136.7500 Du        
   7959 ****       101.7500 134.5000 137.0000 Du        
   7960 ****       101.7500 134.5000 137.2500 Du        
   7961 ****       101.7500 134.5000 137.5000 Du        
   7962 ****       101.7500 134.5000 137.7500 Du        
   7963 ****       101.7500 134.5000 138.0000 Du        
   7964 ****       101.7500 134.5000 138.2500 Du        
   7965 ****       101.7500 134.7500 136.0000 Du        
   7966 ****       101.7500 134.7500 136.2500 Du        
   7967 ****       101.7500 134.7500 136.5000 Du        
   7968 ****       101.7500 134.7500 136.7500 Du        
   7969 ****       101.7500 134.7500 137.0000 Du        
   7970 ****       101.7500 134.7500 137.2500 Du        
   7971 ****       101.7500 134.7500 137.5000 Du        
   7972 ****       101.7500 134.7500 137.7500 Du        
   7973 ****       101.7500 134.7500 138.0000 Du        
   7974 ****       101.7500 134.7500 138.2500 Du        
   7975 ****       101.7500 135.0000 135.7500 Du        
   7976 ****       101.7500 135.0000 136.0000 Du        
   7977 ****       101.7500 135.0000 136.2500 Du        
   7978 ****       101.7500 135.0000 136.5000 Du        
   7979 ****       101.7500 135.0000 136.7500 Du        
   7980 ****       101.7500 135.0000 137.0000 Du        
   7981 ****       101.7500 135.0000 137.2500 Du        
   7982 ****       101.7500 135.2500 135.7500 Du        
   7983 ****       101.7500 135.2500 136.0000 Du        
   7984 ****       101.7500 135.2500 136.2500 Du        
   7985 ****       101.7500 135.2500 136.5000 Du        
   7986 ****       101.7500 135.2500 136.7500 Du        
   7987 ****       101.7500 135.5000 135.7500 Du        
   7988 ****       101.7500 135.5000 136.0000 Du        
   7989 ****       101.7500 135.5000 136.2500 Du        
   7990 ****       101.7500 151.5000 125.2500 Du        
   7991 ****       101.7500 151.5000 125.5000 Du        
   7992 ****       101.7500 151.7500 125.2500 Du        
   7993 ****       101.7500 151.7500 125.5000 Du        
   7994 ****       101.7500 151.7500 125.7500 Du        
   7995 ****       101.7500 151.7500 126.0000 Du        
   7996 ****       101.7500 152.0000 125.0000 Du        
   7997 ****       101.7500 152.0000 125.2500 Du        
   7998 ****       101.7500 152.0000 125.5000 Du        
   7999 ****       101.7500 152.0000 125.7500 Du        
   8000 ****       101.7500 152.0000 126.0000 Du        
   8001 ****       101.7500 152.0000 126.2500 Du        
   8002 ****       101.7500 152.2500 125.0000 Du        
   8003 ****       101.7500 152.2500 125.2500 Du        
   8004 ****       101.7500 152.2500 125.5000 Du        
   8005 ****       101.7500 152.2500 125.7500 Du        
   8006 ****       101.7500 152.2500 126.0000 Du        
   8007 ****       101.7500 152.2500 126.2500 Du        
   8008 ****       101.7500 152.2500 126.5000 Du        
   8009 ****       101.7500 152.2500 126.7500 Du        
   8010 ****       101.7500 152.5000 125.0000 Du        
   8011 ****       101.7500 152.5000 125.2500 Du        
   8012 ****       101.7500 152.5000 125.5000 Du        
   8013 ****       101.7500 152.5000 125.7500 Du        
   8014 ****       101.7500 152.5000 126.0000 Du        
   8015 ****       101.7500 152.5000 126.2500 Du        
   8016 ****       101.7500 152.5000 126.5000 Du        
   8017 ****       101.7500 152.5000 126.7500 Du        
   8018 ****       101.7500 152.5000 127.0000 Du        
   8019 ****       101.7500 152.7500 125.0000 Du        
   8020 ****       101.7500 152.7500 125.2500 Du        
   8021 ****       101.7500 152.7500 125.5000 Du        
   8022 ****       101.7500 152.7500 125.7500 Du        
   8023 ****       101.7500 152.7500 126.0000 Du        
   8024 ****       101.7500 152.7500 126.2500 Du        
   8025 ****       101.7500 152.7500 126.5000 Du        
   8026 ****       101.7500 152.7500 126.7500 Du        
   8027 ****       101.7500 152.7500 127.0000 Du        
   8028 ****       101.7500 152.7500 127.2500 Du        
   8029 ****       101.7500 152.7500 127.5000 Du        
   8030 ****       101.7500 152.7500 127.7500 Du        
   8031 ****       101.7500 152.7500 128.0000 Du        
   8032 ****       101.7500 153.0000 125.0000 Du        
   8033 ****       101.7500 153.0000 125.2500 Du        
   8034 ****       101.7500 153.0000 125.5000 Du        
   8035 ****       101.7500 153.0000 125.7500 Du        
   8036 ****       101.7500 153.0000 126.0000 Du        
   8037 ****       101.7500 153.0000 126.2500 Du        
   8038 ****       101.7500 153.0000 126.5000 Du        
   8039 ****       101.7500 153.0000 126.7500 Du        
   8040 ****       101.7500 153.0000 127.0000 Du        
   8041 ****       101.7500 153.0000 127.2500 Du        
   8042 ****       101.7500 153.0000 127.5000 Du        
   8043 ****       101.7500 153.0000 127.7500 Du        
   8044 ****       101.7500 153.0000 128.0000 Du        
   8045 ****       101.7500 153.0000 128.2500 Du        
   8046 ****       101.7500 153.2500 125.2500 Du        
   8047 ****       101.7500 153.2500 125.5000 Du        
   8048 ****       101.7500 153.2500 125.7500 Du        
   8049 ****       101.7500 153.2500 126.0000 Du        
   8050 ****       101.7500 153.2500 126.2500 Du        
   8051 ****       101.7500 153.2500 126.5000 Du        
   8052 ****       101.7500 153.2500 126.7500 Du        
   8053 ****       101.7500 153.2500 127.0000 Du        
   8054 ****       101.7500 153.2500 127.2500 Du        
   8055 ****       101.7500 153.2500 127.5000 Du        
   8056 ****       101.7500 153.2500 127.7500 Du        
   8057 ****       101.7500 153.2500 128.0000 Du        
   8058 ****       101.7500 153.2500 128.2500 Du        
   8059 ****       101.7500 153.5000 125.2500 Du        
   8060 ****       101.7500 153.5000 125.5000 Du        
   8061 ****       101.7500 153.5000 125.7500 Du        
   8062 ****       101.7500 153.5000 126.0000 Du        
   8063 ****       101.7500 153.5000 126.2500 Du        
   8064 ****       101.7500 153.5000 126.5000 Du        
   8065 ****       101.7500 153.5000 126.7500 Du        
   8066 ****       101.7500 153.5000 127.0000 Du        
   8067 ****       101.7500 153.5000 127.2500 Du        
   8068 ****       101.7500 153.5000 127.5000 Du        
   8069 ****       101.7500 153.5000 127.7500 Du        
   8070 ****       101.7500 153.5000 128.0000 Du        
   8071 ****       101.7500 153.5000 128.2500 Du        
   8072 ****       101.7500 153.7500 125.5000 Du        
   8073 ****       101.7500 153.7500 125.7500 Du        
   8074 ****       101.7500 153.7500 126.0000 Du        
   8075 ****       101.7500 153.7500 126.2500 Du        
   8076 ****       101.7500 153.7500 126.5000 Du        
   8077 ****       101.7500 153.7500 126.7500 Du        
   8078 ****       101.7500 153.7500 127.0000 Du        
   8079 ****       101.7500 153.7500 127.2500 Du        
   8080 ****       101.7500 153.7500 127.5000 Du        
   8081 ****       101.7500 153.7500 127.7500 Du        
   8082 ****       101.7500 153.7500 128.0000 Du        
   8083 ****       101.7500 153.7500 128.2500 Du        
   8084 ****       101.7500 154.0000 125.5000 Du        
   8085 ****       101.7500 154.0000 125.7500 Du        
   8086 ****       101.7500 154.0000 126.0000 Du        
   8087 ****       101.7500 154.0000 126.2500 Du        
   8088 ****       101.7500 154.0000 126.5000 Du        
   8089 ****       101.7500 154.0000 126.7500 Du        
   8090 ****       101.7500 154.0000 127.0000 Du        
   8091 ****       101.7500 154.0000 127.2500 Du        
   8092 ****       101.7500 154.0000 127.5000 Du        
   8093 ****       101.7500 154.0000 127.7500 Du        
   8094 ****       101.7500 154.0000 128.0000 Du        
   8095 ****       101.7500 154.0000 128.2500 Du        
   8096 ****       101.7500 154.2500 125.5000 Du        
   8097 ****       101.7500 154.2500 125.7500 Du        
   8098 ****       101.7500 154.2500 126.0000 Du        
   8099 ****       101.7500 154.2500 126.2500 Du        
   8100 ****       101.7500 154.2500 126.5000 Du        
   8101 ****       101.7500 154.2500 126.7500 Du        
   8102 ****       101.7500 154.2500 127.0000 Du        
   8103 ****       101.7500 154.2500 127.2500 Du        
   8104 ****       101.7500 154.2500 127.5000 Du        
   8105 ****       101.7500 154.2500 127.7500 Du        
   8106 ****       101.7500 154.2500 128.0000 Du        
   8107 ****       101.7500 154.2500 128.2500 Du        
   8108 ****       101.7500 154.2500 128.5000 Du        
   8109 ****       101.7500 154.5000 125.5000 Du        
   8110 ****       101.7500 154.5000 125.7500 Du        
   8111 ****       101.7500 154.5000 126.0000 Du        
   8112 ****       101.7500 154.5000 126.2500 Du        
   8113 ****       101.7500 154.5000 126.5000 Du        
   8114 ****       101.7500 154.5000 126.7500 Du        
   8115 ****       101.7500 154.5000 127.0000 Du        
   8116 ****       101.7500 154.5000 127.2500 Du        
   8117 ****       101.7500 154.5000 127.5000 Du        
   8118 ****       101.7500 154.5000 127.7500 Du        
   8119 ****       101.7500 154.5000 128.0000 Du        
   8120 ****       101.7500 154.5000 128.2500 Du        
   8121 ****       101.7500 154.5000 128.5000 Du        
   8122 ****       101.7500 154.7500 125.2500 Du        
   8123 ****       101.7500 154.7500 125.5000 Du        
   8124 ****       101.7500 154.7500 125.7500 Du        
   8125 ****       101.7500 154.7500 126.0000 Du        
   8126 ****       101.7500 154.7500 126.2500 Du        
   8127 ****       101.7500 154.7500 126.5000 Du        
   8128 ****       101.7500 154.7500 126.7500 Du        
   8129 ****       101.7500 154.7500 127.0000 Du        
   8130 ****       101.7500 154.7500 127.2500 Du        
   8131 ****       101.7500 154.7500 127.5000 Du        
   8132 ****       101.7500 154.7500 127.7500 Du        
   8133 ****       101.7500 154.7500 128.0000 Du        
   8134 ****       101.7500 154.7500 128.2500 Du        
   8135 ****       101.7500 154.7500 128.5000 Du        
   8136 ****       101.7500 155.0000 125.0000 Du        
   8137 ****       101.7500 155.0000 125.2500 Du        
   8138 ****       101.7500 155.0000 125.5000 Du        
   8139 ****       101.7500 155.0000 125.7500 Du        
   8140 ****       101.7500 155.0000 126.0000 Du        
   8141 ****       101.7500 155.0000 126.2500 Du        
   8142 ****       101.7500 155.0000 126.5000 Du        
   8143 ****       101.7500 155.0000 126.7500 Du        
   8144 ****       101.7500 155.0000 127.0000 Du        
   8145 ****       101.7500 155.0000 127.2500 Du        
   8146 ****       101.7500 155.0000 127.5000 Du        
   8147 ****       101.7500 155.0000 127.7500 Du        
   8148 ****       101.7500 155.0000 128.0000 Du        
   8149 ****       101.7500 155.0000 128.2500 Du        
   8150 ****       101.7500 155.0000 128.5000 Du        
   8151 ****       101.7500 155.0000 128.7500 Du        
   8152 ****       101.7500 155.2500 125.0000 Du        
   8153 ****       101.7500 155.2500 125.2500 Du        
   8154 ****       101.7500 155.2500 125.5000 Du        
   8155 ****       101.7500 155.2500 125.7500 Du        
   8156 ****       101.7500 155.2500 126.0000 Du        
   8157 ****       101.7500 155.2500 126.2500 Du        
   8158 ****       101.7500 155.2500 126.5000 Du        
   8159 ****       101.7500 155.2500 126.7500 Du        
   8160 ****       101.7500 155.2500 127.0000 Du        
   8161 ****       101.7500 155.2500 127.2500 Du        
   8162 ****       101.7500 155.2500 127.5000 Du        
   8163 ****       101.7500 155.2500 127.7500 Du        
   8164 ****       101.7500 155.2500 128.0000 Du        
   8165 ****       101.7500 155.2500 128.2500 Du        
   8166 ****       101.7500 155.2500 128.5000 Du        
   8167 ****       101.7500 155.2500 128.7500 Du        
   8168 ****       101.7500 155.5000 125.0000 Du        
   8169 ****       101.7500 155.5000 125.2500 Du        
   8170 ****       101.7500 155.5000 125.5000 Du        
   8171 ****       101.7500 155.5000 125.7500 Du        
   8172 ****       101.7500 155.5000 126.0000 Du        
   8173 ****       101.7500 155.5000 126.2500 Du        
   8174 ****       101.7500 155.5000 126.5000 Du        
   8175 ****       101.7500 155.5000 126.7500 Du        
   8176 ****       101.7500 155.5000 127.0000 Du        
   8177 ****       101.7500 155.5000 127.2500 Du        
   8178 ****       101.7500 155.5000 127.5000 Du        
   8179 ****       101.7500 155.5000 127.7500 Du        
   8180 ****       101.7500 155.5000 128.0000 Du        
   8181 ****       101.7500 155.5000 128.2500 Du        
   8182 ****       101.7500 155.5000 128.5000 Du        
   8183 ****       101.7500 155.5000 128.7500 Du        
   8184 ****       101.7500 155.5000 129.0000 Du        
   8185 ****       101.7500 155.7500 125.5000 Du        
   8186 ****       101.7500 155.7500 125.7500 Du        
   8187 ****       101.7500 155.7500 126.0000 Du        
   8188 ****       101.7500 155.7500 126.2500 Du        
   8189 ****       101.7500 155.7500 126.5000 Du        
   8190 ****       101.7500 155.7500 126.7500 Du        
   8191 ****       101.7500 155.7500 127.0000 Du        
   8192 ****       101.7500 155.7500 127.2500 Du        
   8193 ****       101.7500 155.7500 127.5000 Du        
   8194 ****       101.7500 155.7500 127.7500 Du        
   8195 ****       101.7500 155.7500 128.0000 Du        
   8196 ****       101.7500 155.7500 128.2500 Du        
   8197 ****       101.7500 155.7500 128.5000 Du        
   8198 ****       101.7500 155.7500 128.7500 Du        
   8199 ****       101.7500 155.7500 129.0000 Du        
   8200 ****       101.7500 156.0000 126.0000 Du        
   8201 ****       101.7500 156.0000 126.2500 Du        
   8202 ****       101.7500 156.0000 126.5000 Du        
   8203 ****       101.7500 156.0000 126.7500 Du        
   8204 ****       101.7500 156.0000 127.0000 Du        
   8205 ****       101.7500 156.0000 127.2500 Du        
   8206 ****       101.7500 156.0000 127.5000 Du        
   8207 ****       101.7500 156.0000 127.7500 Du        
   8208 ****       101.7500 156.0000 128.0000 Du        
   8209 ****       101.7500 156.0000 128.2500 Du        
   8210 ****       101.7500 156.0000 128.5000 Du        
   8211 ****       101.7500 156.0000 128.7500 Du        
   8212 ****       101.7500 156.0000 129.0000 Du        
   8213 ****       101.7500 156.0000 129.2500 Du        
   8214 ****       101.7500 156.2500 126.5000 Du        
   8215 ****       101.7500 156.2500 126.7500 Du        
   8216 ****       101.7500 156.2500 127.0000 Du        
   8217 ****       101.7500 156.2500 127.2500 Du        
   8218 ****       101.7500 156.2500 127.5000 Du        
   8219 ****       101.7500 156.2500 127.7500 Du        
   8220 ****       101.7500 156.2500 128.0000 Du        
   8221 ****       101.7500 156.2500 128.2500 Du        
   8222 ****       101.7500 156.2500 128.5000 Du        
   8223 ****       101.7500 156.2500 128.7500 Du        
   8224 ****       101.7500 156.2500 129.0000 Du        
   8225 ****       101.7500 156.2500 129.2500 Du        
   8226 ****       101.7500 156.5000 126.5000 Du        
   8227 ****       101.7500 156.5000 126.7500 Du        
   8228 ****       101.7500 156.5000 127.0000 Du        
   8229 ****       101.7500 156.5000 127.2500 Du        
   8230 ****       101.7500 156.5000 127.5000 Du        
   8231 ****       101.7500 156.5000 127.7500 Du        
   8232 ****       101.7500 156.5000 128.0000 Du        
   8233 ****       101.7500 156.5000 128.2500 Du        
   8234 ****       101.7500 156.5000 128.5000 Du        
   8235 ****       101.7500 156.5000 128.7500 Du        
   8236 ****       101.7500 156.5000 129.0000 Du        
   8237 ****       101.7500 156.7500 126.7500 Du        
   8238 ****       101.7500 156.7500 127.0000 Du        
   8239 ****       101.7500 156.7500 127.2500 Du        
   8240 ****       101.7500 156.7500 127.5000 Du        
   8241 ****       101.7500 156.7500 127.7500 Du        
   8242 ****       101.7500 156.7500 128.0000 Du        
   8243 ****       101.7500 156.7500 128.2500 Du        
   8244 ****       101.7500 156.7500 128.5000 Du        
   8245 ****       101.7500 156.7500 128.7500 Du        
   8246 ****       101.7500 156.7500 129.0000 Du        
   8247 ****       101.7500 157.0000 127.0000 Du        
   8248 ****       101.7500 157.0000 127.2500 Du        
   8249 ****       101.7500 157.0000 127.5000 Du        
   8250 ****       101.7500 157.0000 127.7500 Du        
   8251 ****       101.7500 157.0000 128.0000 Du        
   8252 ****       101.7500 157.0000 128.2500 Du        
   8253 ****       101.7500 157.0000 128.5000 Du        
   8254 ****       101.7500 157.0000 128.7500 Du        
   8255 ****       101.7500 157.0000 129.0000 Du        
   8256 ****       101.7500 157.2500 127.0000 Du        
   8257 ****       101.7500 157.2500 127.2500 Du        
   8258 ****       101.7500 157.2500 127.5000 Du        
   8259 ****       101.7500 157.2500 127.7500 Du        
   8260 ****       101.7500 157.2500 128.0000 Du        
   8261 ****       101.7500 157.2500 128.2500 Du        
   8262 ****       101.7500 157.2500 128.5000 Du        
   8263 ****       101.7500 157.2500 128.7500 Du        
   8264 ****       101.7500 157.5000 127.2500 Du        
   8265 ****       101.7500 157.5000 127.5000 Du        
   8266 ****       101.7500 157.5000 127.7500 Du        
   8267 ****       101.7500 157.5000 128.0000 Du        
   8268 ****       101.7500 157.5000 128.2500 Du        
   8269 ****       101.7500 157.5000 128.5000 Du        
   8270 ****       101.7500 157.5000 128.7500 Du        
   8271 ****       101.7500 157.7500 127.5000 Du        
   8272 ****       101.7500 157.7500 127.7500 Du        
   8273 ****       101.7500 157.7500 128.0000 Du        
   8274 ****       101.7500 157.7500 128.2500 Du        
   8275 ****       101.7500 157.7500 128.5000 Du        
   8276 ****       101.7500 157.7500 128.7500 Du        
   8277 ****       101.7500 158.0000 127.7500 Du        
   8278 ****       101.7500 158.0000 128.0000 Du        
   8279 ****       101.7500 158.0000 128.2500 Du        
   8280 ****       101.7500 158.0000 128.5000 Du        
   8281 ****       101.7500 158.0000 128.7500 Du        
   8282 ****       102.0000 134.5000 136.0000 Du        
   8283 ****       102.0000 134.5000 136.2500 Du        
   8284 ****       102.0000 134.5000 136.5000 Du        
   8285 ****       102.0000 134.5000 136.7500 Du        
   8286 ****       102.0000 134.5000 137.0000 Du        
   8287 ****       102.0000 134.5000 137.2500 Du        
   8288 ****       102.0000 134.5000 137.5000 Du        
   8289 ****       102.0000 134.5000 137.7500 Du        
   8290 ****       102.0000 134.5000 138.0000 Du        
   8291 ****       102.0000 134.5000 138.2500 Du        
   8292 ****       102.0000 134.7500 135.7500 Du        
   8293 ****       102.0000 134.7500 136.0000 Du        
   8294 ****       102.0000 134.7500 136.2500 Du        
   8295 ****       102.0000 134.7500 136.5000 Du        
   8296 ****       102.0000 134.7500 136.7500 Du        
   8297 ****       102.0000 134.7500 137.0000 Du        
   8298 ****       102.0000 134.7500 137.2500 Du        
   8299 ****       102.0000 134.7500 137.5000 Du        
   8300 ****       102.0000 134.7500 137.7500 Du        
   8301 ****       102.0000 134.7500 138.0000 Du        
   8302 ****       102.0000 134.7500 138.2500 Du        
   8303 ****       102.0000 135.0000 135.7500 Du        
   8304 ****       102.0000 135.0000 136.0000 Du        
   8305 ****       102.0000 135.0000 136.2500 Du        
   8306 ****       102.0000 135.0000 136.5000 Du        
   8307 ****       102.0000 135.0000 136.7500 Du        
   8308 ****       102.0000 135.0000 137.0000 Du        
   8309 ****       102.0000 135.0000 137.2500 Du        
   8310 ****       102.0000 135.2500 135.7500 Du        
   8311 ****       102.0000 135.2500 136.0000 Du        
   8312 ****       102.0000 135.2500 136.2500 Du        
   8313 ****       102.0000 135.2500 136.5000 Du        
   8314 ****       102.0000 135.2500 136.7500 Du        
   8315 ****       102.0000 135.5000 135.7500 Du        
   8316 ****       102.0000 135.5000 136.0000 Du        
   8317 ****       102.0000 135.5000 136.2500 Du        
   8318 ****       102.0000 152.0000 125.5000 Du        
   8319 ****       102.0000 152.0000 125.7500 Du        
   8320 ****       102.0000 152.0000 126.0000 Du        
   8321 ****       102.0000 152.2500 125.2500 Du        
   8322 ****       102.0000 152.2500 125.5000 Du        
   8323 ****       102.0000 152.2500 125.7500 Du        
   8324 ****       102.0000 152.2500 126.0000 Du        
   8325 ****       102.0000 152.2500 126.2500 Du        
   8326 ****       102.0000 152.5000 125.2500 Du        
   8327 ****       102.0000 152.5000 125.5000 Du        
   8328 ****       102.0000 152.5000 125.7500 Du        
   8329 ****       102.0000 152.5000 126.0000 Du        
   8330 ****       102.0000 152.5000 126.2500 Du        
   8331 ****       102.0000 152.5000 126.5000 Du        
   8332 ****       102.0000 152.5000 126.7500 Du        
   8333 ****       102.0000 152.7500 125.2500 Du        
   8334 ****       102.0000 152.7500 125.5000 Du        
   8335 ****       102.0000 152.7500 125.7500 Du        
   8336 ****       102.0000 152.7500 126.0000 Du        
   8337 ****       102.0000 152.7500 126.2500 Du        
   8338 ****       102.0000 152.7500 126.5000 Du        
   8339 ****       102.0000 152.7500 126.7500 Du        
   8340 ****       102.0000 152.7500 127.0000 Du        
   8341 ****       102.0000 152.7500 127.2500 Du        
   8342 ****       102.0000 153.0000 125.2500 Du        
   8343 ****       102.0000 153.0000 125.5000 Du        
   8344 ****       102.0000 153.0000 125.7500 Du        
   8345 ****       102.0000 153.0000 126.0000 Du        
   8346 ****       102.0000 153.0000 126.2500 Du        
   8347 ****       102.0000 153.0000 126.5000 Du        
   8348 ****       102.0000 153.0000 126.7500 Du        
   8349 ****       102.0000 153.0000 127.0000 Du        
   8350 ****       102.0000 153.0000 127.2500 Du        
   8351 ****       102.0000 153.0000 127.5000 Du        
   8352 ****       102.0000 153.0000 127.7500 Du        
   8353 ****       102.0000 153.0000 128.0000 Du        
   8354 ****       102.0000 153.2500 125.2500 Du        
   8355 ****       102.0000 153.2500 125.5000 Du        
   8356 ****       102.0000 153.2500 125.7500 Du        
   8357 ****       102.0000 153.2500 126.0000 Du        
   8358 ****       102.0000 153.2500 126.2500 Du        
   8359 ****       102.0000 153.2500 126.5000 Du        
   8360 ****       102.0000 153.2500 126.7500 Du        
   8361 ****       102.0000 153.2500 127.0000 Du        
   8362 ****       102.0000 153.2500 127.2500 Du        
   8363 ****       102.0000 153.2500 127.5000 Du        
   8364 ****       102.0000 153.2500 127.7500 Du        
   8365 ****       102.0000 153.2500 128.0000 Du        
   8366 ****       102.0000 153.2500 128.2500 Du        
   8367 ****       102.0000 153.5000 125.5000 Du        
   8368 ****       102.0000 153.5000 125.7500 Du        
   8369 ****       102.0000 153.5000 126.0000 Du        
   8370 ****       102.0000 153.5000 126.2500 Du        
   8371 ****       102.0000 153.5000 126.5000 Du        
   8372 ****       102.0000 153.5000 126.7500 Du        
   8373 ****       102.0000 153.5000 127.0000 Du        
   8374 ****       102.0000 153.5000 127.2500 Du        
   8375 ****       102.0000 153.5000 127.5000 Du        
   8376 ****       102.0000 153.5000 127.7500 Du        
   8377 ****       102.0000 153.5000 128.0000 Du        
   8378 ****       102.0000 153.5000 128.2500 Du        
   8379 ****       102.0000 153.7500 125.5000 Du        
   8380 ****       102.0000 153.7500 125.7500 Du        
   8381 ****       102.0000 153.7500 126.0000 Du        
   8382 ****       102.0000 153.7500 126.2500 Du        
   8383 ****       102.0000 153.7500 126.5000 Du        
   8384 ****       102.0000 153.7500 126.7500 Du        
   8385 ****       102.0000 153.7500 127.0000 Du        
   8386 ****       102.0000 153.7500 127.2500 Du        
   8387 ****       102.0000 153.7500 127.5000 Du        
   8388 ****       102.0000 153.7500 127.7500 Du        
   8389 ****       102.0000 153.7500 128.0000 Du        
   8390 ****       102.0000 153.7500 128.2500 Du        
   8391 ****       102.0000 154.0000 125.5000 Du        
   8392 ****       102.0000 154.0000 125.7500 Du        
   8393 ****       102.0000 154.0000 126.0000 Du        
   8394 ****       102.0000 154.0000 126.2500 Du        
   8395 ****       102.0000 154.0000 126.5000 Du        
   8396 ****       102.0000 154.0000 126.7500 Du        
   8397 ****       102.0000 154.0000 127.0000 Du        
   8398 ****       102.0000 154.0000 127.2500 Du        
   8399 ****       102.0000 154.0000 127.5000 Du        
   8400 ****       102.0000 154.0000 127.7500 Du        
   8401 ****       102.0000 154.0000 128.0000 Du        
   8402 ****       102.0000 154.0000 128.2500 Du        
   8403 ****       102.0000 154.2500 125.7500 Du        
   8404 ****       102.0000 154.2500 126.0000 Du        
   8405 ****       102.0000 154.2500 126.2500 Du        
   8406 ****       102.0000 154.2500 126.5000 Du        
   8407 ****       102.0000 154.2500 126.7500 Du        
   8408 ****       102.0000 154.2500 127.0000 Du        
   8409 ****       102.0000 154.2500 127.2500 Du        
   8410 ****       102.0000 154.2500 127.5000 Du        
   8411 ****       102.0000 154.2500 127.7500 Du        
   8412 ****       102.0000 154.2500 128.0000 Du        
   8413 ****       102.0000 154.2500 128.2500 Du        
   8414 ****       102.0000 154.2500 128.5000 Du        
   8415 ****       102.0000 154.5000 125.7500 Du        
   8416 ****       102.0000 154.5000 126.0000 Du        
   8417 ****       102.0000 154.5000 126.2500 Du        
   8418 ****       102.0000 154.5000 126.5000 Du        
   8419 ****       102.0000 154.5000 126.7500 Du        
   8420 ****       102.0000 154.5000 127.0000 Du        
   8421 ****       102.0000 154.5000 127.2500 Du        
   8422 ****       102.0000 154.5000 127.5000 Du        
   8423 ****       102.0000 154.5000 127.7500 Du        
   8424 ****       102.0000 154.5000 128.0000 Du        
   8425 ****       102.0000 154.5000 128.2500 Du        
   8426 ****       102.0000 154.7500 125.7500 Du        
   8427 ****       102.0000 154.7500 126.0000 Du        
   8428 ****       102.0000 154.7500 126.2500 Du        
   8429 ****       102.0000 154.7500 126.5000 Du        
   8430 ****       102.0000 154.7500 126.7500 Du        
   8431 ****       102.0000 154.7500 127.0000 Du        
   8432 ****       102.0000 154.7500 127.2500 Du        
   8433 ****       102.0000 154.7500 127.5000 Du        
   8434 ****       102.0000 154.7500 127.7500 Du        
   8435 ****       102.0000 154.7500 128.0000 Du        
   8436 ****       102.0000 154.7500 128.2500 Du        
   8437 ****       102.0000 154.7500 128.5000 Du        
   8438 ****       102.0000 155.0000 125.2500 Du        
   8439 ****       102.0000 155.0000 125.5000 Du        
   8440 ****       102.0000 155.0000 125.7500 Du        
   8441 ****       102.0000 155.0000 126.0000 Du        
   8442 ****       102.0000 155.0000 126.2500 Du        
   8443 ****       102.0000 155.0000 126.5000 Du        
   8444 ****       102.0000 155.0000 126.7500 Du        
   8445 ****       102.0000 155.0000 127.0000 Du        
   8446 ****       102.0000 155.0000 127.2500 Du        
   8447 ****       102.0000 155.0000 127.5000 Du        
   8448 ****       102.0000 155.0000 127.7500 Du        
   8449 ****       102.0000 155.0000 128.0000 Du        
   8450 ****       102.0000 155.0000 128.2500 Du        
   8451 ****       102.0000 155.0000 128.5000 Du        
   8452 ****       102.0000 155.0000 128.7500 Du        
   8453 ****       102.0000 155.2500 125.2500 Du        
   8454 ****       102.0000 155.2500 125.5000 Du        
   8455 ****       102.0000 155.2500 125.7500 Du        
   8456 ****       102.0000 155.2500 126.0000 Du        
   8457 ****       102.0000 155.2500 126.2500 Du        
   8458 ****       102.0000 155.2500 126.5000 Du        
   8459 ****       102.0000 155.2500 126.7500 Du        
   8460 ****       102.0000 155.2500 127.0000 Du        
   8461 ****       102.0000 155.2500 127.2500 Du        
   8462 ****       102.0000 155.2500 127.5000 Du        
   8463 ****       102.0000 155.2500 127.7500 Du        
   8464 ****       102.0000 155.2500 128.0000 Du        
   8465 ****       102.0000 155.2500 128.2500 Du        
   8466 ****       102.0000 155.2500 128.5000 Du        
   8467 ****       102.0000 155.2500 128.7500 Du        
   8468 ****       102.0000 155.5000 125.2500 Du        
   8469 ****       102.0000 155.5000 125.5000 Du        
   8470 ****       102.0000 155.5000 125.7500 Du        
   8471 ****       102.0000 155.5000 126.0000 Du        
   8472 ****       102.0000 155.5000 126.2500 Du        
   8473 ****       102.0000 155.5000 126.5000 Du        
   8474 ****       102.0000 155.5000 126.7500 Du        
   8475 ****       102.0000 155.5000 127.0000 Du        
   8476 ****       102.0000 155.5000 127.2500 Du        
   8477 ****       102.0000 155.5000 127.5000 Du        
   8478 ****       102.0000 155.5000 127.7500 Du        
   8479 ****       102.0000 155.5000 128.0000 Du        
   8480 ****       102.0000 155.5000 128.2500 Du        
   8481 ****       102.0000 155.5000 128.5000 Du        
   8482 ****       102.0000 155.5000 128.7500 Du        
   8483 ****       102.0000 155.5000 129.0000 Du        
   8484 ****       102.0000 155.7500 125.2500 Du        
   8485 ****       102.0000 155.7500 125.5000 Du        
   8486 ****       102.0000 155.7500 125.7500 Du        
   8487 ****       102.0000 155.7500 126.0000 Du        
   8488 ****       102.0000 155.7500 126.2500 Du        
   8489 ****       102.0000 155.7500 126.5000 Du        
   8490 ****       102.0000 155.7500 126.7500 Du        
   8491 ****       102.0000 155.7500 127.0000 Du        
   8492 ****       102.0000 155.7500 127.2500 Du        
   8493 ****       102.0000 155.7500 127.5000 Du        
   8494 ****       102.0000 155.7500 127.7500 Du        
   8495 ****       102.0000 155.7500 128.0000 Du        
   8496 ****       102.0000 155.7500 128.2500 Du        
   8497 ****       102.0000 155.7500 128.5000 Du        
   8498 ****       102.0000 155.7500 128.7500 Du        
   8499 ****       102.0000 155.7500 129.0000 Du        
   8500 ****       102.0000 156.0000 125.7500 Du        
   8501 ****       102.0000 156.0000 126.0000 Du        
   8502 ****       102.0000 156.0000 126.2500 Du        
   8503 ****       102.0000 156.0000 126.5000 Du        
   8504 ****       102.0000 156.0000 126.7500 Du        
   8505 ****       102.0000 156.0000 127.0000 Du        
   8506 ****       102.0000 156.0000 127.2500 Du        
   8507 ****       102.0000 156.0000 127.5000 Du        
   8508 ****       102.0000 156.0000 127.7500 Du        
   8509 ****       102.0000 156.0000 128.0000 Du        
   8510 ****       102.0000 156.0000 128.2500 Du        
   8511 ****       102.0000 156.0000 128.5000 Du        
   8512 ****       102.0000 156.0000 128.7500 Du        
   8513 ****       102.0000 156.0000 129.0000 Du        
   8514 ****       102.0000 156.0000 129.2500 Du        
   8515 ****       102.0000 156.2500 126.2500 Du        
   8516 ****       102.0000 156.2500 126.5000 Du        
   8517 ****       102.0000 156.2500 126.7500 Du        
   8518 ****       102.0000 156.2500 127.0000 Du        
   8519 ****       102.0000 156.2500 127.2500 Du        
   8520 ****       102.0000 156.2500 127.5000 Du        
   8521 ****       102.0000 156.2500 127.7500 Du        
   8522 ****       102.0000 156.2500 128.0000 Du        
   8523 ****       102.0000 156.2500 128.2500 Du        
   8524 ****       102.0000 156.2500 128.5000 Du        
   8525 ****       102.0000 156.2500 128.7500 Du        
   8526 ****       102.0000 156.2500 129.0000 Du        
   8527 ****       102.0000 156.2500 129.2500 Du        
   8528 ****       102.0000 156.5000 126.7500 Du        
   8529 ****       102.0000 156.5000 127.0000 Du        
   8530 ****       102.0000 156.5000 127.2500 Du        
   8531 ****       102.0000 156.5000 127.5000 Du        
   8532 ****       102.0000 156.5000 127.7500 Du        
   8533 ****       102.0000 156.5000 128.0000 Du        
   8534 ****       102.0000 156.5000 128.2500 Du        
   8535 ****       102.0000 156.5000 128.5000 Du        
   8536 ****       102.0000 156.5000 128.7500 Du        
   8537 ****       102.0000 156.5000 129.0000 Du        
   8538 ****       102.0000 156.5000 129.2500 Du        
   8539 ****       102.0000 156.7500 126.7500 Du        
   8540 ****       102.0000 156.7500 127.0000 Du        
   8541 ****       102.0000 156.7500 127.2500 Du        
   8542 ****       102.0000 156.7500 127.5000 Du        
   8543 ****       102.0000 156.7500 127.7500 Du        
   8544 ****       102.0000 156.7500 128.0000 Du        
   8545 ****       102.0000 156.7500 128.2500 Du        
   8546 ****       102.0000 156.7500 128.5000 Du        
   8547 ****       102.0000 156.7500 128.7500 Du        
   8548 ****       102.0000 156.7500 129.0000 Du        
   8549 ****       102.0000 156.7500 129.2500 Du        
   8550 ****       102.0000 157.0000 126.7500 Du        
   8551 ****       102.0000 157.0000 127.0000 Du        
   8552 ****       102.0000 157.0000 127.2500 Du        
   8553 ****       102.0000 157.0000 127.5000 Du        
   8554 ****       102.0000 157.0000 127.7500 Du        
   8555 ****       102.0000 157.0000 128.0000 Du        
   8556 ****       102.0000 157.0000 128.2500 Du        
   8557 ****       102.0000 157.0000 128.5000 Du        
   8558 ****       102.0000 157.0000 128.7500 Du        
   8559 ****       102.0000 157.0000 129.0000 Du        
   8560 ****       102.0000 157.2500 127.0000 Du        
   8561 ****       102.0000 157.2500 127.2500 Du        
   8562 ****       102.0000 157.2500 127.5000 Du        
   8563 ****       102.0000 157.2500 127.7500 Du        
   8564 ****       102.0000 157.2500 128.0000 Du        
   8565 ****       102.0000 157.2500 128.2500 Du        
   8566 ****       102.0000 157.2500 128.5000 Du        
   8567 ****       102.0000 157.2500 128.7500 Du        
   8568 ****       102.0000 157.2500 129.0000 Du        
   8569 ****       102.0000 157.5000 127.2500 Du        
   8570 ****       102.0000 157.5000 127.5000 Du        
   8571 ****       102.0000 157.5000 127.7500 Du        
   8572 ****       102.0000 157.5000 128.0000 Du        
   8573 ****       102.0000 157.5000 128.2500 Du        
   8574 ****       102.0000 157.5000 128.5000 Du        
   8575 ****       102.0000 157.5000 128.7500 Du        
   8576 ****       102.0000 157.5000 129.0000 Du        
   8577 ****       102.0000 157.7500 127.2500 Du        
   8578 ****       102.0000 157.7500 127.5000 Du        
   8579 ****       102.0000 157.7500 127.7500 Du        
   8580 ****       102.0000 157.7500 128.0000 Du        
   8581 ****       102.0000 157.7500 128.2500 Du        
   8582 ****       102.0000 157.7500 128.5000 Du        
   8583 ****       102.0000 157.7500 128.7500 Du        
   8584 ****       102.0000 157.7500 129.0000 Du        
   8585 ****       102.0000 158.0000 127.5000 Du        
   8586 ****       102.0000 158.0000 127.7500 Du        
   8587 ****       102.0000 158.0000 128.0000 Du        
   8588 ****       102.0000 158.0000 128.2500 Du        
   8589 ****       102.0000 158.0000 128.5000 Du        
   8590 ****       102.0000 158.0000 128.7500 Du        
   8591 ****       102.0000 158.0000 129.0000 Du        
   8592 ****       102.0000 158.2500 128.5000 Du        
   8593 ****       102.0000 158.2500 128.7500 Du        
   8594 ****       102.2500 134.5000 136.0000 Du        
   8595 ****       102.2500 134.5000 136.2500 Du        
   8596 ****       102.2500 134.5000 136.5000 Du        
   8597 ****       102.2500 134.5000 136.7500 Du        
   8598 ****       102.2500 134.5000 137.0000 Du        
   8599 ****       102.2500 134.7500 135.7500 Du        
   8600 ****       102.2500 134.7500 136.0000 Du        
   8601 ****       102.2500 134.7500 136.2500 Du        
   8602 ****       102.2500 134.7500 136.5000 Du        
   8603 ****       102.2500 134.7500 136.7500 Du        
   8604 ****       102.2500 134.7500 137.0000 Du        
   8605 ****       102.2500 134.7500 137.2500 Du        
   8606 ****       102.2500 135.0000 135.7500 Du        
   8607 ****       102.2500 135.0000 136.0000 Du        
   8608 ****       102.2500 135.0000 136.2500 Du        
   8609 ****       102.2500 135.0000 136.5000 Du        
   8610 ****       102.2500 135.0000 136.7500 Du        
   8611 ****       102.2500 135.0000 137.0000 Du        
   8612 ****       102.2500 135.0000 137.2500 Du        
   8613 ****       102.2500 135.2500 135.7500 Du        
   8614 ****       102.2500 135.2500 136.0000 Du        
   8615 ****       102.2500 135.2500 136.2500 Du        
   8616 ****       102.2500 135.2500 136.5000 Du        
   8617 ****       102.2500 135.2500 136.7500 Du        
   8618 ****       102.2500 135.5000 135.7500 Du        
   8619 ****       102.2500 135.5000 136.0000 Du        
   8620 ****       102.2500 135.5000 136.2500 Du        
   8621 ****       102.2500 152.2500 125.7500 Du        
   8622 ****       102.2500 152.5000 125.7500 Du        
   8623 ****       102.2500 152.5000 126.0000 Du        
   8624 ****       102.2500 152.5000 126.2500 Du        
   8625 ****       102.2500 152.7500 125.7500 Du        
   8626 ****       102.2500 152.7500 126.0000 Du        
   8627 ****       102.2500 152.7500 126.2500 Du        
   8628 ****       102.2500 152.7500 126.5000 Du        
   8629 ****       102.2500 152.7500 126.7500 Du        
   8630 ****       102.2500 153.0000 125.5000 Du        
   8631 ****       102.2500 153.0000 125.7500 Du        
   8632 ****       102.2500 153.0000 126.0000 Du        
   8633 ****       102.2500 153.0000 126.2500 Du        
   8634 ****       102.2500 153.0000 126.5000 Du        
   8635 ****       102.2500 153.0000 126.7500 Du        
   8636 ****       102.2500 153.0000 127.0000 Du        
   8637 ****       102.2500 153.0000 127.2500 Du        
   8638 ****       102.2500 153.2500 125.7500 Du        
   8639 ****       102.2500 153.2500 126.0000 Du        
   8640 ****       102.2500 153.2500 126.2500 Du        
   8641 ****       102.2500 153.2500 126.5000 Du        
   8642 ****       102.2500 153.2500 126.7500 Du        
   8643 ****       102.2500 153.2500 127.0000 Du        
   8644 ****       102.2500 153.2500 127.2500 Du        
   8645 ****       102.2500 153.2500 127.5000 Du        
   8646 ****       102.2500 153.2500 127.7500 Du        
   8647 ****       102.2500 153.2500 128.0000 Du        
   8648 ****       102.2500 153.5000 125.7500 Du        
   8649 ****       102.2500 153.5000 126.0000 Du        
   8650 ****       102.2500 153.5000 126.2500 Du        
   8651 ****       102.2500 153.5000 126.5000 Du        
   8652 ****       102.2500 153.5000 126.7500 Du        
   8653 ****       102.2500 153.5000 127.0000 Du        
   8654 ****       102.2500 153.5000 127.2500 Du        
   8655 ****       102.2500 153.5000 127.5000 Du        
   8656 ****       102.2500 153.5000 127.7500 Du        
   8657 ****       102.2500 153.5000 128.0000 Du        
   8658 ****       102.2500 153.5000 128.2500 Du        
   8659 ****       102.2500 153.7500 125.7500 Du        
   8660 ****       102.2500 153.7500 126.0000 Du        
   8661 ****       102.2500 153.7500 126.2500 Du        
   8662 ****       102.2500 153.7500 126.5000 Du        
   8663 ****       102.2500 153.7500 126.7500 Du        
   8664 ****       102.2500 153.7500 127.0000 Du        
   8665 ****       102.2500 153.7500 127.2500 Du        
   8666 ****       102.2500 153.7500 127.5000 Du        
   8667 ****       102.2500 153.7500 127.7500 Du        
   8668 ****       102.2500 153.7500 128.0000 Du        
   8669 ****       102.2500 153.7500 128.2500 Du        
   8670 ****       102.2500 154.0000 125.7500 Du        
   8671 ****       102.2500 154.0000 126.0000 Du        
   8672 ****       102.2500 154.0000 126.2500 Du        
   8673 ****       102.2500 154.0000 126.5000 Du        
   8674 ****       102.2500 154.0000 126.7500 Du        
   8675 ****       102.2500 154.0000 127.0000 Du        
   8676 ****       102.2500 154.0000 127.2500 Du        
   8677 ****       102.2500 154.0000 127.5000 Du        
   8678 ****       102.2500 154.0000 127.7500 Du        
   8679 ****       102.2500 154.0000 128.0000 Du        
   8680 ****       102.2500 154.0000 128.2500 Du        
   8681 ****       102.2500 154.2500 126.0000 Du        
   8682 ****       102.2500 154.2500 126.2500 Du        
   8683 ****       102.2500 154.2500 126.5000 Du        
   8684 ****       102.2500 154.2500 126.7500 Du        
   8685 ****       102.2500 154.2500 127.0000 Du        
   8686 ****       102.2500 154.2500 127.2500 Du        
   8687 ****       102.2500 154.2500 127.5000 Du        
   8688 ****       102.2500 154.2500 127.7500 Du        
   8689 ****       102.2500 154.2500 128.0000 Du        
   8690 ****       102.2500 154.2500 128.2500 Du        
   8691 ****       102.2500 154.5000 126.0000 Du        
   8692 ****       102.2500 154.5000 126.2500 Du        
   8693 ****       102.2500 154.5000 126.5000 Du        
   8694 ****       102.2500 154.5000 126.7500 Du        
   8695 ****       102.2500 154.5000 127.0000 Du        
   8696 ****       102.2500 154.5000 127.2500 Du        
   8697 ****       102.2500 154.5000 127.5000 Du        
   8698 ****       102.2500 154.5000 127.7500 Du        
   8699 ****       102.2500 154.5000 128.0000 Du        
   8700 ****       102.2500 154.5000 128.2500 Du        
   8701 ****       102.2500 154.7500 126.0000 Du        
   8702 ****       102.2500 154.7500 126.2500 Du        
   8703 ****       102.2500 154.7500 126.5000 Du        
   8704 ****       102.2500 154.7500 126.7500 Du        
   8705 ****       102.2500 154.7500 127.0000 Du        
   8706 ****       102.2500 154.7500 127.2500 Du        
   8707 ****       102.2500 154.7500 127.5000 Du        
   8708 ****       102.2500 154.7500 127.7500 Du        
   8709 ****       102.2500 154.7500 128.0000 Du        
   8710 ****       102.2500 154.7500 128.2500 Du        
   8711 ****       102.2500 154.7500 128.5000 Du        
   8712 ****       102.2500 155.0000 125.7500 Du        
   8713 ****       102.2500 155.0000 126.0000 Du        
   8714 ****       102.2500 155.0000 126.2500 Du        
   8715 ****       102.2500 155.0000 126.5000 Du        
   8716 ****       102.2500 155.0000 126.7500 Du        
   8717 ****       102.2500 155.0000 127.0000 Du        
   8718 ****       102.2500 155.0000 127.2500 Du        
   8719 ****       102.2500 155.0000 127.5000 Du        
   8720 ****       102.2500 155.0000 127.7500 Du        
   8721 ****       102.2500 155.0000 128.0000 Du        
   8722 ****       102.2500 155.0000 128.2500 Du        
   8723 ****       102.2500 155.0000 128.5000 Du        
   8724 ****       102.2500 155.2500 125.7500 Du        
   8725 ****       102.2500 155.2500 126.0000 Du        
   8726 ****       102.2500 155.2500 126.2500 Du        
   8727 ****       102.2500 155.2500 126.5000 Du        
   8728 ****       102.2500 155.2500 126.7500 Du        
   8729 ****       102.2500 155.2500 127.0000 Du        
   8730 ****       102.2500 155.2500 127.2500 Du        
   8731 ****       102.2500 155.2500 127.5000 Du        
   8732 ****       102.2500 155.2500 127.7500 Du        
   8733 ****       102.2500 155.2500 128.0000 Du        
   8734 ****       102.2500 155.2500 128.2500 Du        
   8735 ****       102.2500 155.2500 128.5000 Du        
   8736 ****       102.2500 155.2500 128.7500 Du        
   8737 ****       102.2500 155.5000 125.7500 Du        
   8738 ****       102.2500 155.5000 126.0000 Du        
   8739 ****       102.2500 155.5000 126.2500 Du        
   8740 ****       102.2500 155.5000 127.0000 Du        
   8741 ****       102.2500 155.5000 127.2500 Du        
   8742 ****       102.2500 155.5000 127.5000 Du        
   8743 ****       102.2500 155.5000 127.7500 Du        
   8744 ****       102.2500 155.5000 128.0000 Du        
   8745 ****       102.2500 155.5000 128.2500 Du        
   8746 ****       102.2500 155.5000 128.5000 Du        
   8747 ****       102.2500 155.5000 128.7500 Du        
   8748 ****       102.2500 155.7500 125.2500 Du        
   8749 ****       102.2500 155.7500 125.7500 Du        
   8750 ****       102.2500 155.7500 126.0000 Du        
   8751 ****       102.2500 155.7500 126.2500 Du        
   8752 ****       102.2500 155.7500 126.5000 Du        
   8753 ****       102.2500 155.7500 126.7500 Du        
   8754 ****       102.2500 155.7500 127.0000 Du        
   8755 ****       102.2500 155.7500 127.2500 Du        
   8756 ****       102.2500 155.7500 127.5000 Du        
   8757 ****       102.2500 155.7500 127.7500 Du        
   8758 ****       102.2500 155.7500 128.0000 Du        
   8759 ****       102.2500 155.7500 128.2500 Du        
   8760 ****       102.2500 155.7500 128.5000 Du        
   8761 ****       102.2500 155.7500 128.7500 Du        
   8762 ****       102.2500 155.7500 129.0000 Du        
   8763 ****       102.2500 156.0000 125.7500 Du        
   8764 ****       102.2500 156.0000 126.0000 Du        
   8765 ****       102.2500 156.0000 126.2500 Du        
   8766 ****       102.2500 156.0000 126.5000 Du        
   8767 ****       102.2500 156.0000 126.7500 Du        
   8768 ****       102.2500 156.0000 127.0000 Du        
   8769 ****       102.2500 156.0000 127.2500 Du        
   8770 ****       102.2500 156.0000 127.5000 Du        
   8771 ****       102.2500 156.0000 127.7500 Du        
   8772 ****       102.2500 156.0000 128.0000 Du        
   8773 ****       102.2500 156.0000 128.2500 Du        
   8774 ****       102.2500 156.0000 128.5000 Du        
   8775 ****       102.2500 156.0000 128.7500 Du        
   8776 ****       102.2500 156.0000 129.0000 Du        
   8777 ****       102.2500 156.0000 129.2500 Du        
   8778 ****       102.2500 156.2500 126.0000 Du        
   8779 ****       102.2500 156.2500 126.2500 Du        
   8780 ****       102.2500 156.2500 126.5000 Du        
   8781 ****       102.2500 156.2500 126.7500 Du        
   8782 ****       102.2500 156.2500 127.0000 Du        
   8783 ****       102.2500 156.2500 127.2500 Du        
   8784 ****       102.2500 156.2500 127.5000 Du        
   8785 ****       102.2500 156.2500 127.7500 Du        
   8786 ****       102.2500 156.2500 128.0000 Du        
   8787 ****       102.2500 156.2500 128.2500 Du        
   8788 ****       102.2500 156.2500 128.5000 Du        
   8789 ****       102.2500 156.2500 128.7500 Du        
   8790 ****       102.2500 156.2500 129.0000 Du        
   8791 ****       102.2500 156.2500 129.2500 Du        
   8792 ****       102.2500 156.5000 126.5000 Du        
   8793 ****       102.2500 156.5000 126.7500 Du        
   8794 ****       102.2500 156.5000 127.0000 Du        
   8795 ****       102.2500 156.5000 127.2500 Du        
   8796 ****       102.2500 156.5000 127.5000 Du        
   8797 ****       102.2500 156.5000 127.7500 Du        
   8798 ****       102.2500 156.5000 128.0000 Du        
   8799 ****       102.2500 156.5000 128.2500 Du        
   8800 ****       102.2500 156.5000 128.5000 Du        
   8801 ****       102.2500 156.5000 128.7500 Du        
   8802 ****       102.2500 156.5000 129.0000 Du        
   8803 ****       102.2500 156.5000 129.2500 Du        
   8804 ****       102.2500 156.5000 129.5000 Du        
   8805 ****       102.2500 156.7500 126.7500 Du        
   8806 ****       102.2500 156.7500 127.0000 Du        
   8807 ****       102.2500 156.7500 127.2500 Du        
   8808 ****       102.2500 156.7500 127.5000 Du        
   8809 ****       102.2500 156.7500 127.7500 Du        
   8810 ****       102.2500 156.7500 128.0000 Du        
   8811 ****       102.2500 156.7500 128.2500 Du        
   8812 ****       102.2500 156.7500 128.5000 Du        
   8813 ****       102.2500 156.7500 128.7500 Du        
   8814 ****       102.2500 156.7500 129.0000 Du        
   8815 ****       102.2500 156.7500 129.2500 Du        
   8816 ****       102.2500 157.0000 126.7500 Du        
   8817 ****       102.2500 157.0000 127.0000 Du        
   8818 ****       102.2500 157.0000 127.2500 Du        
   8819 ****       102.2500 157.0000 127.5000 Du        
   8820 ****       102.2500 157.0000 127.7500 Du        
   8821 ****       102.2500 157.0000 128.0000 Du        
   8822 ****       102.2500 157.0000 128.2500 Du        
   8823 ****       102.2500 157.0000 128.5000 Du        
   8824 ****       102.2500 157.0000 128.7500 Du        
   8825 ****       102.2500 157.0000 129.0000 Du        
   8826 ****       102.2500 157.0000 129.2500 Du        
   8827 ****       102.2500 157.2500 127.0000 Du        
   8828 ****       102.2500 157.2500 127.2500 Du        
   8829 ****       102.2500 157.2500 127.5000 Du        
   8830 ****       102.2500 157.2500 127.7500 Du        
   8831 ****       102.2500 157.2500 128.0000 Du        
   8832 ****       102.2500 157.2500 128.2500 Du        
   8833 ****       102.2500 157.2500 128.5000 Du        
   8834 ****       102.2500 157.2500 128.7500 Du        
   8835 ****       102.2500 157.2500 129.0000 Du        
   8836 ****       102.2500 157.2500 129.2500 Du        
   8837 ****       102.2500 157.5000 127.0000 Du        
   8838 ****       102.2500 157.5000 127.2500 Du        
   8839 ****       102.2500 157.5000 127.5000 Du        
   8840 ****       102.2500 157.5000 127.7500 Du        
   8841 ****       102.2500 157.5000 128.0000 Du        
   8842 ****       102.2500 157.5000 128.2500 Du        
   8843 ****       102.2500 157.5000 128.5000 Du        
   8844 ****       102.2500 157.5000 128.7500 Du        
   8845 ****       102.2500 157.5000 129.0000 Du        
   8846 ****       102.2500 157.5000 129.2500 Du        
   8847 ****       102.2500 157.7500 127.2500 Du        
   8848 ****       102.2500 157.7500 127.5000 Du        
   8849 ****       102.2500 157.7500 127.7500 Du        
   8850 ****       102.2500 157.7500 128.0000 Du        
   8851 ****       102.2500 157.7500 128.2500 Du        
   8852 ****       102.2500 157.7500 128.5000 Du        
   8853 ****       102.2500 157.7500 128.7500 Du        
   8854 ****       102.2500 157.7500 129.0000 Du        
   8855 ****       102.2500 157.7500 129.2500 Du        
   8856 ****       102.2500 158.0000 127.2500 Du        
   8857 ****       102.2500 158.0000 127.5000 Du        
   8858 ****       102.2500 158.0000 127.7500 Du        
   8859 ****       102.2500 158.0000 128.0000 Du        
   8860 ****       102.2500 158.0000 128.2500 Du        
   8861 ****       102.2500 158.0000 128.5000 Du        
   8862 ****       102.2500 158.0000 128.7500 Du        
   8863 ****       102.2500 158.0000 129.0000 Du        
   8864 ****       102.2500 158.2500 127.7500 Du        
   8865 ****       102.2500 158.2500 128.0000 Du        
   8866 ****       102.2500 158.2500 128.2500 Du        
   8867 ****       102.2500 158.2500 128.5000 Du        
   8868 ****       102.2500 158.2500 128.7500 Du        
   8869 ****       102.2500 158.2500 129.0000 Du        
   8870 ****       102.5000 134.7500 135.7500 Du        
   8871 ****       102.5000 134.7500 136.0000 Du        
   8872 ****       102.5000 134.7500 136.2500 Du        
   8873 ****       102.5000 134.7500 136.5000 Du        
   8874 ****       102.5000 134.7500 136.7500 Du        
   8875 ****       102.5000 134.7500 137.0000 Du        
   8876 ****       102.5000 135.0000 135.7500 Du        
   8877 ****       102.5000 135.0000 136.0000 Du        
   8878 ****       102.5000 135.0000 136.2500 Du        
   8879 ****       102.5000 135.0000 136.5000 Du        
   8880 ****       102.5000 135.0000 136.7500 Du        
   8881 ****       102.5000 135.0000 137.0000 Du        
   8882 ****       102.5000 135.2500 135.7500 Du        
   8883 ****       102.5000 135.2500 136.0000 Du        
   8884 ****       102.5000 135.2500 136.2500 Du        
   8885 ****       102.5000 135.2500 136.5000 Du        
   8886 ****       102.5000 135.2500 136.7500 Du        
   8887 ****       102.5000 135.5000 135.7500 Du        
   8888 ****       102.5000 135.5000 136.0000 Du        
   8889 ****       102.5000 135.5000 136.2500 Du        
   8890 ****       102.5000 152.7500 126.2500 Du        
   8891 ****       102.5000 153.0000 126.0000 Du        
   8892 ****       102.5000 153.0000 126.2500 Du        
   8893 ****       102.5000 153.0000 126.5000 Du        
   8894 ****       102.5000 153.0000 126.7500 Du        
   8895 ****       102.5000 153.0000 127.0000 Du        
   8896 ****       102.5000 153.2500 126.0000 Du        
   8897 ****       102.5000 153.2500 126.2500 Du        
   8898 ****       102.5000 153.2500 126.5000 Du        
   8899 ****       102.5000 153.2500 126.7500 Du        
   8900 ****       102.5000 153.2500 127.0000 Du        
   8901 ****       102.5000 153.2500 127.2500 Du        
   8902 ****       102.5000 153.2500 127.5000 Du        
   8903 ****       102.5000 153.2500 127.7500 Du        
   8904 ****       102.5000 153.5000 126.0000 Du        
   8905 ****       102.5000 153.5000 126.2500 Du        
   8906 ****       102.5000 153.5000 126.5000 Du        
   8907 ****       102.5000 153.5000 126.7500 Du        
   8908 ****       102.5000 153.5000 127.0000 Du        
   8909 ****       102.5000 153.5000 127.2500 Du        
   8910 ****       102.5000 153.5000 127.5000 Du        
   8911 ****       102.5000 153.5000 127.7500 Du        
   8912 ****       102.5000 153.5000 128.0000 Du        
   8913 ****       102.5000 153.7500 126.0000 Du        
   8914 ****       102.5000 153.7500 126.2500 Du        
   8915 ****       102.5000 153.7500 126.5000 Du        
   8916 ****       102.5000 153.7500 126.7500 Du        
   8917 ****       102.5000 153.7500 127.0000 Du        
   8918 ****       102.5000 153.7500 127.2500 Du        
   8919 ****       102.5000 153.7500 127.5000 Du        
   8920 ****       102.5000 153.7500 127.7500 Du        
   8921 ****       102.5000 153.7500 128.0000 Du        
   8922 ****       102.5000 153.7500 128.2500 Du        
   8923 ****       102.5000 154.0000 126.2500 Du        
   8924 ****       102.5000 154.0000 126.5000 Du        
   8925 ****       102.5000 154.0000 126.7500 Du        
   8926 ****       102.5000 154.0000 127.0000 Du        
   8927 ****       102.5000 154.0000 127.2500 Du        
   8928 ****       102.5000 154.0000 127.5000 Du        
   8929 ****       102.5000 154.0000 127.7500 Du        
   8930 ****       102.5000 154.0000 128.0000 Du        
   8931 ****       102.5000 154.0000 128.2500 Du        
   8932 ****       102.5000 154.2500 126.2500 Du        
   8933 ****       102.5000 154.2500 126.5000 Du        
   8934 ****       102.5000 154.2500 126.7500 Du        
   8935 ****       102.5000 154.2500 127.0000 Du        
   8936 ****       102.5000 154.2500 127.2500 Du        
   8937 ****       102.5000 154.2500 127.5000 Du        
   8938 ****       102.5000 154.2500 127.7500 Du        
   8939 ****       102.5000 154.2500 128.0000 Du        
   8940 ****       102.5000 154.2500 128.2500 Du        
   8941 ****       102.5000 154.5000 126.2500 Du        
   8942 ****       102.5000 154.5000 126.5000 Du        
   8943 ****       102.5000 154.5000 126.7500 Du        
   8944 ****       102.5000 154.5000 127.0000 Du        
   8945 ****       102.5000 154.5000 127.2500 Du        
   8946 ****       102.5000 154.5000 127.5000 Du        
   8947 ****       102.5000 154.5000 127.7500 Du        
   8948 ****       102.5000 154.5000 128.0000 Du        
   8949 ****       102.5000 154.5000 128.2500 Du        
   8950 ****       102.5000 154.5000 128.5000 Du        
   8951 ****       102.5000 154.7500 126.2500 Du        
   8952 ****       102.5000 154.7500 126.5000 Du        
   8953 ****       102.5000 154.7500 126.7500 Du        
   8954 ****       102.5000 154.7500 127.0000 Du        
   8955 ****       102.5000 154.7500 127.2500 Du        
   8956 ****       102.5000 154.7500 127.5000 Du        
   8957 ****       102.5000 154.7500 127.7500 Du        
   8958 ****       102.5000 154.7500 128.0000 Du        
   8959 ****       102.5000 154.7500 128.2500 Du        
   8960 ****       102.5000 154.7500 128.5000 Du        
   8961 ****       102.5000 155.0000 126.2500 Du        
   8962 ****       102.5000 155.0000 126.5000 Du        
   8963 ****       102.5000 155.0000 126.7500 Du        
   8964 ****       102.5000 155.0000 127.0000 Du        
   8965 ****       102.5000 155.0000 127.2500 Du        
   8966 ****       102.5000 155.0000 127.5000 Du        
   8967 ****       102.5000 155.0000 127.7500 Du        
   8968 ****       102.5000 155.0000 128.0000 Du        
   8969 ****       102.5000 155.0000 128.2500 Du        
   8970 ****       102.5000 155.0000 128.5000 Du        
   8971 ****       102.5000 155.2500 126.0000 Du        
   8972 ****       102.5000 155.2500 126.2500 Du        
   8973 ****       102.5000 155.2500 126.5000 Du        
   8974 ****       102.5000 155.2500 126.7500 Du        
   8975 ****       102.5000 155.2500 127.0000 Du        
   8976 ****       102.5000 155.2500 127.2500 Du        
   8977 ****       102.5000 155.2500 127.5000 Du        
   8978 ****       102.5000 155.2500 127.7500 Du        
   8979 ****       102.5000 155.2500 128.0000 Du        
   8980 ****       102.5000 155.2500 128.2500 Du        
   8981 ****       102.5000 155.2500 128.5000 Du        
   8982 ****       102.5000 155.2500 128.7500 Du        
   8983 ****       102.5000 155.5000 126.2500 Du        
   8984 ****       102.5000 155.5000 126.5000 Du        
   8985 ****       102.5000 155.5000 126.7500 Du        
   8986 ****       102.5000 155.5000 127.0000 Du        
   8987 ****       102.5000 155.5000 127.2500 Du        
   8988 ****       102.5000 155.5000 127.5000 Du        
   8989 ****       102.5000 155.5000 127.7500 Du        
   8990 ****       102.5000 155.5000 128.0000 Du        
   8991 ****       102.5000 155.5000 128.2500 Du        
   8992 ****       102.5000 155.5000 128.5000 Du        
   8993 ****       102.5000 155.5000 128.7500 Du        
   8994 ****       102.5000 155.7500 125.7500 Du        
   8995 ****       102.5000 155.7500 126.0000 Du        
   8996 ****       102.5000 155.7500 126.2500 Du        
   8997 ****       102.5000 155.7500 126.5000 Du        
   8998 ****       102.5000 155.7500 126.7500 Du        
   8999 ****       102.5000 155.7500 127.0000 Du        
   9000 ****       102.5000 155.7500 127.2500 Du        
   9001 ****       102.5000 155.7500 127.5000 Du        
   9002 ****       102.5000 155.7500 127.7500 Du        
   9003 ****       102.5000 155.7500 128.0000 Du        
   9004 ****       102.5000 155.7500 128.2500 Du        
   9005 ****       102.5000 155.7500 128.5000 Du        
   9006 ****       102.5000 155.7500 128.7500 Du        
   9007 ****       102.5000 155.7500 129.0000 Du        
   9008 ****       102.5000 156.0000 125.7500 Du        
   9009 ****       102.5000 156.0000 126.0000 Du        
   9010 ****       102.5000 156.0000 126.2500 Du        
   9011 ****       102.5000 156.0000 126.5000 Du        
   9012 ****       102.5000 156.0000 126.7500 Du        
   9013 ****       102.5000 156.0000 127.0000 Du        
   9014 ****       102.5000 156.0000 127.2500 Du        
   9015 ****       102.5000 156.0000 127.5000 Du        
   9016 ****       102.5000 156.0000 127.7500 Du        
   9017 ****       102.5000 156.0000 128.0000 Du        
   9018 ****       102.5000 156.0000 128.2500 Du        
   9019 ****       102.5000 156.0000 128.5000 Du        
   9020 ****       102.5000 156.0000 128.7500 Du        
   9021 ****       102.5000 156.0000 129.0000 Du        
   9022 ****       102.5000 156.2500 126.0000 Du        
   9023 ****       102.5000 156.2500 126.2500 Du        
   9024 ****       102.5000 156.2500 126.5000 Du        
   9025 ****       102.5000 156.2500 126.7500 Du        
   9026 ****       102.5000 156.2500 127.0000 Du        
   9027 ****       102.5000 156.2500 127.2500 Du        
   9028 ****       102.5000 156.2500 127.5000 Du        
   9029 ****       102.5000 156.2500 127.7500 Du        
   9030 ****       102.5000 156.2500 128.0000 Du        
   9031 ****       102.5000 156.2500 128.2500 Du        
   9032 ****       102.5000 156.2500 128.5000 Du        
   9033 ****       102.5000 156.2500 128.7500 Du        
   9034 ****       102.5000 156.2500 129.0000 Du        
   9035 ****       102.5000 156.2500 129.2500 Du        
   9036 ****       102.5000 156.5000 126.0000 Du        
   9037 ****       102.5000 156.5000 126.2500 Du        
   9038 ****       102.5000 156.5000 126.5000 Du        
   9039 ****       102.5000 156.5000 126.7500 Du        
   9040 ****       102.5000 156.5000 127.0000 Du        
   9041 ****       102.5000 156.5000 127.2500 Du        
   9042 ****       102.5000 156.5000 127.5000 Du        
   9043 ****       102.5000 156.5000 127.7500 Du        
   9044 ****       102.5000 156.5000 128.0000 Du        
   9045 ****       102.5000 156.5000 128.2500 Du        
   9046 ****       102.5000 156.5000 128.5000 Du        
   9047 ****       102.5000 156.5000 128.7500 Du        
   9048 ****       102.5000 156.5000 129.0000 Du        
   9049 ****       102.5000 156.5000 129.2500 Du        
   9050 ****       102.5000 156.5000 129.5000 Du        
   9051 ****       102.5000 156.7500 126.7500 Du        
   9052 ****       102.5000 156.7500 127.0000 Du        
   9053 ****       102.5000 156.7500 127.2500 Du        
   9054 ****       102.5000 156.7500 127.5000 Du        
   9055 ****       102.5000 156.7500 127.7500 Du        
   9056 ****       102.5000 156.7500 128.0000 Du        
   9057 ****       102.5000 156.7500 128.2500 Du        
   9058 ****       102.5000 156.7500 128.5000 Du        
   9059 ****       102.5000 156.7500 128.7500 Du        
   9060 ****       102.5000 156.7500 129.0000 Du        
   9061 ****       102.5000 156.7500 129.2500 Du        
   9062 ****       102.5000 156.7500 129.5000 Du        
   9063 ****       102.5000 157.0000 126.7500 Du        
   9064 ****       102.5000 157.0000 127.0000 Du        
   9065 ****       102.5000 157.0000 127.2500 Du        
   9066 ****       102.5000 157.0000 127.5000 Du        
   9067 ****       102.5000 157.0000 127.7500 Du        
   9068 ****       102.5000 157.0000 128.0000 Du        
   9069 ****       102.5000 157.0000 128.2500 Du        
   9070 ****       102.5000 157.0000 128.5000 Du        
   9071 ****       102.5000 157.0000 128.7500 Du        
   9072 ****       102.5000 157.0000 129.0000 Du        
   9073 ****       102.5000 157.0000 129.2500 Du        
   9074 ****       102.5000 157.0000 129.5000 Du        
   9075 ****       102.5000 157.2500 127.0000 Du        
   9076 ****       102.5000 157.2500 127.2500 Du        
   9077 ****       102.5000 157.2500 127.5000 Du        
   9078 ****       102.5000 157.2500 127.7500 Du        
   9079 ****       102.5000 157.2500 128.0000 Du        
   9080 ****       102.5000 157.2500 128.2500 Du        
   9081 ****       102.5000 157.2500 128.5000 Du        
   9082 ****       102.5000 157.2500 128.7500 Du        
   9083 ****       102.5000 157.2500 129.0000 Du        
   9084 ****       102.5000 157.2500 129.2500 Du        
   9085 ****       102.5000 157.5000 127.0000 Du        
   9086 ****       102.5000 157.5000 127.2500 Du        
   9087 ****       102.5000 157.5000 127.5000 Du        
   9088 ****       102.5000 157.5000 127.7500 Du        
   9089 ****       102.5000 157.5000 128.0000 Du        
   9090 ****       102.5000 157.5000 128.2500 Du        
   9091 ****       102.5000 157.5000 128.5000 Du        
   9092 ****       102.5000 157.5000 128.7500 Du        
   9093 ****       102.5000 157.5000 129.0000 Du        
   9094 ****       102.5000 157.5000 129.2500 Du        
   9095 ****       102.5000 157.7500 127.2500 Du        
   9096 ****       102.5000 157.7500 127.5000 Du        
   9097 ****       102.5000 157.7500 127.7500 Du        
   9098 ****       102.5000 157.7500 128.0000 Du        
   9099 ****       102.5000 157.7500 128.2500 Du        
   9100 ****       102.5000 157.7500 128.5000 Du        
   9101 ****       102.5000 157.7500 128.7500 Du        
   9102 ****       102.5000 157.7500 129.0000 Du        
   9103 ****       102.5000 157.7500 129.2500 Du        
   9104 ****       102.5000 158.0000 127.2500 Du        
   9105 ****       102.5000 158.0000 127.5000 Du        
   9106 ****       102.5000 158.0000 127.7500 Du        
   9107 ****       102.5000 158.0000 128.0000 Du        
   9108 ****       102.5000 158.0000 128.2500 Du        
   9109 ****       102.5000 158.0000 128.5000 Du        
   9110 ****       102.5000 158.0000 128.7500 Du        
   9111 ****       102.5000 158.0000 129.0000 Du        
   9112 ****       102.5000 158.0000 129.2500 Du        
   9113 ****       102.5000 158.2500 127.5000 Du        
   9114 ****       102.5000 158.2500 127.7500 Du        
   9115 ****       102.5000 158.2500 128.0000 Du        
   9116 ****       102.5000 158.2500 128.2500 Du        
   9117 ****       102.5000 158.2500 128.5000 Du        
   9118 ****       102.5000 158.2500 128.7500 Du        
   9119 ****       102.5000 158.2500 129.0000 Du        
   9120 ****       102.5000 158.5000 127.7500 Du        
   9121 ****       102.5000 158.5000 128.0000 Du        
   9122 ****       102.5000 158.5000 128.2500 Du        
   9123 ****       102.5000 158.5000 128.5000 Du        
   9124 ****       102.5000 158.5000 128.7500 Du        
   9125 ****       102.7500 134.7500 135.7500 Du        
   9126 ****       102.7500 134.7500 136.0000 Du        
   9127 ****       102.7500 134.7500 136.2500 Du        
   9128 ****       102.7500 134.7500 136.5000 Du        
   9129 ****       102.7500 134.7500 136.7500 Du        
   9130 ****       102.7500 134.7500 137.0000 Du        
   9131 ****       102.7500 135.0000 135.7500 Du        
   9132 ****       102.7500 135.0000 136.0000 Du        
   9133 ****       102.7500 135.0000 136.2500 Du        
   9134 ****       102.7500 135.0000 136.5000 Du        
   9135 ****       102.7500 135.0000 136.7500 Du        
   9136 ****       102.7500 135.0000 137.0000 Du        
   9137 ****       102.7500 135.0000 137.2500 Du        
   9138 ****       102.7500 135.2500 135.7500 Du        
   9139 ****       102.7500 135.2500 136.0000 Du        
   9140 ****       102.7500 135.2500 136.2500 Du        
   9141 ****       102.7500 135.2500 136.5000 Du        
   9142 ****       102.7500 135.2500 136.7500 Du        
   9143 ****       102.7500 135.5000 135.7500 Du        
   9144 ****       102.7500 135.5000 136.0000 Du        
   9145 ****       102.7500 135.5000 136.2500 Du        
   9146 ****       102.7500 153.2500 126.2500 Du        
   9147 ****       102.7500 153.2500 126.5000 Du        
   9148 ****       102.7500 153.2500 126.7500 Du        
   9149 ****       102.7500 153.2500 127.0000 Du        
   9150 ****       102.7500 153.2500 127.2500 Du        
   9151 ****       102.7500 153.5000 126.5000 Du        
   9152 ****       102.7500 153.5000 126.7500 Du        
   9153 ****       102.7500 153.5000 127.0000 Du        
   9154 ****       102.7500 153.5000 127.2500 Du        
   9155 ****       102.7500 153.5000 127.5000 Du        
   9156 ****       102.7500 153.5000 127.7500 Du        
   9157 ****       102.7500 153.7500 126.2500 Du        
   9158 ****       102.7500 153.7500 126.5000 Du        
   9159 ****       102.7500 153.7500 126.7500 Du        
   9160 ****       102.7500 153.7500 127.0000 Du        
   9161 ****       102.7500 153.7500 127.2500 Du        
   9162 ****       102.7500 153.7500 127.5000 Du        
   9163 ****       102.7500 153.7500 127.7500 Du        
   9164 ****       102.7500 153.7500 128.0000 Du        
   9165 ****       102.7500 154.0000 126.2500 Du        
   9166 ****       102.7500 154.0000 126.5000 Du        
   9167 ****       102.7500 154.0000 126.7500 Du        
   9168 ****       102.7500 154.0000 127.0000 Du        
   9169 ****       102.7500 154.0000 127.2500 Du        
   9170 ****       102.7500 154.0000 127.5000 Du        
   9171 ****       102.7500 154.0000 127.7500 Du        
   9172 ****       102.7500 154.0000 128.0000 Du        
   9173 ****       102.7500 154.0000 128.2500 Du        
   9174 ****       102.7500 154.2500 126.5000 Du        
   9175 ****       102.7500 154.2500 126.7500 Du        
   9176 ****       102.7500 154.2500 127.0000 Du        
   9177 ****       102.7500 154.2500 127.2500 Du        
   9178 ****       102.7500 154.2500 127.5000 Du        
   9179 ****       102.7500 154.2500 127.7500 Du        
   9180 ****       102.7500 154.2500 128.0000 Du        
   9181 ****       102.7500 154.2500 128.2500 Du        
   9182 ****       102.7500 154.5000 126.5000 Du        
   9183 ****       102.7500 154.5000 126.7500 Du        
   9184 ****       102.7500 154.5000 127.0000 Du        
   9185 ****       102.7500 154.5000 127.2500 Du        
   9186 ****       102.7500 154.5000 127.5000 Du        
   9187 ****       102.7500 154.5000 127.7500 Du        
   9188 ****       102.7500 154.5000 128.0000 Du        
   9189 ****       102.7500 154.5000 128.2500 Du        
   9190 ****       102.7500 154.5000 128.5000 Du        
   9191 ****       102.7500 154.7500 126.5000 Du        
   9192 ****       102.7500 154.7500 126.7500 Du        
   9193 ****       102.7500 154.7500 127.0000 Du        
   9194 ****       102.7500 154.7500 127.2500 Du        
   9195 ****       102.7500 154.7500 127.5000 Du        
   9196 ****       102.7500 154.7500 127.7500 Du        
   9197 ****       102.7500 154.7500 128.0000 Du        
   9198 ****       102.7500 154.7500 128.2500 Du        
   9199 ****       102.7500 154.7500 128.5000 Du        
   9200 ****       102.7500 155.0000 126.5000 Du        
   9201 ****       102.7500 155.0000 126.7500 Du        
   9202 ****       102.7500 155.0000 127.0000 Du        
   9203 ****       102.7500 155.0000 127.2500 Du        
   9204 ****       102.7500 155.0000 127.5000 Du        
   9205 ****       102.7500 155.0000 127.7500 Du        
   9206 ****       102.7500 155.0000 128.0000 Du        
   9207 ****       102.7500 155.0000 128.2500 Du        
   9208 ****       102.7500 155.0000 128.5000 Du        
   9209 ****       102.7500 155.2500 126.5000 Du        
   9210 ****       102.7500 155.2500 126.7500 Du        
   9211 ****       102.7500 155.2500 127.0000 Du        
   9212 ****       102.7500 155.2500 127.2500 Du        
   9213 ****       102.7500 155.2500 127.5000 Du        
   9214 ****       102.7500 155.2500 127.7500 Du        
   9215 ****       102.7500 155.2500 128.0000 Du        
   9216 ****       102.7500 155.2500 128.2500 Du        
   9217 ****       102.7500 155.2500 128.5000 Du        
   9218 ****       102.7500 155.2500 128.7500 Du        
   9219 ****       102.7500 155.5000 126.5000 Du        
   9220 ****       102.7500 155.5000 126.7500 Du        
   9221 ****       102.7500 155.5000 127.0000 Du        
   9222 ****       102.7500 155.5000 127.2500 Du        
   9223 ****       102.7500 155.5000 127.5000 Du        
   9224 ****       102.7500 155.5000 127.7500 Du        
   9225 ****       102.7500 155.5000 128.0000 Du        
   9226 ****       102.7500 155.5000 128.2500 Du        
   9227 ****       102.7500 155.5000 128.5000 Du        
   9228 ****       102.7500 155.5000 128.7500 Du        
   9229 ****       102.7500 155.7500 126.2500 Du        
   9230 ****       102.7500 155.7500 126.5000 Du        
   9231 ****       102.7500 155.7500 126.7500 Du        
   9232 ****       102.7500 155.7500 127.0000 Du        
   9233 ****       102.7500 155.7500 127.2500 Du        
   9234 ****       102.7500 155.7500 127.5000 Du        
   9235 ****       102.7500 155.7500 127.7500 Du        
   9236 ****       102.7500 155.7500 128.0000 Du        
   9237 ****       102.7500 155.7500 128.2500 Du        
   9238 ****       102.7500 155.7500 128.5000 Du        
   9239 ****       102.7500 155.7500 128.7500 Du        
   9240 ****       102.7500 155.7500 129.0000 Du        
   9241 ****       102.7500 156.0000 126.0000 Du        
   9242 ****       102.7500 156.0000 126.2500 Du        
   9243 ****       102.7500 156.0000 126.5000 Du        
   9244 ****       102.7500 156.0000 126.7500 Du        
   9245 ****       102.7500 156.0000 127.0000 Du        
   9246 ****       102.7500 156.0000 127.2500 Du        
   9247 ****       102.7500 156.0000 127.5000 Du        
   9248 ****       102.7500 156.0000 127.7500 Du        
   9249 ****       102.7500 156.0000 128.0000 Du        
   9250 ****       102.7500 156.0000 128.2500 Du        
   9251 ****       102.7500 156.0000 128.5000 Du        
   9252 ****       102.7500 156.0000 128.7500 Du        
   9253 ****       102.7500 156.0000 129.0000 Du        
   9254 ****       102.7500 156.0000 129.2500 Du        
   9255 ****       102.7500 156.2500 125.7500 Du        
   9256 ****       102.7500 156.2500 126.0000 Du        
   9257 ****       102.7500 156.2500 126.2500 Du        
   9258 ****       102.7500 156.2500 126.5000 Du        
   9259 ****       102.7500 156.2500 126.7500 Du        
   9260 ****       102.7500 156.2500 127.0000 Du        
   9261 ****       102.7500 156.2500 127.2500 Du        
   9262 ****       102.7500 156.2500 127.5000 Du        
   9263 ****       102.7500 156.2500 127.7500 Du        
   9264 ****       102.7500 156.2500 128.0000 Du        
   9265 ****       102.7500 156.2500 128.2500 Du        
   9266 ****       102.7500 156.2500 128.5000 Du        
   9267 ****       102.7500 156.2500 128.7500 Du        
   9268 ****       102.7500 156.2500 129.0000 Du        
   9269 ****       102.7500 156.2500 129.2500 Du        
   9270 ****       102.7500 156.5000 126.0000 Du        
   9271 ****       102.7500 156.5000 126.2500 Du        
   9272 ****       102.7500 156.5000 126.5000 Du        
   9273 ****       102.7500 156.5000 126.7500 Du        
   9274 ****       102.7500 156.5000 127.0000 Du        
   9275 ****       102.7500 156.5000 127.2500 Du        
   9276 ****       102.7500 156.5000 127.5000 Du        
   9277 ****       102.7500 156.5000 127.7500 Du        
   9278 ****       102.7500 156.5000 128.0000 Du        
   9279 ****       102.7500 156.5000 128.2500 Du        
   9280 ****       102.7500 156.5000 128.5000 Du        
   9281 ****       102.7500 156.5000 128.7500 Du        
   9282 ****       102.7500 156.5000 129.0000 Du        
   9283 ****       102.7500 156.5000 129.2500 Du        
   9284 ****       102.7500 156.5000 129.5000 Du        
   9285 ****       102.7500 156.7500 126.2500 Du        
   9286 ****       102.7500 156.7500 126.5000 Du        
   9287 ****       102.7500 156.7500 126.7500 Du        
   9288 ****       102.7500 156.7500 127.0000 Du        
   9289 ****       102.7500 156.7500 127.2500 Du        
   9290 ****       102.7500 156.7500 127.5000 Du        
   9291 ****       102.7500 156.7500 127.7500 Du        
   9292 ****       102.7500 156.7500 128.0000 Du        
   9293 ****       102.7500 156.7500 128.2500 Du        
   9294 ****       102.7500 156.7500 128.5000 Du        
   9295 ****       102.7500 156.7500 128.7500 Du        
   9296 ****       102.7500 156.7500 129.0000 Du        
   9297 ****       102.7500 156.7500 129.2500 Du        
   9298 ****       102.7500 156.7500 129.5000 Du        
   9299 ****       102.7500 157.0000 126.5000 Du        
   9300 ****       102.7500 157.0000 126.7500 Du        
   9301 ****       102.7500 157.0000 127.0000 Du        
   9302 ****       102.7500 157.0000 127.2500 Du        
   9303 ****       102.7500 157.0000 127.5000 Du        
   9304 ****       102.7500 157.0000 127.7500 Du        
   9305 ****       102.7500 157.0000 128.0000 Du        
   9306 ****       102.7500 157.0000 128.2500 Du        
   9307 ****       102.7500 157.0000 128.5000 Du        
   9308 ****       102.7500 157.0000 128.7500 Du        
   9309 ****       102.7500 157.0000 129.0000 Du        
   9310 ****       102.7500 157.0000 129.2500 Du        
   9311 ****       102.7500 157.0000 129.5000 Du        
   9312 ****       102.7500 157.2500 126.7500 Du        
   9313 ****       102.7500 157.2500 127.0000 Du        
   9314 ****       102.7500 157.2500 127.2500 Du        
   9315 ****       102.7500 157.2500 127.5000 Du        
   9316 ****       102.7500 157.2500 127.7500 Du        
   9317 ****       102.7500 157.2500 128.0000 Du        
   9318 ****       102.7500 157.2500 128.2500 Du        
   9319 ****       102.7500 157.2500 128.5000 Du        
   9320 ****       102.7500 157.2500 128.7500 Du        
   9321 ****       102.7500 157.2500 129.0000 Du        
   9322 ****       102.7500 157.2500 129.2500 Du        
   9323 ****       102.7500 157.2500 129.5000 Du        
   9324 ****       102.7500 157.5000 126.7500 Du        
   9325 ****       102.7500 157.5000 127.0000 Du        
   9326 ****       102.7500 157.5000 127.2500 Du        
   9327 ****       102.7500 157.5000 127.5000 Du        
   9328 ****       102.7500 157.5000 127.7500 Du        
   9329 ****       102.7500 157.5000 128.0000 Du        
   9330 ****       102.7500 157.5000 128.2500 Du        
   9331 ****       102.7500 157.5000 128.5000 Du        
   9332 ****       102.7500 157.5000 128.7500 Du        
   9333 ****       102.7500 157.5000 129.0000 Du        
   9334 ****       102.7500 157.5000 129.2500 Du        
   9335 ****       102.7500 157.5000 129.5000 Du        
   9336 ****       102.7500 157.7500 127.0000 Du        
   9337 ****       102.7500 157.7500 127.2500 Du        
   9338 ****       102.7500 157.7500 127.5000 Du        
   9339 ****       102.7500 157.7500 127.7500 Du        
   9340 ****       102.7500 157.7500 128.0000 Du        
   9341 ****       102.7500 157.7500 128.2500 Du        
   9342 ****       102.7500 157.7500 128.5000 Du        
   9343 ****       102.7500 157.7500 128.7500 Du        
   9344 ****       102.7500 157.7500 129.0000 Du        
   9345 ****       102.7500 157.7500 129.2500 Du        
   9346 ****       102.7500 158.0000 127.0000 Du        
   9347 ****       102.7500 158.0000 127.2500 Du        
   9348 ****       102.7500 158.0000 127.5000 Du        
   9349 ****       102.7500 158.0000 127.7500 Du        
   9350 ****       102.7500 158.0000 128.0000 Du        
   9351 ****       102.7500 158.0000 128.2500 Du        
   9352 ****       102.7500 158.0000 128.5000 Du        
   9353 ****       102.7500 158.0000 128.7500 Du        
   9354 ****       102.7500 158.0000 129.0000 Du        
   9355 ****       102.7500 158.0000 129.2500 Du        
   9356 ****       102.7500 158.2500 127.2500 Du        
   9357 ****       102.7500 158.2500 127.5000 Du        
   9358 ****       102.7500 158.2500 127.7500 Du        
   9359 ****       102.7500 158.2500 128.0000 Du        
   9360 ****       102.7500 158.2500 128.2500 Du        
   9361 ****       102.7500 158.2500 128.5000 Du        
   9362 ****       102.7500 158.2500 128.7500 Du        
   9363 ****       102.7500 158.2500 129.0000 Du        
   9364 ****       102.7500 158.2500 129.2500 Du        
   9365 ****       102.7500 158.5000 127.2500 Du        
   9366 ****       102.7500 158.5000 127.5000 Du        
   9367 ****       102.7500 158.5000 127.7500 Du        
   9368 ****       102.7500 158.5000 128.0000 Du        
   9369 ****       102.7500 158.5000 128.2500 Du        
   9370 ****       102.7500 158.5000 128.5000 Du        
   9371 ****       102.7500 158.5000 128.7500 Du        
   9372 ****       102.7500 158.7500 127.7500 Du        
   9373 ****       102.7500 158.7500 128.0000 Du        
   9374 ****       103.0000 134.7500 136.0000 Du        
   9375 ****       103.0000 134.7500 136.2500 Du        
   9376 ****       103.0000 134.7500 136.5000 Du        
   9377 ****       103.0000 134.7500 136.7500 Du        
   9378 ****       103.0000 135.0000 135.7500 Du        
   9379 ****       103.0000 135.0000 136.0000 Du        
   9380 ****       103.0000 135.0000 136.2500 Du        
   9381 ****       103.0000 135.0000 136.5000 Du        
   9382 ****       103.0000 135.0000 136.7500 Du        
   9383 ****       103.0000 135.0000 137.0000 Du        
   9384 ****       103.0000 135.0000 137.2500 Du        
   9385 ****       103.0000 135.2500 135.5000 Du        
   9386 ****       103.0000 135.2500 135.7500 Du        
   9387 ****       103.0000 135.2500 136.0000 Du        
   9388 ****       103.0000 135.2500 136.2500 Du        
   9389 ****       103.0000 135.2500 136.5000 Du        
   9390 ****       103.0000 135.2500 136.7500 Du        
   9391 ****       103.0000 135.2500 137.0000 Du        
   9392 ****       103.0000 135.5000 135.5000 Du        
   9393 ****       103.0000 135.5000 135.7500 Du        
   9394 ****       103.0000 135.5000 136.0000 Du        
   9395 ****       103.0000 135.5000 136.2500 Du        
   9396 ****       103.0000 153.5000 126.7500 Du        
   9397 ****       103.0000 153.5000 127.0000 Du        
   9398 ****       103.0000 153.5000 127.2500 Du        
   9399 ****       103.0000 153.7500 126.7500 Du        
   9400 ****       103.0000 153.7500 127.0000 Du        
   9401 ****       103.0000 153.7500 127.2500 Du        
   9402 ****       103.0000 153.7500 127.5000 Du        
   9403 ****       103.0000 153.7500 127.7500 Du        
   9404 ****       103.0000 153.7500 128.0000 Du        
   9405 ****       103.0000 154.0000 126.7500 Du        
   9406 ****       103.0000 154.0000 127.0000 Du        
   9407 ****       103.0000 154.0000 127.2500 Du        
   9408 ****       103.0000 154.0000 127.5000 Du        
   9409 ****       103.0000 154.0000 127.7500 Du        
   9410 ****       103.0000 154.0000 128.0000 Du        
   9411 ****       103.0000 154.0000 128.2500 Du        
   9412 ****       103.0000 154.2500 126.7500 Du        
   9413 ****       103.0000 154.2500 127.0000 Du        
   9414 ****       103.0000 154.2500 127.2500 Du        
   9415 ****       103.0000 154.2500 127.5000 Du        
   9416 ****       103.0000 154.2500 127.7500 Du        
   9417 ****       103.0000 154.2500 128.0000 Du        
   9418 ****       103.0000 154.2500 128.2500 Du        
   9419 ****       103.0000 154.5000 126.7500 Du        
   9420 ****       103.0000 154.5000 127.0000 Du        
   9421 ****       103.0000 154.5000 127.2500 Du        
   9422 ****       103.0000 154.5000 127.5000 Du        
   9423 ****       103.0000 154.5000 127.7500 Du        
   9424 ****       103.0000 154.5000 128.0000 Du        
   9425 ****       103.0000 154.5000 128.2500 Du        
   9426 ****       103.0000 154.5000 128.5000 Du        
   9427 ****       103.0000 154.7500 126.7500 Du        
   9428 ****       103.0000 154.7500 127.0000 Du        
   9429 ****       103.0000 154.7500 127.2500 Du        
   9430 ****       103.0000 154.7500 127.5000 Du        
   9431 ****       103.0000 154.7500 127.7500 Du        
   9432 ****       103.0000 154.7500 128.0000 Du        
   9433 ****       103.0000 154.7500 128.2500 Du        
   9434 ****       103.0000 154.7500 128.5000 Du        
   9435 ****       103.0000 155.0000 126.7500 Du        
   9436 ****       103.0000 155.0000 127.0000 Du        
   9437 ****       103.0000 155.0000 127.2500 Du        
   9438 ****       103.0000 155.0000 127.5000 Du        
   9439 ****       103.0000 155.0000 127.7500 Du        
   9440 ****       103.0000 155.0000 128.0000 Du        
   9441 ****       103.0000 155.0000 128.2500 Du        
   9442 ****       103.0000 155.0000 128.5000 Du        
   9443 ****       103.0000 155.2500 126.7500 Du        
   9444 ****       103.0000 155.2500 127.0000 Du        
   9445 ****       103.0000 155.2500 127.2500 Du        
   9446 ****       103.0000 155.2500 127.5000 Du        
   9447 ****       103.0000 155.2500 127.7500 Du        
   9448 ****       103.0000 155.2500 128.0000 Du        
   9449 ****       103.0000 155.2500 128.2500 Du        
   9450 ****       103.0000 155.2500 128.5000 Du        
   9451 ****       103.0000 155.2500 128.7500 Du        
   9452 ****       103.0000 155.5000 126.7500 Du        
   9453 ****       103.0000 155.5000 127.0000 Du        
   9454 ****       103.0000 155.5000 127.2500 Du        
   9455 ****       103.0000 155.5000 127.5000 Du        
   9456 ****       103.0000 155.5000 127.7500 Du        
   9457 ****       103.0000 155.5000 128.0000 Du        
   9458 ****       103.0000 155.5000 128.2500 Du        
   9459 ****       103.0000 155.5000 128.5000 Du        
   9460 ****       103.0000 155.5000 128.7500 Du        
   9461 ****       103.0000 155.7500 126.5000 Du        
   9462 ****       103.0000 155.7500 126.7500 Du        
   9463 ****       103.0000 155.7500 127.0000 Du        
   9464 ****       103.0000 155.7500 127.2500 Du        
   9465 ****       103.0000 155.7500 127.5000 Du        
   9466 ****       103.0000 155.7500 127.7500 Du        
   9467 ****       103.0000 155.7500 128.0000 Du        
   9468 ****       103.0000 155.7500 128.2500 Du        
   9469 ****       103.0000 155.7500 128.5000 Du        
   9470 ****       103.0000 155.7500 128.7500 Du        
   9471 ****       103.0000 155.7500 129.0000 Du        
   9472 ****       103.0000 156.0000 126.2500 Du        
   9473 ****       103.0000 156.0000 126.5000 Du        
   9474 ****       103.0000 156.0000 126.7500 Du        
   9475 ****       103.0000 156.0000 127.0000 Du        
   9476 ****       103.0000 156.0000 127.2500 Du        
   9477 ****       103.0000 156.0000 127.5000 Du        
   9478 ****       103.0000 156.0000 127.7500 Du        
   9479 ****       103.0000 156.0000 128.0000 Du        
   9480 ****       103.0000 156.0000 128.2500 Du        
   9481 ****       103.0000 156.0000 128.5000 Du        
   9482 ****       103.0000 156.0000 128.7500 Du        
   9483 ****       103.0000 156.0000 129.0000 Du        
   9484 ****       103.0000 156.0000 129.2500 Du        
   9485 ****       103.0000 156.2500 126.0000 Du        
   9486 ****       103.0000 156.2500 126.2500 Du        
   9487 ****       103.0000 156.2500 126.5000 Du        
   9488 ****       103.0000 156.2500 126.7500 Du        
   9489 ****       103.0000 156.2500 127.0000 Du        
   9490 ****       103.0000 156.2500 127.2500 Du        
   9491 ****       103.0000 156.2500 127.5000 Du        
   9492 ****       103.0000 156.2500 127.7500 Du        
   9493 ****       103.0000 156.2500 128.0000 Du        
   9494 ****       103.0000 156.2500 128.2500 Du        
   9495 ****       103.0000 156.2500 128.5000 Du        
   9496 ****       103.0000 156.2500 128.7500 Du        
   9497 ****       103.0000 156.2500 129.0000 Du        
   9498 ****       103.0000 156.2500 129.2500 Du        
   9499 ****       103.0000 156.5000 126.0000 Du        
   9500 ****       103.0000 156.5000 126.2500 Du        
   9501 ****       103.0000 156.5000 126.5000 Du        
   9502 ****       103.0000 156.5000 126.7500 Du        
   9503 ****       103.0000 156.5000 127.0000 Du        
   9504 ****       103.0000 156.5000 127.2500 Du        
   9505 ****       103.0000 156.5000 127.5000 Du        
   9506 ****       103.0000 156.5000 127.7500 Du        
   9507 ****       103.0000 156.5000 128.0000 Du        
   9508 ****       103.0000 156.5000 128.2500 Du        
   9509 ****       103.0000 156.5000 128.5000 Du        
   9510 ****       103.0000 156.5000 128.7500 Du        
   9511 ****       103.0000 156.5000 129.0000 Du        
   9512 ****       103.0000 156.5000 129.2500 Du        
   9513 ****       103.0000 156.7500 126.0000 Du        
   9514 ****       103.0000 156.7500 126.2500 Du        
   9515 ****       103.0000 156.7500 126.5000 Du        
   9516 ****       103.0000 156.7500 126.7500 Du        
   9517 ****       103.0000 156.7500 127.0000 Du        
   9518 ****       103.0000 156.7500 127.2500 Du        
   9519 ****       103.0000 156.7500 127.5000 Du        
   9520 ****       103.0000 156.7500 127.7500 Du        
   9521 ****       103.0000 156.7500 128.0000 Du        
   9522 ****       103.0000 156.7500 128.2500 Du        
   9523 ****       103.0000 156.7500 128.5000 Du        
   9524 ****       103.0000 156.7500 128.7500 Du        
   9525 ****       103.0000 156.7500 129.0000 Du        
   9526 ****       103.0000 156.7500 129.2500 Du        
   9527 ****       103.0000 156.7500 129.5000 Du        
   9528 ****       103.0000 157.0000 126.2500 Du        
   9529 ****       103.0000 157.0000 126.5000 Du        
   9530 ****       103.0000 157.0000 126.7500 Du        
   9531 ****       103.0000 157.0000 127.0000 Du        
   9532 ****       103.0000 157.0000 127.2500 Du        
   9533 ****       103.0000 157.0000 127.5000 Du        
   9534 ****       103.0000 157.0000 127.7500 Du        
   9535 ****       103.0000 157.0000 128.0000 Du        
   9536 ****       103.0000 157.0000 128.2500 Du        
   9537 ****       103.0000 157.0000 128.5000 Du        
   9538 ****       103.0000 157.0000 128.7500 Du        
   9539 ****       103.0000 157.0000 129.0000 Du        
   9540 ****       103.0000 157.0000 129.2500 Du        
   9541 ****       103.0000 157.0000 129.5000 Du        
   9542 ****       103.0000 157.2500 126.5000 Du        
   9543 ****       103.0000 157.2500 126.7500 Du        
   9544 ****       103.0000 157.2500 127.0000 Du        
   9545 ****       103.0000 157.2500 127.2500 Du        
   9546 ****       103.0000 157.2500 127.5000 Du        
   9547 ****       103.0000 157.2500 127.7500 Du        
   9548 ****       103.0000 157.2500 128.0000 Du        
   9549 ****       103.0000 157.2500 128.2500 Du        
   9550 ****       103.0000 157.2500 128.5000 Du        
   9551 ****       103.0000 157.2500 128.7500 Du        
   9552 ****       103.0000 157.2500 129.0000 Du        
   9553 ****       103.0000 157.2500 129.2500 Du        
   9554 ****       103.0000 157.2500 129.5000 Du        
   9555 ****       103.0000 157.5000 126.7500 Du        
   9556 ****       103.0000 157.5000 127.0000 Du        
   9557 ****       103.0000 157.5000 127.2500 Du        
   9558 ****       103.0000 157.5000 127.5000 Du        
   9559 ****       103.0000 157.5000 127.7500 Du        
   9560 ****       103.0000 157.5000 128.0000 Du        
   9561 ****       103.0000 157.5000 128.2500 Du        
   9562 ****       103.0000 157.5000 128.5000 Du        
   9563 ****       103.0000 157.5000 128.7500 Du        
   9564 ****       103.0000 157.5000 129.0000 Du        
   9565 ****       103.0000 157.5000 129.2500 Du        
   9566 ****       103.0000 157.5000 129.5000 Du        
   9567 ****       103.0000 157.7500 127.0000 Du        
   9568 ****       103.0000 157.7500 127.2500 Du        
   9569 ****       103.0000 157.7500 127.5000 Du        
   9570 ****       103.0000 157.7500 127.7500 Du        
   9571 ****       103.0000 157.7500 128.0000 Du        
   9572 ****       103.0000 157.7500 128.2500 Du        
   9573 ****       103.0000 157.7500 128.5000 Du        
   9574 ****       103.0000 157.7500 128.7500 Du        
   9575 ****       103.0000 157.7500 129.0000 Du        
   9576 ****       103.0000 157.7500 129.2500 Du        
   9577 ****       103.0000 157.7500 129.5000 Du        
   9578 ****       103.0000 158.0000 127.0000 Du        
   9579 ****       103.0000 158.0000 127.2500 Du        
   9580 ****       103.0000 158.0000 127.5000 Du        
   9581 ****       103.0000 158.0000 127.7500 Du        
   9582 ****       103.0000 158.0000 128.0000 Du        
   9583 ****       103.0000 158.0000 128.2500 Du        
   9584 ****       103.0000 158.0000 128.5000 Du        
   9585 ****       103.0000 158.0000 128.7500 Du        
   9586 ****       103.0000 158.0000 129.0000 Du        
   9587 ****       103.0000 158.0000 129.2500 Du        
   9588 ****       103.0000 158.2500 127.0000 Du        
   9589 ****       103.0000 158.2500 127.2500 Du        
   9590 ****       103.0000 158.2500 127.5000 Du        
   9591 ****       103.0000 158.2500 127.7500 Du        
   9592 ****       103.0000 158.2500 128.0000 Du        
   9593 ****       103.0000 158.2500 128.2500 Du        
   9594 ****       103.0000 158.2500 128.5000 Du        
   9595 ****       103.0000 158.2500 128.7500 Du        
   9596 ****       103.0000 158.2500 129.0000 Du        
   9597 ****       103.0000 158.2500 129.2500 Du        
   9598 ****       103.0000 158.5000 127.2500 Du        
   9599 ****       103.0000 158.5000 127.5000 Du        
   9600 ****       103.0000 158.5000 127.7500 Du        
   9601 ****       103.0000 158.5000 128.0000 Du        
   9602 ****       103.0000 158.5000 128.2500 Du        
   9603 ****       103.0000 158.5000 128.5000 Du        
   9604 ****       103.0000 158.5000 128.7500 Du        
   9605 ****       103.0000 158.7500 127.2500 Du        
   9606 ****       103.0000 158.7500 127.5000 Du        
   9607 ****       103.0000 158.7500 127.7500 Du        
   9608 ****       103.0000 158.7500 128.0000 Du        
   9609 ****       103.0000 158.7500 128.2500 Du        
   9610 ****       103.2500 135.0000 135.7500 Du        
   9611 ****       103.2500 135.0000 136.0000 Du        
   9612 ****       103.2500 135.0000 136.2500 Du        
   9613 ****       103.2500 135.0000 136.5000 Du        
   9614 ****       103.2500 135.0000 136.7500 Du        
   9615 ****       103.2500 135.0000 137.0000 Du        
   9616 ****       103.2500 135.0000 137.2500 Du        
   9617 ****       103.2500 135.2500 135.5000 Du        
   9618 ****       103.2500 135.2500 135.7500 Du        
   9619 ****       103.2500 135.2500 136.0000 Du        
   9620 ****       103.2500 135.2500 136.2500 Du        
   9621 ****       103.2500 135.2500 136.5000 Du        
   9622 ****       103.2500 135.2500 136.7500 Du        
   9623 ****       103.2500 135.2500 137.0000 Du        
   9624 ****       103.2500 135.5000 135.5000 Du        
   9625 ****       103.2500 135.5000 135.7500 Du        
   9626 ****       103.2500 135.5000 136.0000 Du        
   9627 ****       103.2500 135.5000 136.2500 Du        
   9628 ****       103.2500 153.7500 127.0000 Du        
   9629 ****       103.2500 153.7500 127.2500 Du        
   9630 ****       103.2500 153.7500 127.5000 Du        
   9631 ****       103.2500 153.7500 127.7500 Du        
   9632 ****       103.2500 154.0000 126.7500 Du        
   9633 ****       103.2500 154.0000 127.0000 Du        
   9634 ****       103.2500 154.0000 127.2500 Du        
   9635 ****       103.2500 154.0000 127.5000 Du        
   9636 ****       103.2500 154.0000 127.7500 Du        
   9637 ****       103.2500 154.0000 128.0000 Du        
   9638 ****       103.2500 154.2500 126.7500 Du        
   9639 ****       103.2500 154.2500 127.0000 Du        
   9640 ****       103.2500 154.2500 127.2500 Du        
   9641 ****       103.2500 154.2500 127.5000 Du        
   9642 ****       103.2500 154.2500 127.7500 Du        
   9643 ****       103.2500 154.2500 128.0000 Du        
   9644 ****       103.2500 154.2500 128.2500 Du        
   9645 ****       103.2500 154.5000 127.0000 Du        
   9646 ****       103.2500 154.5000 127.2500 Du        
   9647 ****       103.2500 154.5000 127.5000 Du        
   9648 ****       103.2500 154.5000 127.7500 Du        
   9649 ****       103.2500 154.5000 128.0000 Du        
   9650 ****       103.2500 154.5000 128.2500 Du        
   9651 ****       103.2500 154.5000 128.5000 Du        
   9652 ****       103.2500 154.7500 127.0000 Du        
   9653 ****       103.2500 154.7500 127.2500 Du        
   9654 ****       103.2500 154.7500 127.5000 Du        
   9655 ****       103.2500 154.7500 127.7500 Du        
   9656 ****       103.2500 154.7500 128.0000 Du        
   9657 ****       103.2500 154.7500 128.2500 Du        
   9658 ****       103.2500 154.7500 128.5000 Du        
   9659 ****       103.2500 155.0000 127.0000 Du        
   9660 ****       103.2500 155.0000 127.2500 Du        
   9661 ****       103.2500 155.0000 127.5000 Du        
   9662 ****       103.2500 155.0000 127.7500 Du        
   9663 ****       103.2500 155.0000 128.0000 Du        
   9664 ****       103.2500 155.0000 128.2500 Du        
   9665 ****       103.2500 155.0000 128.5000 Du        
   9666 ****       103.2500 155.0000 128.7500 Du        
   9667 ****       103.2500 155.2500 127.0000 Du        
   9668 ****       103.2500 155.2500 127.2500 Du        
   9669 ****       103.2500 155.2500 127.5000 Du        
   9670 ****       103.2500 155.2500 127.7500 Du        
   9671 ****       103.2500 155.2500 128.0000 Du        
   9672 ****       103.2500 155.2500 128.2500 Du        
   9673 ****       103.2500 155.2500 128.5000 Du        
   9674 ****       103.2500 155.2500 128.7500 Du        
   9675 ****       103.2500 155.5000 127.0000 Du        
   9676 ****       103.2500 155.5000 127.2500 Du        
   9677 ****       103.2500 155.5000 127.5000 Du        
   9678 ****       103.2500 155.5000 127.7500 Du        
   9679 ****       103.2500 155.5000 128.0000 Du        
   9680 ****       103.2500 155.5000 128.2500 Du        
   9681 ****       103.2500 155.5000 128.5000 Du        
   9682 ****       103.2500 155.5000 128.7500 Du        
   9683 ****       103.2500 155.5000 129.0000 Du        
   9684 ****       103.2500 155.7500 126.7500 Du        
   9685 ****       103.2500 155.7500 127.0000 Du        
   9686 ****       103.2500 155.7500 127.2500 Du        
   9687 ****       103.2500 155.7500 127.5000 Du        
   9688 ****       103.2500 155.7500 127.7500 Du        
   9689 ****       103.2500 155.7500 128.0000 Du        
   9690 ****       103.2500 155.7500 128.2500 Du        
   9691 ****       103.2500 155.7500 128.5000 Du        
   9692 ****       103.2500 155.7500 128.7500 Du        
   9693 ****       103.2500 155.7500 129.0000 Du        
   9694 ****       103.2500 156.0000 126.7500 Du        
   9695 ****       103.2500 156.0000 127.0000 Du        
   9696 ****       103.2500 156.0000 127.2500 Du        
   9697 ****       103.2500 156.0000 127.5000 Du        
   9698 ****       103.2500 156.0000 127.7500 Du        
   9699 ****       103.2500 156.0000 128.0000 Du        
   9700 ****       103.2500 156.0000 128.2500 Du        
   9701 ****       103.2500 156.0000 128.5000 Du        
   9702 ****       103.2500 156.0000 128.7500 Du        
   9703 ****       103.2500 156.0000 129.0000 Du        
   9704 ****       103.2500 156.2500 126.2500 Du        
   9705 ****       103.2500 156.2500 126.5000 Du        
   9706 ****       103.2500 156.2500 126.7500 Du        
   9707 ****       103.2500 156.2500 127.0000 Du        
   9708 ****       103.2500 156.2500 127.2500 Du        
   9709 ****       103.2500 156.2500 127.5000 Du        
   9710 ****       103.2500 156.2500 127.7500 Du        
   9711 ****       103.2500 156.2500 128.0000 Du        
   9712 ****       103.2500 156.2500 128.2500 Du        
   9713 ****       103.2500 156.2500 128.5000 Du        
   9714 ****       103.2500 156.2500 128.7500 Du        
   9715 ****       103.2500 156.2500 129.0000 Du        
   9716 ****       103.2500 156.2500 129.2500 Du        
   9717 ****       103.2500 156.5000 126.0000 Du        
   9718 ****       103.2500 156.5000 126.2500 Du        
   9719 ****       103.2500 156.5000 126.5000 Du        
   9720 ****       103.2500 156.5000 126.7500 Du        
   9721 ****       103.2500 156.5000 127.0000 Du        
   9722 ****       103.2500 156.5000 127.2500 Du        
   9723 ****       103.2500 156.5000 127.5000 Du        
   9724 ****       103.2500 156.5000 127.7500 Du        
   9725 ****       103.2500 156.5000 128.0000 Du        
   9726 ****       103.2500 156.5000 128.2500 Du        
   9727 ****       103.2500 156.5000 128.5000 Du        
   9728 ****       103.2500 156.5000 128.7500 Du        
   9729 ****       103.2500 156.5000 129.0000 Du        
   9730 ****       103.2500 156.5000 129.2500 Du        
   9731 ****       103.2500 156.7500 126.0000 Du        
   9732 ****       103.2500 156.7500 126.2500 Du        
   9733 ****       103.2500 156.7500 126.5000 Du        
   9734 ****       103.2500 156.7500 126.7500 Du        
   9735 ****       103.2500 156.7500 127.0000 Du        
   9736 ****       103.2500 156.7500 127.2500 Du        
   9737 ****       103.2500 156.7500 127.5000 Du        
   9738 ****       103.2500 156.7500 127.7500 Du        
   9739 ****       103.2500 156.7500 128.0000 Du        
   9740 ****       103.2500 156.7500 128.2500 Du        
   9741 ****       103.2500 156.7500 128.5000 Du        
   9742 ****       103.2500 156.7500 128.7500 Du        
   9743 ****       103.2500 156.7500 129.0000 Du        
   9744 ****       103.2500 156.7500 129.2500 Du        
   9745 ****       103.2500 157.0000 126.0000 Du        
   9746 ****       103.2500 157.0000 126.2500 Du        
   9747 ****       103.2500 157.0000 126.5000 Du        
   9748 ****       103.2500 157.0000 126.7500 Du        
   9749 ****       103.2500 157.0000 127.0000 Du        
   9750 ****       103.2500 157.0000 127.2500 Du        
   9751 ****       103.2500 157.0000 127.5000 Du        
   9752 ****       103.2500 157.0000 127.7500 Du        
   9753 ****       103.2500 157.0000 128.0000 Du        
   9754 ****       103.2500 157.0000 128.2500 Du        
   9755 ****       103.2500 157.0000 128.5000 Du        
   9756 ****       103.2500 157.0000 128.7500 Du        
   9757 ****       103.2500 157.0000 129.0000 Du        
   9758 ****       103.2500 157.0000 129.2500 Du        
   9759 ****       103.2500 157.0000 129.5000 Du        
   9760 ****       103.2500 157.2500 126.2500 Du        
   9761 ****       103.2500 157.2500 126.5000 Du        
   9762 ****       103.2500 157.2500 126.7500 Du        
   9763 ****       103.2500 157.2500 127.0000 Du        
   9764 ****       103.2500 157.2500 127.2500 Du        
   9765 ****       103.2500 157.2500 127.5000 Du        
   9766 ****       103.2500 157.2500 127.7500 Du        
   9767 ****       103.2500 157.2500 128.0000 Du        
   9768 ****       103.2500 157.2500 128.2500 Du        
   9769 ****       103.2500 157.2500 128.5000 Du        
   9770 ****       103.2500 157.2500 128.7500 Du        
   9771 ****       103.2500 157.2500 129.0000 Du        
   9772 ****       103.2500 157.2500 129.2500 Du        
   9773 ****       103.2500 157.2500 129.5000 Du        
   9774 ****       103.2500 157.5000 126.7500 Du        
   9775 ****       103.2500 157.5000 127.0000 Du        
   9776 ****       103.2500 157.5000 127.2500 Du        
   9777 ****       103.2500 157.5000 127.5000 Du        
   9778 ****       103.2500 157.5000 127.7500 Du        
   9779 ****       103.2500 157.5000 128.0000 Du        
   9780 ****       103.2500 157.5000 128.2500 Du        
   9781 ****       103.2500 157.5000 128.5000 Du        
   9782 ****       103.2500 157.5000 128.7500 Du        
   9783 ****       103.2500 157.5000 129.0000 Du        
   9784 ****       103.2500 157.5000 129.2500 Du        
   9785 ****       103.2500 157.5000 129.5000 Du        
   9786 ****       103.2500 157.7500 126.7500 Du        
   9787 ****       103.2500 157.7500 127.0000 Du        
   9788 ****       103.2500 157.7500 127.2500 Du        
   9789 ****       103.2500 157.7500 127.5000 Du        
   9790 ****       103.2500 157.7500 127.7500 Du        
   9791 ****       103.2500 157.7500 128.0000 Du        
   9792 ****       103.2500 157.7500 128.2500 Du        
   9793 ****       103.2500 157.7500 128.5000 Du        
   9794 ****       103.2500 157.7500 128.7500 Du        
   9795 ****       103.2500 157.7500 129.0000 Du        
   9796 ****       103.2500 157.7500 129.2500 Du        
   9797 ****       103.2500 157.7500 129.5000 Du        
   9798 ****       103.2500 158.0000 127.0000 Du        
   9799 ****       103.2500 158.0000 127.2500 Du        
   9800 ****       103.2500 158.0000 127.5000 Du        
   9801 ****       103.2500 158.0000 127.7500 Du        
   9802 ****       103.2500 158.0000 128.0000 Du        
   9803 ****       103.2500 158.0000 128.2500 Du        
   9804 ****       103.2500 158.0000 128.5000 Du        
   9805 ****       103.2500 158.0000 128.7500 Du        
   9806 ****       103.2500 158.0000 129.0000 Du        
   9807 ****       103.2500 158.0000 129.2500 Du        
   9808 ****       103.2500 158.2500 127.0000 Du        
   9809 ****       103.2500 158.2500 127.2500 Du        
   9810 ****       103.2500 158.2500 127.5000 Du        
   9811 ****       103.2500 158.2500 127.7500 Du        
   9812 ****       103.2500 158.2500 128.0000 Du        
   9813 ****       103.2500 158.2500 128.2500 Du        
   9814 ****       103.2500 158.2500 128.5000 Du        
   9815 ****       103.2500 158.2500 128.7500 Du        
   9816 ****       103.2500 158.2500 129.0000 Du        
   9817 ****       103.2500 158.2500 129.2500 Du        
   9818 ****       103.2500 158.5000 127.2500 Du        
   9819 ****       103.2500 158.5000 127.5000 Du        
   9820 ****       103.2500 158.5000 127.7500 Du        
   9821 ****       103.2500 158.5000 128.0000 Du        
   9822 ****       103.2500 158.5000 128.2500 Du        
   9823 ****       103.2500 158.5000 128.5000 Du        
   9824 ****       103.2500 158.5000 128.7500 Du        
   9825 ****       103.2500 158.7500 127.2500 Du        
   9826 ****       103.2500 158.7500 127.5000 Du        
   9827 ****       103.2500 158.7500 127.7500 Du        
   9828 ****       103.2500 158.7500 128.0000 Du        
   9829 ****       103.2500 158.7500 128.2500 Du        
   9830 ****       103.2500 159.0000 127.5000 Du        
   9831 ****       103.2500 159.0000 127.7500 Du        
   9832 ****       103.5000 135.0000 135.5000 Du        
   9833 ****       103.5000 135.0000 135.7500 Du        
   9834 ****       103.5000 135.0000 136.0000 Du        
   9835 ****       103.5000 135.0000 136.2500 Du        
   9836 ****       103.5000 135.0000 136.5000 Du        
   9837 ****       103.5000 135.0000 136.7500 Du        
   9838 ****       103.5000 135.0000 137.0000 Du        
   9839 ****       103.5000 135.0000 137.2500 Du        
   9840 ****       103.5000 135.2500 135.5000 Du        
   9841 ****       103.5000 135.2500 135.7500 Du        
   9842 ****       103.5000 135.2500 136.0000 Du        
   9843 ****       103.5000 135.2500 136.2500 Du        
   9844 ****       103.5000 135.2500 136.5000 Du        
   9845 ****       103.5000 135.2500 136.7500 Du        
   9846 ****       103.5000 135.2500 137.0000 Du        
   9847 ****       103.5000 135.5000 135.5000 Du        
   9848 ****       103.5000 135.5000 135.7500 Du        
   9849 ****       103.5000 135.5000 136.0000 Du        
   9850 ****       103.5000 135.5000 136.2500 Du        
   9851 ****       103.5000 154.0000 127.2500 Du        
   9852 ****       103.5000 154.0000 127.5000 Du        
   9853 ****       103.5000 154.0000 127.7500 Du        
   9854 ****       103.5000 154.2500 127.0000 Du        
   9855 ****       103.5000 154.2500 127.2500 Du        
   9856 ****       103.5000 154.2500 127.5000 Du        
   9857 ****       103.5000 154.2500 127.7500 Du        
   9858 ****       103.5000 154.2500 128.0000 Du        
   9859 ****       103.5000 154.5000 127.0000 Du        
   9860 ****       103.5000 154.5000 127.2500 Du        
   9861 ****       103.5000 154.5000 127.5000 Du        
   9862 ****       103.5000 154.5000 127.7500 Du        
   9863 ****       103.5000 154.5000 128.0000 Du        
   9864 ****       103.5000 154.5000 128.2500 Du        
   9865 ****       103.5000 154.7500 127.0000 Du        
   9866 ****       103.5000 154.7500 127.2500 Du        
   9867 ****       103.5000 154.7500 127.5000 Du        
   9868 ****       103.5000 154.7500 127.7500 Du        
   9869 ****       103.5000 154.7500 128.0000 Du        
   9870 ****       103.5000 154.7500 128.2500 Du        
   9871 ****       103.5000 154.7500 128.5000 Du        
   9872 ****       103.5000 155.0000 127.0000 Du        
   9873 ****       103.5000 155.0000 127.2500 Du        
   9874 ****       103.5000 155.0000 127.5000 Du        
   9875 ****       103.5000 155.0000 127.7500 Du        
   9876 ****       103.5000 155.0000 128.0000 Du        
   9877 ****       103.5000 155.0000 128.2500 Du        
   9878 ****       103.5000 155.0000 128.5000 Du        
   9879 ****       103.5000 155.0000 128.7500 Du        
   9880 ****       103.5000 155.2500 127.0000 Du        
   9881 ****       103.5000 155.2500 127.2500 Du        
   9882 ****       103.5000 155.2500 127.5000 Du        
   9883 ****       103.5000 155.2500 127.7500 Du        
   9884 ****       103.5000 155.2500 128.0000 Du        
   9885 ****       103.5000 155.2500 128.2500 Du        
   9886 ****       103.5000 155.2500 128.5000 Du        
   9887 ****       103.5000 155.2500 128.7500 Du        
   9888 ****       103.5000 155.5000 127.0000 Du        
   9889 ****       103.5000 155.5000 127.2500 Du        
   9890 ****       103.5000 155.5000 127.5000 Du        
   9891 ****       103.5000 155.5000 127.7500 Du        
   9892 ****       103.5000 155.5000 128.0000 Du        
   9893 ****       103.5000 155.5000 128.2500 Du        
   9894 ****       103.5000 155.5000 128.5000 Du        
   9895 ****       103.5000 155.5000 128.7500 Du        
   9896 ****       103.5000 155.5000 129.0000 Du        
   9897 ****       103.5000 155.7500 127.0000 Du        
   9898 ****       103.5000 155.7500 127.2500 Du        
   9899 ****       103.5000 155.7500 127.5000 Du        
   9900 ****       103.5000 155.7500 127.7500 Du        
   9901 ****       103.5000 155.7500 128.0000 Du        
   9902 ****       103.5000 155.7500 128.2500 Du        
   9903 ****       103.5000 155.7500 128.5000 Du        
   9904 ****       103.5000 155.7500 128.7500 Du        
   9905 ****       103.5000 155.7500 129.0000 Du        
   9906 ****       103.5000 156.0000 126.7500 Du        
   9907 ****       103.5000 156.0000 127.0000 Du        
   9908 ****       103.5000 156.0000 127.2500 Du        
   9909 ****       103.5000 156.0000 127.5000 Du        
   9910 ****       103.5000 156.0000 127.7500 Du        
   9911 ****       103.5000 156.0000 128.0000 Du        
   9912 ****       103.5000 156.0000 128.2500 Du        
   9913 ****       103.5000 156.0000 128.5000 Du        
   9914 ****       103.5000 156.0000 128.7500 Du        
   9915 ****       103.5000 156.0000 129.0000 Du        
   9916 ****       103.5000 156.2500 126.7500 Du        
   9917 ****       103.5000 156.2500 127.0000 Du        
   9918 ****       103.5000 156.2500 127.2500 Du        
   9919 ****       103.5000 156.2500 127.5000 Du        
   9920 ****       103.5000 156.2500 127.7500 Du        
   9921 ****       103.5000 156.2500 128.0000 Du        
   9922 ****       103.5000 156.2500 128.2500 Du        
   9923 ****       103.5000 156.2500 128.5000 Du        
   9924 ****       103.5000 156.2500 128.7500 Du        
   9925 ****       103.5000 156.2500 129.0000 Du        
   9926 ****       103.5000 156.5000 126.2500 Du        
   9927 ****       103.5000 156.5000 126.5000 Du        
   9928 ****       103.5000 156.5000 126.7500 Du        
   9929 ****       103.5000 156.5000 127.0000 Du        
   9930 ****       103.5000 156.5000 127.2500 Du        
   9931 ****       103.5000 156.5000 127.5000 Du        
   9932 ****       103.5000 156.5000 127.7500 Du        
   9933 ****       103.5000 156.5000 128.0000 Du        
   9934 ****       103.5000 156.5000 128.2500 Du        
   9935 ****       103.5000 156.5000 128.5000 Du        
   9936 ****       103.5000 156.5000 128.7500 Du        
   9937 ****       103.5000 156.5000 129.0000 Du        
   9938 ****       103.5000 156.7500 126.0000 Du        
   9939 ****       103.5000 156.7500 126.2500 Du        
   9940 ****       103.5000 156.7500 126.5000 Du        
   9941 ****       103.5000 156.7500 126.7500 Du        
   9942 ****       103.5000 156.7500 127.0000 Du        
   9943 ****       103.5000 156.7500 127.2500 Du        
   9944 ****       103.5000 156.7500 127.5000 Du        
   9945 ****       103.5000 156.7500 127.7500 Du        
   9946 ****       103.5000 156.7500 128.0000 Du        
   9947 ****       103.5000 156.7500 128.2500 Du        
   9948 ****       103.5000 156.7500 128.5000 Du        
   9949 ****       103.5000 156.7500 128.7500 Du        
   9950 ****       103.5000 156.7500 129.0000 Du        
   9951 ****       103.5000 157.0000 126.0000 Du        
   9952 ****       103.5000 157.0000 126.2500 Du        
   9953 ****       103.5000 157.0000 126.5000 Du        
   9954 ****       103.5000 157.0000 126.7500 Du        
   9955 ****       103.5000 157.0000 127.0000 Du        
   9956 ****       103.5000 157.0000 127.2500 Du        
   9957 ****       103.5000 157.0000 127.5000 Du        
   9958 ****       103.5000 157.0000 127.7500 Du        
   9959 ****       103.5000 157.0000 128.0000 Du        
   9960 ****       103.5000 157.0000 128.2500 Du        
   9961 ****       103.5000 157.0000 128.5000 Du        
   9962 ****       103.5000 157.0000 128.7500 Du        
   9963 ****       103.5000 157.0000 129.0000 Du        
   9964 ****       103.5000 157.0000 129.2500 Du        
   9965 ****       103.5000 157.2500 126.2500 Du        
   9966 ****       103.5000 157.2500 126.5000 Du        
   9967 ****       103.5000 157.2500 126.7500 Du        
   9968 ****       103.5000 157.2500 127.0000 Du        
   9969 ****       103.5000 157.2500 127.2500 Du        
   9970 ****       103.5000 157.2500 127.5000 Du        
   9971 ****       103.5000 157.2500 127.7500 Du        
   9972 ****       103.5000 157.2500 128.0000 Du        
   9973 ****       103.5000 157.2500 128.2500 Du        
   9974 ****       103.5000 157.2500 128.5000 Du        
   9975 ****       103.5000 157.2500 128.7500 Du        
   9976 ****       103.5000 157.2500 129.0000 Du        
   9977 ****       103.5000 157.2500 129.2500 Du        
   9978 ****       103.5000 157.2500 129.5000 Du        
   9979 ****       103.5000 157.5000 126.5000 Du        
   9980 ****       103.5000 157.5000 126.7500 Du        
   9981 ****       103.5000 157.5000 127.0000 Du        
   9982 ****       103.5000 157.5000 127.2500 Du        
   9983 ****       103.5000 157.5000 127.5000 Du        
   9984 ****       103.5000 157.5000 127.7500 Du        
   9985 ****       103.5000 157.5000 128.0000 Du        
   9986 ****       103.5000 157.5000 128.2500 Du        
   9987 ****       103.5000 157.5000 128.5000 Du        
   9988 ****       103.5000 157.5000 128.7500 Du        
   9989 ****       103.5000 157.5000 129.0000 Du        
   9990 ****       103.5000 157.5000 129.2500 Du        
   9991 ****       103.5000 157.5000 129.5000 Du        
   9992 ****       103.5000 157.7500 126.7500 Du        
   9993 ****       103.5000 157.7500 127.0000 Du        
   9994 ****       103.5000 157.7500 127.2500 Du        
   9995 ****       103.5000 157.7500 127.5000 Du        
   9996 ****       103.5000 157.7500 127.7500 Du        
   9997 ****       103.5000 157.7500 128.0000 Du        
   9998 ****       103.5000 157.7500 128.2500 Du        
   9999 ****       103.5000 157.7500 128.5000 Du        
  10000 ****       103.5000 157.7500 128.7500 Du        
  10001 ****       103.5000 157.7500 129.0000 Du        
  10002 ****       103.5000 157.7500 129.2500 Du        
  10003 ****       103.5000 157.7500 129.5000 Du        
  10004 ****       103.5000 158.0000 126.7500 Du        
  10005 ****       103.5000 158.0000 127.0000 Du        
  10006 ****       103.5000 158.0000 127.2500 Du        
  10007 ****       103.5000 158.0000 127.5000 Du        
  10008 ****       103.5000 158.0000 127.7500 Du        
  10009 ****       103.5000 158.0000 128.0000 Du        
  10010 ****       103.5000 158.0000 128.2500 Du        
  10011 ****       103.5000 158.0000 128.5000 Du        
  10012 ****       103.5000 158.0000 128.7500 Du        
  10013 ****       103.5000 158.0000 129.0000 Du        
  10014 ****       103.5000 158.0000 129.2500 Du        
  10015 ****       103.5000 158.2500 127.0000 Du        
  10016 ****       103.5000 158.2500 127.2500 Du        
  10017 ****       103.5000 158.2500 127.5000 Du        
  10018 ****       103.5000 158.2500 127.7500 Du        
  10019 ****       103.5000 158.2500 128.0000 Du        
  10020 ****       103.5000 158.2500 128.2500 Du        
  10021 ****       103.5000 158.2500 128.5000 Du        
  10022 ****       103.5000 158.2500 128.7500 Du        
  10023 ****       103.5000 158.2500 129.0000 Du        
  10024 ****       103.5000 158.5000 127.0000 Du        
  10025 ****       103.5000 158.5000 127.2500 Du        
  10026 ****       103.5000 158.5000 127.5000 Du        
  10027 ****       103.5000 158.5000 127.7500 Du        
  10028 ****       103.5000 158.5000 128.0000 Du        
  10029 ****       103.5000 158.5000 128.2500 Du        
  10030 ****       103.5000 158.5000 128.5000 Du        
  10031 ****       103.5000 158.7500 127.2500 Du        
  10032 ****       103.5000 158.7500 127.5000 Du        
  10033 ****       103.5000 158.7500 127.7500 Du        
  10034 ****       103.5000 158.7500 128.0000 Du        
  10035 ****       103.5000 158.7500 128.2500 Du        
  10036 ****       103.5000 159.0000 127.2500 Du        
  10037 ****       103.5000 159.0000 127.5000 Du        
  10038 ****       103.5000 159.0000 127.7500 Du        
  10039 ****       103.5000 159.0000 128.0000 Du        
  10040 ****       103.7500 135.0000 135.5000 Du        
  10041 ****       103.7500 135.0000 135.7500 Du        
  10042 ****       103.7500 135.0000 136.0000 Du        
  10043 ****       103.7500 135.0000 136.2500 Du        
  10044 ****       103.7500 135.0000 136.5000 Du        
  10045 ****       103.7500 135.0000 136.7500 Du        
  10046 ****       103.7500 135.0000 137.0000 Du        
  10047 ****       103.7500 135.0000 137.2500 Du        
  10048 ****       103.7500 135.2500 135.2500 Du        
  10049 ****       103.7500 135.2500 135.5000 Du        
  10050 ****       103.7500 135.2500 135.7500 Du        
  10051 ****       103.7500 135.2500 136.0000 Du        
  10052 ****       103.7500 135.2500 136.2500 Du        
  10053 ****       103.7500 135.2500 136.5000 Du        
  10054 ****       103.7500 135.2500 136.7500 Du        
  10055 ****       103.7500 135.2500 137.0000 Du        
  10056 ****       103.7500 135.2500 137.2500 Du        
  10057 ****       103.7500 135.5000 135.2500 Du        
  10058 ****       103.7500 135.5000 135.5000 Du        
  10059 ****       103.7500 135.5000 135.7500 Du        
  10060 ****       103.7500 135.5000 136.0000 Du        
  10061 ****       103.7500 135.5000 136.2500 Du        
  10062 ****       103.7500 135.7500 135.2500 Du        
  10063 ****       103.7500 144.7500 144.2500 Du        
  10064 ****       103.7500 154.0000 127.5000 Du        
  10065 ****       103.7500 154.2500 127.2500 Du        
  10066 ****       103.7500 154.2500 127.5000 Du        
  10067 ****       103.7500 154.2500 127.7500 Du        
  10068 ****       103.7500 154.2500 128.0000 Du        
  10069 ****       103.7500 154.5000 127.2500 Du        
  10070 ****       103.7500 154.5000 127.5000 Du        
  10071 ****       103.7500 154.5000 127.7500 Du        
  10072 ****       103.7500 154.5000 128.0000 Du        
  10073 ****       103.7500 154.5000 128.2500 Du        
  10074 ****       103.7500 154.7500 127.2500 Du        
  10075 ****       103.7500 154.7500 127.5000 Du        
  10076 ****       103.7500 154.7500 127.7500 Du        
  10077 ****       103.7500 154.7500 128.0000 Du        
  10078 ****       103.7500 154.7500 128.2500 Du        
  10079 ****       103.7500 154.7500 128.5000 Du        
  10080 ****       103.7500 155.0000 127.2500 Du        
  10081 ****       103.7500 155.0000 127.5000 Du        
  10082 ****       103.7500 155.0000 127.7500 Du        
  10083 ****       103.7500 155.0000 128.0000 Du        
  10084 ****       103.7500 155.0000 128.2500 Du        
  10085 ****       103.7500 155.0000 128.5000 Du        
  10086 ****       103.7500 155.0000 128.7500 Du        
  10087 ****       103.7500 155.2500 127.2500 Du        
  10088 ****       103.7500 155.2500 127.5000 Du        
  10089 ****       103.7500 155.2500 127.7500 Du        
  10090 ****       103.7500 155.2500 128.0000 Du        
  10091 ****       103.7500 155.2500 128.2500 Du        
  10092 ****       103.7500 155.2500 128.5000 Du        
  10093 ****       103.7500 155.2500 128.7500 Du        
  10094 ****       103.7500 155.2500 129.0000 Du        
  10095 ****       103.7500 155.5000 127.2500 Du        
  10096 ****       103.7500 155.5000 127.5000 Du        
  10097 ****       103.7500 155.5000 127.7500 Du        
  10098 ****       103.7500 155.5000 128.0000 Du        
  10099 ****       103.7500 155.5000 128.2500 Du        
  10100 ****       103.7500 155.5000 128.5000 Du        
  10101 ****       103.7500 155.5000 128.7500 Du        
  10102 ****       103.7500 155.5000 129.0000 Du        
  10103 ****       103.7500 155.7500 127.0000 Du        
  10104 ****       103.7500 155.7500 127.2500 Du        
  10105 ****       103.7500 155.7500 127.5000 Du        
  10106 ****       103.7500 155.7500 127.7500 Du        
  10107 ****       103.7500 155.7500 128.0000 Du        
  10108 ****       103.7500 155.7500 128.2500 Du        
  10109 ****       103.7500 155.7500 128.5000 Du        
  10110 ****       103.7500 155.7500 128.7500 Du        
  10111 ****       103.7500 155.7500 129.0000 Du        
  10112 ****       103.7500 156.0000 127.0000 Du        
  10113 ****       103.7500 156.0000 127.2500 Du        
  10114 ****       103.7500 156.0000 127.5000 Du        
  10115 ****       103.7500 156.0000 127.7500 Du        
  10116 ****       103.7500 156.0000 128.0000 Du        
  10117 ****       103.7500 156.0000 128.2500 Du        
  10118 ****       103.7500 156.0000 128.5000 Du        
  10119 ****       103.7500 156.0000 128.7500 Du        
  10120 ****       103.7500 156.0000 129.0000 Du        
  10121 ****       103.7500 156.2500 126.7500 Du        
  10122 ****       103.7500 156.2500 127.0000 Du        
  10123 ****       103.7500 156.2500 127.2500 Du        
  10124 ****       103.7500 156.2500 127.5000 Du        
  10125 ****       103.7500 156.2500 127.7500 Du        
  10126 ****       103.7500 156.2500 128.0000 Du        
  10127 ****       103.7500 156.2500 128.2500 Du        
  10128 ****       103.7500 156.2500 128.5000 Du        
  10129 ****       103.7500 156.2500 128.7500 Du        
  10130 ****       103.7500 156.2500 129.0000 Du        
  10131 ****       103.7500 156.5000 126.5000 Du        
  10132 ****       103.7500 156.5000 126.7500 Du        
  10133 ****       103.7500 156.5000 127.0000 Du        
  10134 ****       103.7500 156.5000 127.2500 Du        
  10135 ****       103.7500 156.5000 127.5000 Du        
  10136 ****       103.7500 156.5000 127.7500 Du        
  10137 ****       103.7500 156.5000 128.0000 Du        
  10138 ****       103.7500 156.5000 128.2500 Du        
  10139 ****       103.7500 156.5000 128.5000 Du        
  10140 ****       103.7500 156.5000 128.7500 Du        
  10141 ****       103.7500 156.7500 126.0000 Du        
  10142 ****       103.7500 156.7500 126.2500 Du        
  10143 ****       103.7500 156.7500 126.5000 Du        
  10144 ****       103.7500 156.7500 126.7500 Du        
  10145 ****       103.7500 156.7500 127.0000 Du        
  10146 ****       103.7500 156.7500 127.2500 Du        
  10147 ****       103.7500 156.7500 127.5000 Du        
  10148 ****       103.7500 156.7500 127.7500 Du        
  10149 ****       103.7500 156.7500 128.0000 Du        
  10150 ****       103.7500 156.7500 128.2500 Du        
  10151 ****       103.7500 156.7500 128.5000 Du        
  10152 ****       103.7500 156.7500 128.7500 Du        
  10153 ****       103.7500 156.7500 129.0000 Du        
  10154 ****       103.7500 157.0000 126.0000 Du        
  10155 ****       103.7500 157.0000 126.2500 Du        
  10156 ****       103.7500 157.0000 126.5000 Du        
  10157 ****       103.7500 157.0000 126.7500 Du        
  10158 ****       103.7500 157.0000 127.0000 Du        
  10159 ****       103.7500 157.0000 127.2500 Du        
  10160 ****       103.7500 157.0000 127.5000 Du        
  10161 ****       103.7500 157.0000 127.7500 Du        
  10162 ****       103.7500 157.0000 128.0000 Du        
  10163 ****       103.7500 157.0000 128.2500 Du        
  10164 ****       103.7500 157.0000 128.5000 Du        
  10165 ****       103.7500 157.0000 128.7500 Du        
  10166 ****       103.7500 157.0000 129.0000 Du        
  10167 ****       103.7500 157.0000 129.2500 Du        
  10168 ****       103.7500 157.2500 126.0000 Du        
  10169 ****       103.7500 157.2500 126.2500 Du        
  10170 ****       103.7500 157.2500 126.5000 Du        
  10171 ****       103.7500 157.2500 126.7500 Du        
  10172 ****       103.7500 157.2500 127.0000 Du        
  10173 ****       103.7500 157.2500 127.2500 Du        
  10174 ****       103.7500 157.2500 127.5000 Du        
  10175 ****       103.7500 157.2500 127.7500 Du        
  10176 ****       103.7500 157.2500 128.0000 Du        
  10177 ****       103.7500 157.2500 128.2500 Du        
  10178 ****       103.7500 157.2500 128.5000 Du        
  10179 ****       103.7500 157.2500 128.7500 Du        
  10180 ****       103.7500 157.2500 129.0000 Du        
  10181 ****       103.7500 157.2500 129.2500 Du        
  10182 ****       103.7500 157.5000 126.2500 Du        
  10183 ****       103.7500 157.5000 126.5000 Du        
  10184 ****       103.7500 157.5000 126.7500 Du        
  10185 ****       103.7500 157.5000 127.0000 Du        
  10186 ****       103.7500 157.5000 127.2500 Du        
  10187 ****       103.7500 157.5000 127.5000 Du        
  10188 ****       103.7500 157.5000 127.7500 Du        
  10189 ****       103.7500 157.5000 128.0000 Du        
  10190 ****       103.7500 157.5000 128.2500 Du        
  10191 ****       103.7500 157.5000 128.5000 Du        
  10192 ****       103.7500 157.5000 128.7500 Du        
  10193 ****       103.7500 157.5000 129.0000 Du        
  10194 ****       103.7500 157.5000 129.2500 Du        
  10195 ****       103.7500 157.5000 129.5000 Du        
  10196 ****       103.7500 157.7500 126.5000 Du        
  10197 ****       103.7500 157.7500 126.7500 Du        
  10198 ****       103.7500 157.7500 127.0000 Du        
  10199 ****       103.7500 157.7500 127.2500 Du        
  10200 ****       103.7500 157.7500 127.5000 Du        
  10201 ****       103.7500 157.7500 127.7500 Du        
  10202 ****       103.7500 157.7500 128.0000 Du        
  10203 ****       103.7500 157.7500 128.2500 Du        
  10204 ****       103.7500 157.7500 128.5000 Du        
  10205 ****       103.7500 157.7500 128.7500 Du        
  10206 ****       103.7500 157.7500 129.0000 Du        
  10207 ****       103.7500 157.7500 129.2500 Du        
  10208 ****       103.7500 157.7500 129.5000 Du        
  10209 ****       103.7500 158.0000 126.7500 Du        
  10210 ****       103.7500 158.0000 127.0000 Du        
  10211 ****       103.7500 158.0000 127.2500 Du        
  10212 ****       103.7500 158.0000 127.5000 Du        
  10213 ****       103.7500 158.0000 127.7500 Du        
  10214 ****       103.7500 158.0000 128.0000 Du        
  10215 ****       103.7500 158.0000 128.2500 Du        
  10216 ****       103.7500 158.0000 128.5000 Du        
  10217 ****       103.7500 158.0000 128.7500 Du        
  10218 ****       103.7500 158.0000 129.0000 Du        
  10219 ****       103.7500 158.0000 129.2500 Du        
  10220 ****       103.7500 158.2500 127.0000 Du        
  10221 ****       103.7500 158.2500 127.2500 Du        
  10222 ****       103.7500 158.2500 127.5000 Du        
  10223 ****       103.7500 158.2500 127.7500 Du        
  10224 ****       103.7500 158.2500 128.0000 Du        
  10225 ****       103.7500 158.2500 128.2500 Du        
  10226 ****       103.7500 158.2500 128.5000 Du        
  10227 ****       103.7500 158.2500 128.7500 Du        
  10228 ****       103.7500 158.2500 129.0000 Du        
  10229 ****       103.7500 158.2500 129.2500 Du        
  10230 ****       103.7500 158.5000 127.0000 Du        
  10231 ****       103.7500 158.5000 127.2500 Du        
  10232 ****       103.7500 158.5000 127.5000 Du        
  10233 ****       103.7500 158.5000 127.7500 Du        
  10234 ****       103.7500 158.5000 128.0000 Du        
  10235 ****       103.7500 158.5000 128.2500 Du        
  10236 ****       103.7500 158.5000 128.5000 Du        
  10237 ****       103.7500 158.7500 127.2500 Du        
  10238 ****       103.7500 158.7500 127.5000 Du        
  10239 ****       103.7500 158.7500 127.7500 Du        
  10240 ****       103.7500 158.7500 128.0000 Du        
  10241 ****       103.7500 158.7500 128.2500 Du        
  10242 ****       103.7500 159.0000 127.2500 Du        
  10243 ****       103.7500 159.0000 127.5000 Du        
  10244 ****       103.7500 159.0000 127.7500 Du        
  10245 ****       103.7500 159.0000 128.0000 Du        
  10246 ****       104.0000 135.0000 135.2500 Du        
  10247 ****       104.0000 135.0000 135.5000 Du        
  10248 ****       104.0000 135.0000 135.7500 Du        
  10249 ****       104.0000 135.0000 136.0000 Du        
  10250 ****       104.0000 135.0000 136.2500 Du        
  10251 ****       104.0000 135.0000 136.5000 Du        
  10252 ****       104.0000 135.0000 136.7500 Du        
  10253 ****       104.0000 135.0000 137.0000 Du        
  10254 ****       104.0000 135.0000 137.2500 Du        
  10255 ****       104.0000 135.2500 135.2500 Du        
  10256 ****       104.0000 135.2500 135.5000 Du        
  10257 ****       104.0000 135.2500 135.7500 Du        
  10258 ****       104.0000 135.2500 136.0000 Du        
  10259 ****       104.0000 135.2500 136.2500 Du        
  10260 ****       104.0000 135.2500 136.5000 Du        
  10261 ****       104.0000 135.2500 136.7500 Du        
  10262 ****       104.0000 135.2500 137.0000 Du        
  10263 ****       104.0000 135.2500 137.2500 Du        
  10264 ****       104.0000 135.2500 137.5000 Du        
  10265 ****       104.0000 135.2500 137.7500 Du        
  10266 ****       104.0000 135.2500 138.0000 Du        
  10267 ****       104.0000 135.5000 135.2500 Du        
  10268 ****       104.0000 135.5000 135.5000 Du        
  10269 ****       104.0000 135.5000 135.7500 Du        
  10270 ****       104.0000 135.5000 136.0000 Du        
  10271 ****       104.0000 135.5000 136.2500 Du        
  10272 ****       104.0000 135.7500 135.2500 Du        
  10273 ****       104.0000 144.2500 144.2500 Du        
  10274 ****       104.0000 144.5000 144.2500 Du        
  10275 ****       104.0000 144.7500 144.2500 Du        
  10276 ****       104.0000 154.2500 127.7500 Du        
  10277 ****       104.0000 154.5000 127.5000 Du        
  10278 ****       104.0000 154.5000 127.7500 Du        
  10279 ****       104.0000 154.5000 128.0000 Du        
  10280 ****       104.0000 154.5000 128.2500 Du        
  10281 ****       104.0000 154.7500 127.5000 Du        
  10282 ****       104.0000 154.7500 127.7500 Du        
  10283 ****       104.0000 154.7500 128.0000 Du        
  10284 ****       104.0000 154.7500 128.2500 Du        
  10285 ****       104.0000 154.7500 128.5000 Du        
  10286 ****       104.0000 155.0000 127.2500 Du        
  10287 ****       104.0000 155.0000 127.5000 Du        
  10288 ****       104.0000 155.0000 127.7500 Du        
  10289 ****       104.0000 155.0000 128.0000 Du        
  10290 ****       104.0000 155.0000 128.2500 Du        
  10291 ****       104.0000 155.0000 128.5000 Du        
  10292 ****       104.0000 155.0000 128.7500 Du        
  10293 ****       104.0000 155.0000 129.0000 Du        
  10294 ****       104.0000 155.2500 127.2500 Du        
  10295 ****       104.0000 155.2500 127.5000 Du        
  10296 ****       104.0000 155.2500 127.7500 Du        
  10297 ****       104.0000 155.2500 128.0000 Du        
  10298 ****       104.0000 155.2500 128.2500 Du        
  10299 ****       104.0000 155.2500 128.5000 Du        
  10300 ****       104.0000 155.2500 128.7500 Du        
  10301 ****       104.0000 155.2500 129.0000 Du        
  10302 ****       104.0000 155.5000 127.5000 Du        
  10303 ****       104.0000 155.5000 127.7500 Du        
  10304 ****       104.0000 155.5000 128.0000 Du        
  10305 ****       104.0000 155.5000 128.2500 Du        
  10306 ****       104.0000 155.5000 128.5000 Du        
  10307 ****       104.0000 155.5000 128.7500 Du        
  10308 ****       104.0000 155.5000 129.0000 Du        
  10309 ****       104.0000 155.7500 127.2500 Du        
  10310 ****       104.0000 155.7500 127.5000 Du        
  10311 ****       104.0000 155.7500 127.7500 Du        
  10312 ****       104.0000 155.7500 128.0000 Du        
  10313 ****       104.0000 155.7500 128.2500 Du        
  10314 ****       104.0000 155.7500 128.5000 Du        
  10315 ****       104.0000 155.7500 128.7500 Du        
  10316 ****       104.0000 155.7500 129.0000 Du        
  10317 ****       104.0000 156.0000 127.0000 Du        
  10318 ****       104.0000 156.0000 127.2500 Du        
  10319 ****       104.0000 156.0000 127.5000 Du        
  10320 ****       104.0000 156.0000 127.7500 Du        
  10321 ****       104.0000 156.0000 128.0000 Du        
  10322 ****       104.0000 156.0000 128.2500 Du        
  10323 ****       104.0000 156.0000 128.5000 Du        
  10324 ****       104.0000 156.0000 128.7500 Du        
  10325 ****       104.0000 156.0000 129.0000 Du        
  10326 ****       104.0000 156.2500 127.0000 Du        
  10327 ****       104.0000 156.2500 127.2500 Du        
  10328 ****       104.0000 156.2500 127.5000 Du        
  10329 ****       104.0000 156.2500 127.7500 Du        
  10330 ****       104.0000 156.2500 128.0000 Du        
  10331 ****       104.0000 156.2500 128.2500 Du        
  10332 ****       104.0000 156.2500 128.5000 Du        
  10333 ****       104.0000 156.2500 128.7500 Du        
  10334 ****       104.0000 156.2500 129.0000 Du        
  10335 ****       104.0000 156.5000 126.7500 Du        
  10336 ****       104.0000 156.5000 127.0000 Du        
  10337 ****       104.0000 156.5000 127.2500 Du        
  10338 ****       104.0000 156.5000 127.5000 Du        
  10339 ****       104.0000 156.5000 127.7500 Du        
  10340 ****       104.0000 156.5000 128.0000 Du        
  10341 ****       104.0000 156.5000 128.2500 Du        
  10342 ****       104.0000 156.5000 128.7500 Du        
  10343 ****       104.0000 156.7500 126.2500 Du        
  10344 ****       104.0000 156.7500 126.5000 Du        
  10345 ****       104.0000 156.7500 126.7500 Du        
  10346 ****       104.0000 156.7500 127.0000 Du        
  10347 ****       104.0000 156.7500 127.2500 Du        
  10348 ****       104.0000 156.7500 127.5000 Du        
  10349 ****       104.0000 156.7500 127.7500 Du        
  10350 ****       104.0000 156.7500 128.0000 Du        
  10351 ****       104.0000 156.7500 128.2500 Du        
  10352 ****       104.0000 156.7500 128.5000 Du        
  10353 ****       104.0000 156.7500 128.7500 Du        
  10354 ****       104.0000 156.7500 129.0000 Du        
  10355 ****       104.0000 157.0000 126.0000 Du        
  10356 ****       104.0000 157.0000 126.2500 Du        
  10357 ****       104.0000 157.0000 126.5000 Du        
  10358 ****       104.0000 157.0000 126.7500 Du        
  10359 ****       104.0000 157.0000 127.0000 Du        
  10360 ****       104.0000 157.0000 127.2500 Du        
  10361 ****       104.0000 157.0000 127.5000 Du        
  10362 ****       104.0000 157.0000 127.7500 Du        
  10363 ****       104.0000 157.0000 128.0000 Du        
  10364 ****       104.0000 157.0000 128.2500 Du        
  10365 ****       104.0000 157.0000 128.5000 Du        
  10366 ****       104.0000 157.0000 128.7500 Du        
  10367 ****       104.0000 157.0000 129.0000 Du        
  10368 ****       104.0000 157.0000 129.2500 Du        
  10369 ****       104.0000 157.2500 126.0000 Du        
  10370 ****       104.0000 157.2500 126.2500 Du        
  10371 ****       104.0000 157.2500 126.5000 Du        
  10372 ****       104.0000 157.2500 126.7500 Du        
  10373 ****       104.0000 157.2500 127.0000 Du        
  10374 ****       104.0000 157.2500 127.2500 Du        
  10375 ****       104.0000 157.2500 127.5000 Du        
  10376 ****       104.0000 157.2500 127.7500 Du        
  10377 ****       104.0000 157.2500 128.0000 Du        
  10378 ****       104.0000 157.2500 128.2500 Du        
  10379 ****       104.0000 157.2500 128.5000 Du        
  10380 ****       104.0000 157.2500 128.7500 Du        
  10381 ****       104.0000 157.2500 129.0000 Du        
  10382 ****       104.0000 157.2500 129.2500 Du        
  10383 ****       104.0000 157.5000 126.2500 Du        
  10384 ****       104.0000 157.5000 126.5000 Du        
  10385 ****       104.0000 157.5000 126.7500 Du        
  10386 ****       104.0000 157.5000 127.0000 Du        
  10387 ****       104.0000 157.5000 127.2500 Du        
  10388 ****       104.0000 157.5000 127.5000 Du        
  10389 ****       104.0000 157.5000 127.7500 Du        
  10390 ****       104.0000 157.5000 128.0000 Du        
  10391 ****       104.0000 157.5000 128.2500 Du        
  10392 ****       104.0000 157.5000 128.5000 Du        
  10393 ****       104.0000 157.5000 128.7500 Du        
  10394 ****       104.0000 157.5000 129.0000 Du        
  10395 ****       104.0000 157.5000 129.2500 Du        
  10396 ****       104.0000 157.7500 126.5000 Du        
  10397 ****       104.0000 157.7500 126.7500 Du        
  10398 ****       104.0000 157.7500 127.0000 Du        
  10399 ****       104.0000 157.7500 127.2500 Du        
  10400 ****       104.0000 157.7500 127.5000 Du        
  10401 ****       104.0000 157.7500 127.7500 Du        
  10402 ****       104.0000 157.7500 128.0000 Du        
  10403 ****       104.0000 157.7500 128.2500 Du        
  10404 ****       104.0000 157.7500 128.5000 Du        
  10405 ****       104.0000 157.7500 128.7500 Du        
  10406 ****       104.0000 157.7500 129.0000 Du        
  10407 ****       104.0000 157.7500 129.2500 Du        
  10408 ****       104.0000 157.7500 129.5000 Du        
  10409 ****       104.0000 158.0000 126.7500 Du        
  10410 ****       104.0000 158.0000 127.0000 Du        
  10411 ****       104.0000 158.0000 127.2500 Du        
  10412 ****       104.0000 158.0000 127.5000 Du        
  10413 ****       104.0000 158.0000 127.7500 Du        
  10414 ****       104.0000 158.0000 128.0000 Du        
  10415 ****       104.0000 158.0000 128.2500 Du        
  10416 ****       104.0000 158.0000 128.5000 Du        
  10417 ****       104.0000 158.0000 128.7500 Du        
  10418 ****       104.0000 158.0000 129.0000 Du        
  10419 ****       104.0000 158.0000 129.2500 Du        
  10420 ****       104.0000 158.0000 129.5000 Du        
  10421 ****       104.0000 158.2500 127.0000 Du        
  10422 ****       104.0000 158.2500 127.2500 Du        
  10423 ****       104.0000 158.2500 127.5000 Du        
  10424 ****       104.0000 158.2500 127.7500 Du        
  10425 ****       104.0000 158.2500 128.0000 Du        
  10426 ****       104.0000 158.2500 128.2500 Du        
  10427 ****       104.0000 158.2500 128.5000 Du        
  10428 ****       104.0000 158.2500 128.7500 Du        
  10429 ****       104.0000 158.2500 129.0000 Du        
  10430 ****       104.0000 158.2500 129.2500 Du        
  10431 ****       104.0000 158.5000 127.0000 Du        
  10432 ****       104.0000 158.5000 127.2500 Du        
  10433 ****       104.0000 158.5000 127.5000 Du        
  10434 ****       104.0000 158.5000 127.7500 Du        
  10435 ****       104.0000 158.5000 128.0000 Du        
  10436 ****       104.0000 158.5000 128.2500 Du        
  10437 ****       104.0000 158.5000 128.5000 Du        
  10438 ****       104.0000 158.7500 127.2500 Du        
  10439 ****       104.0000 158.7500 127.5000 Du        
  10440 ****       104.0000 158.7500 127.7500 Du        
  10441 ****       104.0000 158.7500 128.0000 Du        
  10442 ****       104.0000 158.7500 128.2500 Du        
  10443 ****       104.0000 159.0000 127.2500 Du        
  10444 ****       104.0000 159.0000 127.5000 Du        
  10445 ****       104.0000 159.0000 127.7500 Du        
  10446 ****       104.0000 159.0000 128.0000 Du        
  10447 ****       104.0000 159.2500 127.5000 Du        
  10448 ****       104.0000 159.2500 127.7500 Du        
  10449 ****       104.2500 135.0000 135.2500 Du        
  10450 ****       104.2500 135.0000 135.5000 Du        
  10451 ****       104.2500 135.0000 135.7500 Du        
  10452 ****       104.2500 135.0000 136.0000 Du        
  10453 ****       104.2500 135.0000 136.2500 Du        
  10454 ****       104.2500 135.0000 136.5000 Du        
  10455 ****       104.2500 135.0000 136.7500 Du        
  10456 ****       104.2500 135.0000 137.0000 Du        
  10457 ****       104.2500 135.0000 137.2500 Du        
  10458 ****       104.2500 135.0000 137.7500 Du        
  10459 ****       104.2500 135.2500 135.2500 Du        
  10460 ****       104.2500 135.2500 135.5000 Du        
  10461 ****       104.2500 135.2500 135.7500 Du        
  10462 ****       104.2500 135.2500 136.0000 Du        
  10463 ****       104.2500 135.2500 136.2500 Du        
  10464 ****       104.2500 135.2500 136.5000 Du        
  10465 ****       104.2500 135.2500 136.7500 Du        
  10466 ****       104.2500 135.2500 137.0000 Du        
  10467 ****       104.2500 135.2500 137.2500 Du        
  10468 ****       104.2500 135.2500 137.5000 Du        
  10469 ****       104.2500 135.2500 137.7500 Du        
  10470 ****       104.2500 135.2500 138.0000 Du        
  10471 ****       104.2500 135.5000 135.2500 Du        
  10472 ****       104.2500 135.5000 135.5000 Du        
  10473 ****       104.2500 135.5000 135.7500 Du        
  10474 ****       104.2500 135.5000 136.0000 Du        
  10475 ****       104.2500 135.5000 136.2500 Du        
  10476 ****       104.2500 135.7500 135.2500 Du        
  10477 ****       104.2500 135.7500 135.5000 Du        
  10478 ****       104.2500 144.5000 144.2500 Du        
  10479 ****       104.2500 154.7500 127.7500 Du        
  10480 ****       104.2500 154.7500 128.0000 Du        
  10481 ****       104.2500 154.7500 128.2500 Du        
  10482 ****       104.2500 154.7500 128.5000 Du        
  10483 ****       104.2500 155.0000 127.7500 Du        
  10484 ****       104.2500 155.0000 128.0000 Du        
  10485 ****       104.2500 155.0000 128.2500 Du        
  10486 ****       104.2500 155.0000 128.5000 Du        
  10487 ****       104.2500 155.0000 128.7500 Du        
  10488 ****       104.2500 155.2500 127.7500 Du        
  10489 ****       104.2500 155.2500 128.0000 Du        
  10490 ****       104.2500 155.2500 128.2500 Du        
  10491 ****       104.2500 155.2500 128.5000 Du        
  10492 ****       104.2500 155.2500 128.7500 Du        
  10493 ****       104.2500 155.2500 129.0000 Du        
  10494 ****       104.2500 155.5000 127.5000 Du        
  10495 ****       104.2500 155.5000 127.7500 Du        
  10496 ****       104.2500 155.5000 128.0000 Du        
  10497 ****       104.2500 155.5000 128.2500 Du        
  10498 ****       104.2500 155.5000 128.5000 Du        
  10499 ****       104.2500 155.5000 128.7500 Du        
  10500 ****       104.2500 155.5000 129.0000 Du        
  10501 ****       104.2500 155.7500 127.2500 Du        
  10502 ****       104.2500 155.7500 127.5000 Du        
  10503 ****       104.2500 155.7500 127.7500 Du        
  10504 ****       104.2500 155.7500 128.0000 Du        
  10505 ****       104.2500 155.7500 128.2500 Du        
  10506 ****       104.2500 155.7500 128.5000 Du        
  10507 ****       104.2500 155.7500 128.7500 Du        
  10508 ****       104.2500 155.7500 129.0000 Du        
  10509 ****       104.2500 156.0000 127.2500 Du        
  10510 ****       104.2500 156.0000 127.5000 Du        
  10511 ****       104.2500 156.0000 127.7500 Du        
  10512 ****       104.2500 156.0000 128.0000 Du        
  10513 ****       104.2500 156.0000 128.2500 Du        
  10514 ****       104.2500 156.0000 128.5000 Du        
  10515 ****       104.2500 156.0000 128.7500 Du        
  10516 ****       104.2500 156.0000 129.0000 Du        
  10517 ****       104.2500 156.0000 129.2500 Du        
  10518 ****       104.2500 156.2500 127.0000 Du        
  10519 ****       104.2500 156.2500 127.2500 Du        
  10520 ****       104.2500 156.2500 127.5000 Du        
  10521 ****       104.2500 156.2500 127.7500 Du        
  10522 ****       104.2500 156.2500 128.0000 Du        
  10523 ****       104.2500 156.2500 128.2500 Du        
  10524 ****       104.2500 156.2500 128.5000 Du        
  10525 ****       104.2500 156.2500 128.7500 Du        
  10526 ****       104.2500 156.2500 129.0000 Du        
  10527 ****       104.2500 156.2500 136.7500 Du        
  10528 ****       104.2500 156.5000 126.7500 Du        
  10529 ****       104.2500 156.5000 127.0000 Du        
  10530 ****       104.2500 156.5000 127.2500 Du        
  10531 ****       104.2500 156.5000 127.5000 Du        
  10532 ****       104.2500 156.5000 127.7500 Du        
  10533 ****       104.2500 156.5000 128.0000 Du        
  10534 ****       104.2500 156.5000 128.2500 Du        
  10535 ****       104.2500 156.5000 136.7500 Du        
  10536 ****       104.2500 156.7500 126.2500 Du        
  10537 ****       104.2500 156.7500 126.5000 Du        
  10538 ****       104.2500 156.7500 126.7500 Du        
  10539 ****       104.2500 156.7500 127.0000 Du        
  10540 ****       104.2500 156.7500 127.2500 Du        
  10541 ****       104.2500 156.7500 127.5000 Du        
  10542 ****       104.2500 156.7500 127.7500 Du        
  10543 ****       104.2500 156.7500 128.0000 Du        
  10544 ****       104.2500 156.7500 128.2500 Du        
  10545 ****       104.2500 156.7500 128.5000 Du        
  10546 ****       104.2500 156.7500 128.7500 Du        
  10547 ****       104.2500 156.7500 129.0000 Du        
  10548 ****       104.2500 157.0000 126.0000 Du        
  10549 ****       104.2500 157.0000 126.2500 Du        
  10550 ****       104.2500 157.0000 126.5000 Du        
  10551 ****       104.2500 157.0000 126.7500 Du        
  10552 ****       104.2500 157.0000 127.0000 Du        
  10553 ****       104.2500 157.0000 127.2500 Du        
  10554 ****       104.2500 157.0000 127.5000 Du        
  10555 ****       104.2500 157.0000 127.7500 Du        
  10556 ****       104.2500 157.0000 128.0000 Du        
  10557 ****       104.2500 157.0000 128.2500 Du        
  10558 ****       104.2500 157.0000 128.5000 Du        
  10559 ****       104.2500 157.0000 128.7500 Du        
  10560 ****       104.2500 157.0000 129.0000 Du        
  10561 ****       104.2500 157.0000 129.2500 Du        
  10562 ****       104.2500 157.2500 126.0000 Du        
  10563 ****       104.2500 157.2500 126.2500 Du        
  10564 ****       104.2500 157.2500 126.5000 Du        
  10565 ****       104.2500 157.2500 126.7500 Du        
  10566 ****       104.2500 157.2500 127.0000 Du        
  10567 ****       104.2500 157.2500 127.2500 Du        
  10568 ****       104.2500 157.2500 127.5000 Du        
  10569 ****       104.2500 157.2500 127.7500 Du        
  10570 ****       104.2500 157.2500 128.0000 Du        
  10571 ****       104.2500 157.2500 128.2500 Du        
  10572 ****       104.2500 157.2500 128.5000 Du        
  10573 ****       104.2500 157.2500 128.7500 Du        
  10574 ****       104.2500 157.2500 129.0000 Du        
  10575 ****       104.2500 157.2500 129.2500 Du        
  10576 ****       104.2500 157.5000 126.2500 Du        
  10577 ****       104.2500 157.5000 126.5000 Du        
  10578 ****       104.2500 157.5000 126.7500 Du        
  10579 ****       104.2500 157.5000 127.0000 Du        
  10580 ****       104.2500 157.5000 127.2500 Du        
  10581 ****       104.2500 157.5000 127.5000 Du        
  10582 ****       104.2500 157.5000 127.7500 Du        
  10583 ****       104.2500 157.5000 128.0000 Du        
  10584 ****       104.2500 157.5000 128.2500 Du        
  10585 ****       104.2500 157.5000 128.5000 Du        
  10586 ****       104.2500 157.5000 128.7500 Du        
  10587 ****       104.2500 157.5000 129.0000 Du        
  10588 ****       104.2500 157.5000 129.2500 Du        
  10589 ****       104.2500 157.7500 126.5000 Du        
  10590 ****       104.2500 157.7500 126.7500 Du        
  10591 ****       104.2500 157.7500 127.0000 Du        
  10592 ****       104.2500 157.7500 127.2500 Du        
  10593 ****       104.2500 157.7500 127.5000 Du        
  10594 ****       104.2500 157.7500 127.7500 Du        
  10595 ****       104.2500 157.7500 128.0000 Du        
  10596 ****       104.2500 157.7500 128.2500 Du        
  10597 ****       104.2500 157.7500 128.5000 Du        
  10598 ****       104.2500 157.7500 128.7500 Du        
  10599 ****       104.2500 157.7500 129.0000 Du        
  10600 ****       104.2500 157.7500 129.2500 Du        
  10601 ****       104.2500 157.7500 129.5000 Du        
  10602 ****       104.2500 158.0000 126.7500 Du        
  10603 ****       104.2500 158.0000 127.0000 Du        
  10604 ****       104.2500 158.0000 127.2500 Du        
  10605 ****       104.2500 158.0000 127.5000 Du        
  10606 ****       104.2500 158.0000 127.7500 Du        
  10607 ****       104.2500 158.0000 128.0000 Du        
  10608 ****       104.2500 158.0000 128.2500 Du        
  10609 ****       104.2500 158.0000 128.5000 Du        
  10610 ****       104.2500 158.0000 128.7500 Du        
  10611 ****       104.2500 158.0000 129.0000 Du        
  10612 ****       104.2500 158.0000 129.2500 Du        
  10613 ****       104.2500 158.0000 129.5000 Du        
  10614 ****       104.2500 158.2500 126.7500 Du        
  10615 ****       104.2500 158.2500 127.0000 Du        
  10616 ****       104.2500 158.2500 127.2500 Du        
  10617 ****       104.2500 158.2500 127.5000 Du        
  10618 ****       104.2500 158.2500 127.7500 Du        
  10619 ****       104.2500 158.2500 128.0000 Du        
  10620 ****       104.2500 158.2500 128.2500 Du        
  10621 ****       104.2500 158.2500 128.5000 Du        
  10622 ****       104.2500 158.2500 128.7500 Du        
  10623 ****       104.2500 158.2500 129.0000 Du        
  10624 ****       104.2500 158.2500 129.2500 Du        
  10625 ****       104.2500 158.5000 127.0000 Du        
  10626 ****       104.2500 158.5000 127.2500 Du        
  10627 ****       104.2500 158.5000 127.5000 Du        
  10628 ****       104.2500 158.5000 127.7500 Du        
  10629 ****       104.2500 158.5000 128.0000 Du        
  10630 ****       104.2500 158.5000 128.2500 Du        
  10631 ****       104.2500 158.5000 128.5000 Du        
  10632 ****       104.2500 158.7500 127.2500 Du        
  10633 ****       104.2500 158.7500 127.5000 Du        
  10634 ****       104.2500 158.7500 127.7500 Du        
  10635 ****       104.2500 158.7500 128.0000 Du        
  10636 ****       104.2500 158.7500 128.2500 Du        
  10637 ****       104.2500 159.0000 127.2500 Du        
  10638 ****       104.2500 159.0000 127.5000 Du        
  10639 ****       104.2500 159.0000 127.7500 Du        
  10640 ****       104.2500 159.0000 128.0000 Du        
  10641 ****       104.2500 159.2500 127.5000 Du        
  10642 ****       104.2500 159.2500 127.7500 Du        
  10643 ****       104.2500 162.7500 140.0000 Du        
  10644 ****       104.2500 162.7500 140.2500 Du        
  10645 ****       104.2500 163.0000 140.0000 Du        
  10646 ****       104.2500 163.0000 140.2500 Du        
  10647 ****       104.2500 163.2500 140.0000 Du        
  10648 ****       104.5000 135.0000 135.2500 Du        
  10649 ****       104.5000 135.0000 135.5000 Du        
  10650 ****       104.5000 135.0000 135.7500 Du        
  10651 ****       104.5000 135.0000 136.0000 Du        
  10652 ****       104.5000 135.0000 136.2500 Du        
  10653 ****       104.5000 135.2500 135.2500 Du        
  10654 ****       104.5000 135.2500 135.5000 Du        
  10655 ****       104.5000 135.2500 135.7500 Du        
  10656 ****       104.5000 135.2500 136.0000 Du        
  10657 ****       104.5000 135.2500 136.2500 Du        
  10658 ****       104.5000 135.2500 136.5000 Du        
  10659 ****       104.5000 135.2500 136.7500 Du        
  10660 ****       104.5000 135.2500 137.0000 Du        
  10661 ****       104.5000 135.5000 135.2500 Du        
  10662 ****       104.5000 135.5000 135.5000 Du        
  10663 ****       104.5000 135.5000 135.7500 Du        
  10664 ****       104.5000 135.5000 136.0000 Du        
  10665 ****       104.5000 135.5000 136.2500 Du        
  10666 ****       104.5000 135.7500 135.2500 Du        
  10667 ****       104.5000 155.0000 127.7500 Du        
  10668 ****       104.5000 155.0000 128.0000 Du        
  10669 ****       104.5000 155.0000 128.2500 Du        
  10670 ****       104.5000 155.0000 128.5000 Du        
  10671 ****       104.5000 155.0000 128.7500 Du        
  10672 ****       104.5000 155.2500 127.7500 Du        
  10673 ****       104.5000 155.2500 128.0000 Du        
  10674 ****       104.5000 155.2500 128.2500 Du        
  10675 ****       104.5000 155.2500 128.5000 Du        
  10676 ****       104.5000 155.2500 128.7500 Du        
  10677 ****       104.5000 155.2500 129.0000 Du        
  10678 ****       104.5000 155.5000 127.5000 Du        
  10679 ****       104.5000 155.5000 127.7500 Du        
  10680 ****       104.5000 155.5000 128.0000 Du        
  10681 ****       104.5000 155.5000 128.2500 Du        
  10682 ****       104.5000 155.5000 128.5000 Du        
  10683 ****       104.5000 155.5000 128.7500 Du        
  10684 ****       104.5000 155.5000 129.0000 Du        
  10685 ****       104.5000 155.7500 127.5000 Du        
  10686 ****       104.5000 155.7500 127.7500 Du        
  10687 ****       104.5000 155.7500 128.0000 Du        
  10688 ****       104.5000 155.7500 128.2500 Du        
  10689 ****       104.5000 155.7500 128.5000 Du        
  10690 ****       104.5000 155.7500 128.7500 Du        
  10691 ****       104.5000 155.7500 129.0000 Du        
  10692 ****       104.5000 156.0000 127.2500 Du        
  10693 ****       104.5000 156.0000 127.5000 Du        
  10694 ****       104.5000 156.0000 127.7500 Du        
  10695 ****       104.5000 156.0000 128.0000 Du        
  10696 ****       104.5000 156.0000 128.2500 Du        
  10697 ****       104.5000 156.0000 128.5000 Du        
  10698 ****       104.5000 156.0000 128.7500 Du        
  10699 ****       104.5000 156.0000 129.0000 Du        
  10700 ****       104.5000 156.2500 127.0000 Du        
  10701 ****       104.5000 156.2500 127.2500 Du        
  10702 ****       104.5000 156.2500 127.5000 Du        
  10703 ****       104.5000 156.2500 127.7500 Du        
  10704 ****       104.5000 156.2500 128.0000 Du        
  10705 ****       104.5000 156.2500 128.2500 Du        
  10706 ****       104.5000 156.2500 128.5000 Du        
  10707 ****       104.5000 156.2500 128.7500 Du        
  10708 ****       104.5000 156.2500 129.0000 Du        
  10709 ****       104.5000 156.2500 136.7500 Du        
  10710 ****       104.5000 156.5000 126.7500 Du        
  10711 ****       104.5000 156.5000 127.0000 Du        
  10712 ****       104.5000 156.5000 127.2500 Du        
  10713 ****       104.5000 156.5000 127.5000 Du        
  10714 ****       104.5000 156.5000 127.7500 Du        
  10715 ****       104.5000 156.5000 128.0000 Du        
  10716 ****       104.5000 156.5000 128.2500 Du        
  10717 ****       104.5000 156.5000 128.5000 Du        
  10718 ****       104.5000 156.5000 128.7500 Du        
  10719 ****       104.5000 156.5000 129.0000 Du        
  10720 ****       104.5000 156.5000 136.7500 Du        
  10721 ****       104.5000 156.5000 137.0000 Du        
  10722 ****       104.5000 156.7500 126.5000 Du        
  10723 ****       104.5000 156.7500 126.7500 Du        
  10724 ****       104.5000 156.7500 127.0000 Du        
  10725 ****       104.5000 156.7500 127.2500 Du        
  10726 ****       104.5000 156.7500 127.5000 Du        
  10727 ****       104.5000 156.7500 127.7500 Du        
  10728 ****       104.5000 156.7500 128.0000 Du        
  10729 ****       104.5000 156.7500 128.2500 Du        
  10730 ****       104.5000 156.7500 128.5000 Du        
  10731 ****       104.5000 156.7500 128.7500 Du        
  10732 ****       104.5000 156.7500 129.0000 Du        
  10733 ****       104.5000 156.7500 129.2500 Du        
  10734 ****       104.5000 156.7500 136.7500 Du        
  10735 ****       104.5000 156.7500 137.0000 Du        
  10736 ****       104.5000 157.0000 126.2500 Du        
  10737 ****       104.5000 157.0000 126.5000 Du        
  10738 ****       104.5000 157.0000 126.7500 Du        
  10739 ****       104.5000 157.0000 127.0000 Du        
  10740 ****       104.5000 157.0000 127.2500 Du        
  10741 ****       104.5000 157.0000 127.5000 Du        
  10742 ****       104.5000 157.0000 127.7500 Du        
  10743 ****       104.5000 157.0000 128.0000 Du        
  10744 ****       104.5000 157.0000 128.2500 Du        
  10745 ****       104.5000 157.0000 128.5000 Du        
  10746 ****       104.5000 157.0000 128.7500 Du        
  10747 ****       104.5000 157.0000 129.0000 Du        
  10748 ****       104.5000 157.0000 129.2500 Du        
  10749 ****       104.5000 157.2500 126.0000 Du        
  10750 ****       104.5000 157.2500 126.2500 Du        
  10751 ****       104.5000 157.2500 126.5000 Du        
  10752 ****       104.5000 157.2500 126.7500 Du        
  10753 ****       104.5000 157.2500 127.0000 Du        
  10754 ****       104.5000 157.2500 127.2500 Du        
  10755 ****       104.5000 157.2500 127.5000 Du        
  10756 ****       104.5000 157.2500 127.7500 Du        
  10757 ****       104.5000 157.2500 128.0000 Du        
  10758 ****       104.5000 157.2500 128.2500 Du        
  10759 ****       104.5000 157.2500 128.5000 Du        
  10760 ****       104.5000 157.2500 128.7500 Du        
  10761 ****       104.5000 157.2500 129.0000 Du        
  10762 ****       104.5000 157.5000 126.2500 Du        
  10763 ****       104.5000 157.5000 126.5000 Du        
  10764 ****       104.5000 157.5000 126.7500 Du        
  10765 ****       104.5000 157.5000 127.0000 Du        
  10766 ****       104.5000 157.5000 127.2500 Du        
  10767 ****       104.5000 157.5000 127.5000 Du        
  10768 ****       104.5000 157.5000 127.7500 Du        
  10769 ****       104.5000 157.5000 128.0000 Du        
  10770 ****       104.5000 157.5000 128.2500 Du        
  10771 ****       104.5000 157.5000 128.5000 Du        
  10772 ****       104.5000 157.5000 128.7500 Du        
  10773 ****       104.5000 157.5000 129.0000 Du        
  10774 ****       104.5000 157.5000 129.2500 Du        
  10775 ****       104.5000 157.5000 129.5000 Du        
  10776 ****       104.5000 157.7500 126.2500 Du        
  10777 ****       104.5000 157.7500 126.5000 Du        
  10778 ****       104.5000 157.7500 126.7500 Du        
  10779 ****       104.5000 157.7500 127.0000 Du        
  10780 ****       104.5000 157.7500 127.2500 Du        
  10781 ****       104.5000 157.7500 127.5000 Du        
  10782 ****       104.5000 157.7500 127.7500 Du        
  10783 ****       104.5000 157.7500 128.0000 Du        
  10784 ****       104.5000 157.7500 128.2500 Du        
  10785 ****       104.5000 157.7500 128.5000 Du        
  10786 ****       104.5000 157.7500 128.7500 Du        
  10787 ****       104.5000 157.7500 129.0000 Du        
  10788 ****       104.5000 157.7500 129.2500 Du        
  10789 ****       104.5000 157.7500 129.5000 Du        
  10790 ****       104.5000 157.7500 129.7500 Du        
  10791 ****       104.5000 158.0000 126.7500 Du        
  10792 ****       104.5000 158.0000 127.0000 Du        
  10793 ****       104.5000 158.0000 127.2500 Du        
  10794 ****       104.5000 158.0000 127.5000 Du        
  10795 ****       104.5000 158.0000 127.7500 Du        
  10796 ****       104.5000 158.0000 128.0000 Du        
  10797 ****       104.5000 158.0000 128.2500 Du        
  10798 ****       104.5000 158.0000 128.5000 Du        
  10799 ****       104.5000 158.0000 128.7500 Du        
  10800 ****       104.5000 158.0000 129.0000 Du        
  10801 ****       104.5000 158.0000 129.2500 Du        
  10802 ****       104.5000 158.0000 129.5000 Du        
  10803 ****       104.5000 158.2500 126.7500 Du        
  10804 ****       104.5000 158.2500 127.0000 Du        
  10805 ****       104.5000 158.2500 127.2500 Du        
  10806 ****       104.5000 158.2500 127.5000 Du        
  10807 ****       104.5000 158.2500 127.7500 Du        
  10808 ****       104.5000 158.2500 128.0000 Du        
  10809 ****       104.5000 158.2500 128.2500 Du        
  10810 ****       104.5000 158.2500 128.5000 Du        
  10811 ****       104.5000 158.2500 128.7500 Du        
  10812 ****       104.5000 158.2500 129.0000 Du        
  10813 ****       104.5000 158.2500 129.2500 Du        
  10814 ****       104.5000 158.5000 127.0000 Du        
  10815 ****       104.5000 158.5000 127.2500 Du        
  10816 ****       104.5000 158.5000 127.5000 Du        
  10817 ****       104.5000 158.5000 127.7500 Du        
  10818 ****       104.5000 158.5000 128.0000 Du        
  10819 ****       104.5000 158.5000 128.2500 Du        
  10820 ****       104.5000 158.5000 128.5000 Du        
  10821 ****       104.5000 158.7500 127.0000 Du        
  10822 ****       104.5000 158.7500 127.2500 Du        
  10823 ****       104.5000 158.7500 127.5000 Du        
  10824 ****       104.5000 158.7500 127.7500 Du        
  10825 ****       104.5000 158.7500 128.0000 Du        
  10826 ****       104.5000 158.7500 128.2500 Du        
  10827 ****       104.5000 159.0000 127.2500 Du        
  10828 ****       104.5000 159.0000 127.5000 Du        
  10829 ****       104.5000 159.0000 127.7500 Du        
  10830 ****       104.5000 159.0000 128.0000 Du        
  10831 ****       104.5000 159.2500 127.2500 Du        
  10832 ****       104.5000 159.2500 127.5000 Du        
  10833 ****       104.5000 159.2500 127.7500 Du        
  10834 ****       104.7500 134.7500 135.2500 Du        
  10835 ****       104.7500 134.7500 135.5000 Du        
  10836 ****       104.7500 134.7500 135.7500 Du        
  10837 ****       104.7500 135.0000 135.2500 Du        
  10838 ****       104.7500 135.0000 135.5000 Du        
  10839 ****       104.7500 135.0000 135.7500 Du        
  10840 ****       104.7500 135.0000 136.0000 Du        
  10841 ****       104.7500 135.0000 136.2500 Du        
  10842 ****       104.7500 135.0000 136.5000 Du        
  10843 ****       104.7500 135.0000 136.7500 Du        
  10844 ****       104.7500 135.0000 137.0000 Du        
  10845 ****       104.7500 135.2500 135.2500 Du        
  10846 ****       104.7500 135.2500 135.5000 Du        
  10847 ****       104.7500 135.2500 135.7500 Du        
  10848 ****       104.7500 135.2500 136.0000 Du        
  10849 ****       104.7500 135.2500 136.2500 Du        
  10850 ****       104.7500 135.2500 136.5000 Du        
  10851 ****       104.7500 135.2500 136.7500 Du        
  10852 ****       104.7500 135.2500 137.0000 Du        
  10853 ****       104.7500 135.5000 135.2500 Du        
  10854 ****       104.7500 135.5000 135.5000 Du        
  10855 ****       104.7500 135.5000 135.7500 Du        
  10856 ****       104.7500 135.5000 136.0000 Du        
  10857 ****       104.7500 135.5000 136.2500 Du        
  10858 ****       104.7500 155.0000 128.0000 Du        
  10859 ****       104.7500 155.0000 128.2500 Du        
  10860 ****       104.7500 155.0000 128.5000 Du        
  10861 ****       104.7500 155.0000 128.7500 Du        
  10862 ****       104.7500 155.0000 129.0000 Du        
  10863 ****       104.7500 155.2500 128.0000 Du        
  10864 ****       104.7500 155.2500 128.2500 Du        
  10865 ****       104.7500 155.2500 128.5000 Du        
  10866 ****       104.7500 155.2500 128.7500 Du        
  10867 ****       104.7500 155.2500 129.0000 Du        
  10868 ****       104.7500 155.5000 127.7500 Du        
  10869 ****       104.7500 155.5000 128.0000 Du        
  10870 ****       104.7500 155.5000 128.2500 Du        
  10871 ****       104.7500 155.5000 128.5000 Du        
  10872 ****       104.7500 155.5000 128.7500 Du        
  10873 ****       104.7500 155.5000 129.0000 Du        
  10874 ****       104.7500 155.7500 127.5000 Du        
  10875 ****       104.7500 155.7500 127.7500 Du        
  10876 ****       104.7500 155.7500 128.0000 Du        
  10877 ****       104.7500 155.7500 128.2500 Du        
  10878 ****       104.7500 155.7500 128.5000 Du        
  10879 ****       104.7500 155.7500 128.7500 Du        
  10880 ****       104.7500 155.7500 129.0000 Du        
  10881 ****       104.7500 156.0000 127.2500 Du        
  10882 ****       104.7500 156.0000 127.5000 Du        
  10883 ****       104.7500 156.0000 127.7500 Du        
  10884 ****       104.7500 156.0000 128.0000 Du        
  10885 ****       104.7500 156.0000 128.2500 Du        
  10886 ****       104.7500 156.0000 128.5000 Du        
  10887 ****       104.7500 156.0000 128.7500 Du        
  10888 ****       104.7500 156.0000 129.0000 Du        
  10889 ****       104.7500 156.0000 136.7500 Du        
  10890 ****       104.7500 156.2500 127.0000 Du        
  10891 ****       104.7500 156.2500 127.2500 Du        
  10892 ****       104.7500 156.2500 127.5000 Du        
  10893 ****       104.7500 156.2500 127.7500 Du        
  10894 ****       104.7500 156.2500 128.0000 Du        
  10895 ****       104.7500 156.2500 128.2500 Du        
  10896 ****       104.7500 156.2500 128.5000 Du        
  10897 ****       104.7500 156.2500 128.7500 Du        
  10898 ****       104.7500 156.2500 129.0000 Du        
  10899 ****       104.7500 156.2500 136.5000 Du        
  10900 ****       104.7500 156.2500 136.7500 Du        
  10901 ****       104.7500 156.2500 137.0000 Du        
  10902 ****       104.7500 156.5000 126.7500 Du        
  10903 ****       104.7500 156.5000 127.0000 Du        
  10904 ****       104.7500 156.5000 127.2500 Du        
  10905 ****       104.7500 156.5000 127.5000 Du        
  10906 ****       104.7500 156.5000 127.7500 Du        
  10907 ****       104.7500 156.5000 128.0000 Du        
  10908 ****       104.7500 156.5000 128.2500 Du        
  10909 ****       104.7500 156.5000 128.5000 Du        
  10910 ****       104.7500 156.5000 128.7500 Du        
  10911 ****       104.7500 156.5000 129.0000 Du        
  10912 ****       104.7500 156.5000 129.2500 Du        
  10913 ****       104.7500 156.5000 136.5000 Du        
  10914 ****       104.7500 156.5000 136.7500 Du        
  10915 ****       104.7500 156.5000 137.0000 Du        
  10916 ****       104.7500 156.7500 126.5000 Du        
  10917 ****       104.7500 156.7500 126.7500 Du        
  10918 ****       104.7500 156.7500 127.0000 Du        
  10919 ****       104.7500 156.7500 127.2500 Du        
  10920 ****       104.7500 156.7500 127.5000 Du        
  10921 ****       104.7500 156.7500 127.7500 Du        
  10922 ****       104.7500 156.7500 128.0000 Du        
  10923 ****       104.7500 156.7500 128.2500 Du        
  10924 ****       104.7500 156.7500 128.5000 Du        
  10925 ****       104.7500 156.7500 128.7500 Du        
  10926 ****       104.7500 156.7500 129.0000 Du        
  10927 ****       104.7500 156.7500 129.2500 Du        
  10928 ****       104.7500 156.7500 136.7500 Du        
  10929 ****       104.7500 156.7500 137.0000 Du        
  10930 ****       104.7500 156.7500 137.2500 Du        
  10931 ****       104.7500 157.0000 126.2500 Du        
  10932 ****       104.7500 157.0000 126.5000 Du        
  10933 ****       104.7500 157.0000 126.7500 Du        
  10934 ****       104.7500 157.0000 127.0000 Du        
  10935 ****       104.7500 157.0000 127.2500 Du        
  10936 ****       104.7500 157.0000 127.5000 Du        
  10937 ****       104.7500 157.0000 127.7500 Du        
  10938 ****       104.7500 157.0000 128.0000 Du        
  10939 ****       104.7500 157.0000 128.2500 Du        
  10940 ****       104.7500 157.0000 128.5000 Du        
  10941 ****       104.7500 157.0000 128.7500 Du        
  10942 ****       104.7500 157.0000 129.0000 Du        
  10943 ****       104.7500 157.0000 129.2500 Du        
  10944 ****       104.7500 157.0000 136.7500 Du        
  10945 ****       104.7500 157.0000 137.0000 Du        
  10946 ****       104.7500 157.0000 137.2500 Du        
  10947 ****       104.7500 157.2500 126.2500 Du        
  10948 ****       104.7500 157.2500 126.5000 Du        
  10949 ****       104.7500 157.2500 126.7500 Du        
  10950 ****       104.7500 157.2500 127.0000 Du        
  10951 ****       104.7500 157.2500 127.2500 Du        
  10952 ****       104.7500 157.2500 127.5000 Du        
  10953 ****       104.7500 157.2500 127.7500 Du        
  10954 ****       104.7500 157.2500 128.0000 Du        
  10955 ****       104.7500 157.2500 128.2500 Du        
  10956 ****       104.7500 157.2500 128.5000 Du        
  10957 ****       104.7500 157.2500 128.7500 Du        
  10958 ****       104.7500 157.2500 129.0000 Du        
  10959 ****       104.7500 157.2500 129.2500 Du        
  10960 ****       104.7500 157.2500 129.5000 Du        
  10961 ****       104.7500 157.2500 137.0000 Du        
  10962 ****       104.7500 157.2500 137.2500 Du        
  10963 ****       104.7500 157.5000 126.2500 Du        
  10964 ****       104.7500 157.5000 126.5000 Du        
  10965 ****       104.7500 157.5000 126.7500 Du        
  10966 ****       104.7500 157.5000 127.0000 Du        
  10967 ****       104.7500 157.5000 127.2500 Du        
  10968 ****       104.7500 157.5000 127.5000 Du        
  10969 ****       104.7500 157.5000 127.7500 Du        
  10970 ****       104.7500 157.5000 128.0000 Du        
  10971 ****       104.7500 157.5000 128.2500 Du        
  10972 ****       104.7500 157.5000 128.5000 Du        
  10973 ****       104.7500 157.5000 128.7500 Du        
  10974 ****       104.7500 157.5000 129.0000 Du        
  10975 ****       104.7500 157.5000 129.2500 Du        
  10976 ****       104.7500 157.5000 129.5000 Du        
  10977 ****       104.7500 157.7500 126.2500 Du        
  10978 ****       104.7500 157.7500 126.5000 Du        
  10979 ****       104.7500 157.7500 126.7500 Du        
  10980 ****       104.7500 157.7500 127.0000 Du        
  10981 ****       104.7500 157.7500 127.2500 Du        
  10982 ****       104.7500 157.7500 127.5000 Du        
  10983 ****       104.7500 157.7500 127.7500 Du        
  10984 ****       104.7500 157.7500 128.0000 Du        
  10985 ****       104.7500 157.7500 128.2500 Du        
  10986 ****       104.7500 157.7500 128.5000 Du        
  10987 ****       104.7500 157.7500 128.7500 Du        
  10988 ****       104.7500 157.7500 129.0000 Du        
  10989 ****       104.7500 157.7500 129.2500 Du        
  10990 ****       104.7500 157.7500 129.5000 Du        
  10991 ****       104.7500 157.7500 129.7500 Du        
  10992 ****       104.7500 158.0000 126.5000 Du        
  10993 ****       104.7500 158.0000 126.7500 Du        
  10994 ****       104.7500 158.0000 127.0000 Du        
  10995 ****       104.7500 158.0000 127.2500 Du        
  10996 ****       104.7500 158.0000 127.5000 Du        
  10997 ****       104.7500 158.0000 127.7500 Du        
  10998 ****       104.7500 158.0000 128.0000 Du        
  10999 ****       104.7500 158.0000 128.2500 Du        
  11000 ****       104.7500 158.0000 128.5000 Du        
  11001 ****       104.7500 158.0000 128.7500 Du        
  11002 ****       104.7500 158.0000 129.0000 Du        
  11003 ****       104.7500 158.0000 129.2500 Du        
  11004 ****       104.7500 158.0000 129.5000 Du        
  11005 ****       104.7500 158.0000 129.7500 Du        
  11006 ****       104.7500 158.0000 130.0000 Du        
  11007 ****       104.7500 158.2500 126.7500 Du        
  11008 ****       104.7500 158.2500 127.0000 Du        
  11009 ****       104.7500 158.2500 127.2500 Du        
  11010 ****       104.7500 158.2500 127.5000 Du        
  11011 ****       104.7500 158.2500 127.7500 Du        
  11012 ****       104.7500 158.2500 128.0000 Du        
  11013 ****       104.7500 158.2500 128.2500 Du        
  11014 ****       104.7500 158.2500 128.5000 Du        
  11015 ****       104.7500 158.2500 128.7500 Du        
  11016 ****       104.7500 158.2500 129.0000 Du        
  11017 ****       104.7500 158.2500 129.2500 Du        
  11018 ****       104.7500 158.2500 129.5000 Du        
  11019 ****       104.7500 158.5000 126.7500 Du        
  11020 ****       104.7500 158.5000 127.0000 Du        
  11021 ****       104.7500 158.5000 127.2500 Du        
  11022 ****       104.7500 158.5000 127.5000 Du        
  11023 ****       104.7500 158.5000 127.7500 Du        
  11024 ****       104.7500 158.5000 128.0000 Du        
  11025 ****       104.7500 158.5000 128.2500 Du        
  11026 ****       104.7500 158.5000 128.5000 Du        
  11027 ****       104.7500 158.5000 128.7500 Du        
  11028 ****       104.7500 158.7500 127.0000 Du        
  11029 ****       104.7500 158.7500 127.2500 Du        
  11030 ****       104.7500 158.7500 127.5000 Du        
  11031 ****       104.7500 158.7500 127.7500 Du        
  11032 ****       104.7500 158.7500 128.0000 Du        
  11033 ****       104.7500 158.7500 128.2500 Du        
  11034 ****       104.7500 159.0000 127.0000 Du        
  11035 ****       104.7500 159.0000 127.2500 Du        
  11036 ****       104.7500 159.0000 127.5000 Du        
  11037 ****       104.7500 159.0000 127.7500 Du        
  11038 ****       104.7500 159.0000 128.0000 Du        
  11039 ****       104.7500 159.0000 128.2500 Du        
  11040 ****       104.7500 159.2500 127.2500 Du        
  11041 ****       104.7500 159.2500 127.5000 Du        
  11042 ****       104.7500 159.2500 127.7500 Du        
  11043 ****       104.7500 159.2500 128.0000 Du        
  11044 ****       104.7500 159.5000 127.2500 Du        
  11045 ****       104.7500 159.5000 127.5000 Du        
  11046 ****       104.7500 159.5000 127.7500 Du        
  11047 ****       104.7500 162.7500 139.0000 Du        
  11048 ****       104.7500 162.7500 139.2500 Du        
  11049 ****       104.7500 162.7500 139.7500 Du        
  11050 ****       104.7500 163.0000 138.7500 Du        
  11051 ****       104.7500 163.0000 139.0000 Du        
  11052 ****       104.7500 163.0000 139.2500 Du        
  11053 ****       104.7500 163.0000 139.5000 Du        
  11054 ****       104.7500 163.0000 139.7500 Du        
  11055 ****       104.7500 163.2500 139.2500 Du        
  11056 ****       105.0000 134.7500 135.2500 Du        
  11057 ****       105.0000 134.7500 135.5000 Du        
  11058 ****       105.0000 134.7500 135.7500 Du        
  11059 ****       105.0000 134.7500 136.0000 Du        
  11060 ****       105.0000 135.0000 135.2500 Du        
  11061 ****       105.0000 135.0000 135.5000 Du        
  11062 ****       105.0000 135.0000 135.7500 Du        
  11063 ****       105.0000 135.0000 136.0000 Du        
  11064 ****       105.0000 135.0000 136.2500 Du        
  11065 ****       105.0000 135.0000 136.5000 Du        
  11066 ****       105.0000 135.0000 136.7500 Du        
  11067 ****       105.0000 135.0000 137.0000 Du        
  11068 ****       105.0000 135.2500 135.2500 Du        
  11069 ****       105.0000 135.2500 135.5000 Du        
  11070 ****       105.0000 135.2500 135.7500 Du        
  11071 ****       105.0000 135.2500 136.0000 Du        
  11072 ****       105.0000 135.2500 136.2500 Du        
  11073 ****       105.0000 135.2500 136.5000 Du        
  11074 ****       105.0000 135.2500 136.7500 Du        
  11075 ****       105.0000 135.5000 135.2500 Du        
  11076 ****       105.0000 135.5000 135.5000 Du        
  11077 ****       105.0000 135.5000 135.7500 Du        
  11078 ****       105.0000 135.5000 136.0000 Du        
  11079 ****       105.0000 147.0000 145.2500 Du        
  11080 ****       105.0000 147.2500 145.2500 Du        
  11081 ****       105.0000 147.5000 145.2500 Du        
  11082 ****       105.0000 147.7500 145.2500 Du        
  11083 ****       105.0000 148.0000 145.2500 Du        
  11084 ****       105.0000 155.0000 128.5000 Du        
  11085 ****       105.0000 155.0000 128.7500 Du        
  11086 ****       105.0000 155.0000 129.0000 Du        
  11087 ****       105.0000 155.2500 128.0000 Du        
  11088 ****       105.0000 155.2500 128.2500 Du        
  11089 ****       105.0000 155.2500 128.5000 Du        
  11090 ****       105.0000 155.2500 128.7500 Du        
  11091 ****       105.0000 155.2500 129.0000 Du        
  11092 ****       105.0000 155.2500 129.2500 Du        
  11093 ****       105.0000 155.5000 127.7500 Du        
  11094 ****       105.0000 155.5000 128.0000 Du        
  11095 ****       105.0000 155.5000 128.2500 Du        
  11096 ****       105.0000 155.5000 128.5000 Du        
  11097 ****       105.0000 155.5000 128.7500 Du        
  11098 ****       105.0000 155.5000 129.0000 Du        
  11099 ****       105.0000 155.5000 129.2500 Du        
  11100 ****       105.0000 155.7500 127.5000 Du        
  11101 ****       105.0000 155.7500 127.7500 Du        
  11102 ****       105.0000 155.7500 128.0000 Du        
  11103 ****       105.0000 155.7500 128.2500 Du        
  11104 ****       105.0000 155.7500 128.5000 Du        
  11105 ****       105.0000 155.7500 128.7500 Du        
  11106 ****       105.0000 155.7500 129.0000 Du        
  11107 ****       105.0000 155.7500 129.2500 Du        
  11108 ****       105.0000 156.0000 127.2500 Du        
  11109 ****       105.0000 156.0000 127.5000 Du        
  11110 ****       105.0000 156.0000 127.7500 Du        
  11111 ****       105.0000 156.0000 128.0000 Du        
  11112 ****       105.0000 156.0000 128.2500 Du        
  11113 ****       105.0000 156.0000 128.5000 Du        
  11114 ****       105.0000 156.0000 128.7500 Du        
  11115 ****       105.0000 156.0000 129.0000 Du        
  11116 ****       105.0000 156.0000 129.2500 Du        
  11117 ****       105.0000 156.0000 136.7500 Du        
  11118 ****       105.0000 156.2500 127.0000 Du        
  11119 ****       105.0000 156.2500 127.2500 Du        
  11120 ****       105.0000 156.2500 127.5000 Du        
  11121 ****       105.0000 156.2500 127.7500 Du        
  11122 ****       105.0000 156.2500 128.0000 Du        
  11123 ****       105.0000 156.2500 128.2500 Du        
  11124 ****       105.0000 156.2500 128.5000 Du        
  11125 ****       105.0000 156.2500 128.7500 Du        
  11126 ****       105.0000 156.2500 129.0000 Du        
  11127 ****       105.0000 156.2500 129.2500 Du        
  11128 ****       105.0000 156.2500 136.5000 Du        
  11129 ****       105.0000 156.2500 136.7500 Du        
  11130 ****       105.0000 156.2500 137.0000 Du        
  11131 ****       105.0000 156.5000 127.0000 Du        
  11132 ****       105.0000 156.5000 127.2500 Du        
  11133 ****       105.0000 156.5000 127.5000 Du        
  11134 ****       105.0000 156.5000 127.7500 Du        
  11135 ****       105.0000 156.5000 128.0000 Du        
  11136 ****       105.0000 156.5000 128.2500 Du        
  11137 ****       105.0000 156.5000 128.5000 Du        
  11138 ****       105.0000 156.5000 128.7500 Du        
  11139 ****       105.0000 156.5000 129.0000 Du        
  11140 ****       105.0000 156.5000 129.2500 Du        
  11141 ****       105.0000 156.5000 136.5000 Du        
  11142 ****       105.0000 156.5000 136.7500 Du        
  11143 ****       105.0000 156.5000 137.0000 Du        
  11144 ****       105.0000 156.5000 137.2500 Du        
  11145 ****       105.0000 156.7500 126.7500 Du        
  11146 ****       105.0000 156.7500 127.0000 Du        
  11147 ****       105.0000 156.7500 127.2500 Du        
  11148 ****       105.0000 156.7500 127.5000 Du        
  11149 ****       105.0000 156.7500 127.7500 Du        
  11150 ****       105.0000 156.7500 128.0000 Du        
  11151 ****       105.0000 156.7500 128.2500 Du        
  11152 ****       105.0000 156.7500 128.5000 Du        
  11153 ****       105.0000 156.7500 128.7500 Du        
  11154 ****       105.0000 156.7500 129.0000 Du        
  11155 ****       105.0000 156.7500 129.2500 Du        
  11156 ****       105.0000 156.7500 136.5000 Du        
  11157 ****       105.0000 156.7500 136.7500 Du        
  11158 ****       105.0000 156.7500 137.0000 Du        
  11159 ****       105.0000 156.7500 137.2500 Du        
  11160 ****       105.0000 157.0000 126.5000 Du        
  11161 ****       105.0000 157.0000 126.7500 Du        
  11162 ****       105.0000 157.0000 127.0000 Du        
  11163 ****       105.0000 157.0000 127.2500 Du        
  11164 ****       105.0000 157.0000 127.5000 Du        
  11165 ****       105.0000 157.0000 127.7500 Du        
  11166 ****       105.0000 157.0000 128.0000 Du        
  11167 ****       105.0000 157.0000 128.2500 Du        
  11168 ****       105.0000 157.0000 128.5000 Du        
  11169 ****       105.0000 157.0000 128.7500 Du        
  11170 ****       105.0000 157.0000 129.0000 Du        
  11171 ****       105.0000 157.0000 129.2500 Du        
  11172 ****       105.0000 157.0000 136.7500 Du        
  11173 ****       105.0000 157.0000 137.0000 Du        
  11174 ****       105.0000 157.0000 137.2500 Du        
  11175 ****       105.0000 157.0000 137.5000 Du        
  11176 ****       105.0000 157.2500 126.2500 Du        
  11177 ****       105.0000 157.2500 126.5000 Du        
  11178 ****       105.0000 157.2500 126.7500 Du        
  11179 ****       105.0000 157.2500 127.0000 Du        
  11180 ****       105.0000 157.2500 127.2500 Du        
  11181 ****       105.0000 157.2500 127.5000 Du        
  11182 ****       105.0000 157.2500 127.7500 Du        
  11183 ****       105.0000 157.2500 128.0000 Du        
  11184 ****       105.0000 157.2500 128.2500 Du        
  11185 ****       105.0000 157.2500 128.5000 Du        
  11186 ****       105.0000 157.2500 128.7500 Du        
  11187 ****       105.0000 157.2500 129.0000 Du        
  11188 ****       105.0000 157.2500 129.2500 Du        
  11189 ****       105.0000 157.2500 129.5000 Du        
  11190 ****       105.0000 157.2500 137.0000 Du        
  11191 ****       105.0000 157.2500 137.2500 Du        
  11192 ****       105.0000 157.2500 137.5000 Du        
  11193 ****       105.0000 157.5000 126.2500 Du        
  11194 ****       105.0000 157.5000 126.5000 Du        
  11195 ****       105.0000 157.5000 126.7500 Du        
  11196 ****       105.0000 157.5000 127.0000 Du        
  11197 ****       105.0000 157.5000 127.2500 Du        
  11198 ****       105.0000 157.5000 127.5000 Du        
  11199 ****       105.0000 157.5000 127.7500 Du        
  11200 ****       105.0000 157.5000 128.0000 Du        
  11201 ****       105.0000 157.5000 128.2500 Du        
  11202 ****       105.0000 157.5000 128.5000 Du        
  11203 ****       105.0000 157.5000 128.7500 Du        
  11204 ****       105.0000 157.5000 129.0000 Du        
  11205 ****       105.0000 157.5000 129.2500 Du        
  11206 ****       105.0000 157.5000 129.5000 Du        
  11207 ****       105.0000 157.5000 129.7500 Du        
  11208 ****       105.0000 157.5000 137.0000 Du        
  11209 ****       105.0000 157.5000 137.2500 Du        
  11210 ****       105.0000 157.7500 126.2500 Du        
  11211 ****       105.0000 157.7500 126.5000 Du        
  11212 ****       105.0000 157.7500 126.7500 Du        
  11213 ****       105.0000 157.7500 127.0000 Du        
  11214 ****       105.0000 157.7500 127.2500 Du        
  11215 ****       105.0000 157.7500 127.5000 Du        
  11216 ****       105.0000 157.7500 127.7500 Du        
  11217 ****       105.0000 157.7500 128.0000 Du        
  11218 ****       105.0000 157.7500 128.2500 Du        
  11219 ****       105.0000 157.7500 128.5000 Du        
  11220 ****       105.0000 157.7500 128.7500 Du        
  11221 ****       105.0000 157.7500 129.0000 Du        
  11222 ****       105.0000 157.7500 129.2500 Du        
  11223 ****       105.0000 157.7500 129.5000 Du        
  11224 ****       105.0000 157.7500 129.7500 Du        
  11225 ****       105.0000 157.7500 130.0000 Du        
  11226 ****       105.0000 158.0000 126.5000 Du        
  11227 ****       105.0000 158.0000 126.7500 Du        
  11228 ****       105.0000 158.0000 127.0000 Du        
  11229 ****       105.0000 158.0000 127.2500 Du        
  11230 ****       105.0000 158.0000 127.5000 Du        
  11231 ****       105.0000 158.0000 127.7500 Du        
  11232 ****       105.0000 158.0000 128.0000 Du        
  11233 ****       105.0000 158.0000 128.2500 Du        
  11234 ****       105.0000 158.0000 128.5000 Du        
  11235 ****       105.0000 158.0000 128.7500 Du        
  11236 ****       105.0000 158.0000 129.0000 Du        
  11237 ****       105.0000 158.0000 129.2500 Du        
  11238 ****       105.0000 158.0000 129.5000 Du        
  11239 ****       105.0000 158.0000 129.7500 Du        
  11240 ****       105.0000 158.0000 130.0000 Du        
  11241 ****       105.0000 158.2500 126.5000 Du        
  11242 ****       105.0000 158.2500 126.7500 Du        
  11243 ****       105.0000 158.2500 127.0000 Du        
  11244 ****       105.0000 158.2500 127.2500 Du        
  11245 ****       105.0000 158.2500 127.5000 Du        
  11246 ****       105.0000 158.2500 127.7500 Du        
  11247 ****       105.0000 158.2500 128.0000 Du        
  11248 ****       105.0000 158.2500 128.2500 Du        
  11249 ****       105.0000 158.2500 128.5000 Du        
  11250 ****       105.0000 158.2500 128.7500 Du        
  11251 ****       105.0000 158.2500 129.0000 Du        
  11252 ****       105.0000 158.2500 129.2500 Du        
  11253 ****       105.0000 158.2500 129.5000 Du        
  11254 ****       105.0000 158.2500 129.7500 Du        
  11255 ****       105.0000 158.2500 130.0000 Du        
  11256 ****       105.0000 158.5000 126.7500 Du        
  11257 ****       105.0000 158.5000 127.0000 Du        
  11258 ****       105.0000 158.5000 127.2500 Du        
  11259 ****       105.0000 158.5000 127.5000 Du        
  11260 ****       105.0000 158.5000 127.7500 Du        
  11261 ****       105.0000 158.5000 128.0000 Du        
  11262 ****       105.0000 158.5000 128.2500 Du        
  11263 ****       105.0000 158.5000 128.5000 Du        
  11264 ****       105.0000 158.5000 128.7500 Du        
  11265 ****       105.0000 158.5000 129.0000 Du        
  11266 ****       105.0000 158.7500 127.0000 Du        
  11267 ****       105.0000 158.7500 127.2500 Du        
  11268 ****       105.0000 158.7500 127.5000 Du        
  11269 ****       105.0000 158.7500 127.7500 Du        
  11270 ****       105.0000 158.7500 128.0000 Du        
  11271 ****       105.0000 158.7500 128.2500 Du        
  11272 ****       105.0000 158.7500 128.5000 Du        
  11273 ****       105.0000 159.0000 127.0000 Du        
  11274 ****       105.0000 159.0000 127.2500 Du        
  11275 ****       105.0000 159.0000 127.5000 Du        
  11276 ****       105.0000 159.0000 127.7500 Du        
  11277 ****       105.0000 159.0000 128.0000 Du        
  11278 ****       105.0000 159.0000 128.2500 Du        
  11279 ****       105.0000 159.2500 127.2500 Du        
  11280 ****       105.0000 159.2500 127.5000 Du        
  11281 ****       105.0000 159.2500 127.7500 Du        
  11282 ****       105.0000 159.2500 128.0000 Du        
  11283 ****       105.0000 159.5000 127.2500 Du        
  11284 ****       105.0000 159.5000 127.5000 Du        
  11285 ****       105.0000 159.5000 127.7500 Du        
  11286 ****       105.0000 162.5000 139.0000 Du        
  11287 ****       105.0000 162.5000 139.2500 Du        
  11288 ****       105.0000 162.7500 138.2500 Du        
  11289 ****       105.0000 162.7500 138.5000 Du        
  11290 ****       105.0000 162.7500 138.7500 Du        
  11291 ****       105.0000 162.7500 139.0000 Du        
  11292 ****       105.0000 162.7500 139.2500 Du        
  11293 ****       105.0000 162.7500 139.5000 Du        
  11294 ****       105.0000 162.7500 139.7500 Du        
  11295 ****       105.0000 163.0000 138.2500 Du        
  11296 ****       105.0000 163.0000 138.5000 Du        
  11297 ****       105.0000 163.0000 138.7500 Du        
  11298 ****       105.0000 163.0000 139.0000 Du        
  11299 ****       105.0000 163.0000 139.2500 Du        
  11300 ****       105.2500 134.7500 135.2500 Du        
  11301 ****       105.2500 134.7500 135.5000 Du        
  11302 ****       105.2500 134.7500 135.7500 Du        
  11303 ****       105.2500 134.7500 136.0000 Du        
  11304 ****       105.2500 134.7500 136.2500 Du        
  11305 ****       105.2500 135.0000 135.2500 Du        
  11306 ****       105.2500 135.0000 135.5000 Du        
  11307 ****       105.2500 135.0000 135.7500 Du        
  11308 ****       105.2500 135.0000 136.0000 Du        
  11309 ****       105.2500 135.0000 136.2500 Du        
  11310 ****       105.2500 135.0000 136.5000 Du        
  11311 ****       105.2500 135.0000 136.7500 Du        
  11312 ****       105.2500 135.0000 137.0000 Du        
  11313 ****       105.2500 135.2500 135.2500 Du        
  11314 ****       105.2500 135.2500 135.5000 Du        
  11315 ****       105.2500 135.2500 135.7500 Du        
  11316 ****       105.2500 135.2500 136.0000 Du        
  11317 ****       105.2500 135.2500 136.2500 Du        
  11318 ****       105.2500 135.2500 136.5000 Du        
  11319 ****       105.2500 135.5000 135.5000 Du        
  11320 ****       105.2500 135.5000 135.7500 Du        
  11321 ****       105.2500 135.5000 136.0000 Du        
  11322 ****       105.2500 147.0000 145.2500 Du        
  11323 ****       105.2500 147.2500 145.2500 Du        
  11324 ****       105.2500 147.2500 145.5000 Du        
  11325 ****       105.2500 147.5000 145.2500 Du        
  11326 ****       105.2500 147.5000 145.5000 Du        
  11327 ****       105.2500 147.5000 145.7500 Du        
  11328 ****       105.2500 147.7500 145.2500 Du        
  11329 ****       105.2500 147.7500 145.5000 Du        
  11330 ****       105.2500 147.7500 145.7500 Du        
  11331 ****       105.2500 148.0000 145.2500 Du        
  11332 ****       105.2500 148.0000 145.5000 Du        
  11333 ****       105.2500 148.0000 145.7500 Du        
  11334 ****       105.2500 148.2500 145.2500 Du        
  11335 ****       105.2500 148.2500 145.5000 Du        
  11336 ****       105.2500 155.0000 128.7500 Du        
  11337 ****       105.2500 155.0000 129.0000 Du        
  11338 ****       105.2500 155.2500 128.2500 Du        
  11339 ****       105.2500 155.2500 128.5000 Du        
  11340 ****       105.2500 155.2500 128.7500 Du        
  11341 ****       105.2500 155.2500 129.0000 Du        
  11342 ****       105.2500 155.2500 129.2500 Du        
  11343 ****       105.2500 155.5000 128.0000 Du        
  11344 ****       105.2500 155.5000 128.2500 Du        
  11345 ****       105.2500 155.5000 128.5000 Du        
  11346 ****       105.2500 155.5000 128.7500 Du        
  11347 ****       105.2500 155.5000 129.0000 Du        
  11348 ****       105.2500 155.5000 129.2500 Du        
  11349 ****       105.2500 155.7500 127.7500 Du        
  11350 ****       105.2500 155.7500 128.0000 Du        
  11351 ****       105.2500 155.7500 128.2500 Du        
  11352 ****       105.2500 155.7500 128.5000 Du        
  11353 ****       105.2500 155.7500 128.7500 Du        
  11354 ****       105.2500 155.7500 129.0000 Du        
  11355 ****       105.2500 155.7500 129.2500 Du        
  11356 ****       105.2500 156.0000 127.2500 Du        
  11357 ****       105.2500 156.0000 127.5000 Du        
  11358 ****       105.2500 156.0000 127.7500 Du        
  11359 ****       105.2500 156.0000 128.0000 Du        
  11360 ****       105.2500 156.0000 128.2500 Du        
  11361 ****       105.2500 156.0000 128.5000 Du        
  11362 ****       105.2500 156.0000 128.7500 Du        
  11363 ****       105.2500 156.0000 129.0000 Du        
  11364 ****       105.2500 156.0000 129.2500 Du        
  11365 ****       105.2500 156.0000 136.7500 Du        
  11366 ****       105.2500 156.2500 127.0000 Du        
  11367 ****       105.2500 156.2500 127.2500 Du        
  11368 ****       105.2500 156.2500 127.5000 Du        
  11369 ****       105.2500 156.2500 127.7500 Du        
  11370 ****       105.2500 156.2500 128.0000 Du        
  11371 ****       105.2500 156.2500 128.2500 Du        
  11372 ****       105.2500 156.2500 128.5000 Du        
  11373 ****       105.2500 156.2500 128.7500 Du        
  11374 ****       105.2500 156.2500 129.0000 Du        
  11375 ****       105.2500 156.2500 129.2500 Du        
  11376 ****       105.2500 156.2500 136.5000 Du        
  11377 ****       105.2500 156.2500 136.7500 Du        
  11378 ****       105.2500 156.2500 137.0000 Du        
  11379 ****       105.2500 156.2500 137.2500 Du        
  11380 ****       105.2500 156.5000 127.0000 Du        
  11381 ****       105.2500 156.5000 127.2500 Du        
  11382 ****       105.2500 156.5000 127.5000 Du        
  11383 ****       105.2500 156.5000 127.7500 Du        
  11384 ****       105.2500 156.5000 128.0000 Du        
  11385 ****       105.2500 156.5000 128.2500 Du        
  11386 ****       105.2500 156.5000 128.5000 Du        
  11387 ****       105.2500 156.5000 128.7500 Du        
  11388 ****       105.2500 156.5000 129.0000 Du        
  11389 ****       105.2500 156.5000 129.2500 Du        
  11390 ****       105.2500 156.5000 136.5000 Du        
  11391 ****       105.2500 156.5000 136.7500 Du        
  11392 ****       105.2500 156.5000 137.0000 Du        
  11393 ****       105.2500 156.5000 137.2500 Du        
  11394 ****       105.2500 156.7500 126.7500 Du        
  11395 ****       105.2500 156.7500 127.0000 Du        
  11396 ****       105.2500 156.7500 127.2500 Du        
  11397 ****       105.2500 156.7500 127.5000 Du        
  11398 ****       105.2500 156.7500 127.7500 Du        
  11399 ****       105.2500 156.7500 128.0000 Du        
  11400 ****       105.2500 156.7500 128.2500 Du        
  11401 ****       105.2500 156.7500 128.5000 Du        
  11402 ****       105.2500 156.7500 128.7500 Du        
  11403 ****       105.2500 156.7500 129.0000 Du        
  11404 ****       105.2500 156.7500 129.2500 Du        
  11405 ****       105.2500 156.7500 136.2500 Du        
  11406 ****       105.2500 156.7500 136.5000 Du        
  11407 ****       105.2500 156.7500 136.7500 Du        
  11408 ****       105.2500 156.7500 137.0000 Du        
  11409 ****       105.2500 156.7500 137.2500 Du        
  11410 ****       105.2500 156.7500 137.5000 Du        
  11411 ****       105.2500 157.0000 126.5000 Du        
  11412 ****       105.2500 157.0000 126.7500 Du        
  11413 ****       105.2500 157.0000 127.0000 Du        
  11414 ****       105.2500 157.0000 127.2500 Du        
  11415 ****       105.2500 157.0000 127.5000 Du        
  11416 ****       105.2500 157.0000 127.7500 Du        
  11417 ****       105.2500 157.0000 128.0000 Du        
  11418 ****       105.2500 157.0000 128.2500 Du        
  11419 ****       105.2500 157.0000 128.5000 Du        
  11420 ****       105.2500 157.0000 128.7500 Du        
  11421 ****       105.2500 157.0000 129.0000 Du        
  11422 ****       105.2500 157.0000 129.2500 Du        
  11423 ****       105.2500 157.0000 129.5000 Du        
  11424 ****       105.2500 157.0000 136.5000 Du        
  11425 ****       105.2500 157.0000 136.7500 Du        
  11426 ****       105.2500 157.0000 137.0000 Du        
  11427 ****       105.2500 157.0000 137.2500 Du        
  11428 ****       105.2500 157.0000 137.5000 Du        
  11429 ****       105.2500 157.2500 126.5000 Du        
  11430 ****       105.2500 157.2500 126.7500 Du        
  11431 ****       105.2500 157.2500 127.0000 Du        
  11432 ****       105.2500 157.2500 127.2500 Du        
  11433 ****       105.2500 157.2500 127.5000 Du        
  11434 ****       105.2500 157.2500 127.7500 Du        
  11435 ****       105.2500 157.2500 128.0000 Du        
  11436 ****       105.2500 157.2500 128.2500 Du        
  11437 ****       105.2500 157.2500 128.5000 Du        
  11438 ****       105.2500 157.2500 128.7500 Du        
  11439 ****       105.2500 157.2500 129.0000 Du        
  11440 ****       105.2500 157.2500 129.2500 Du        
  11441 ****       105.2500 157.2500 129.5000 Du        
  11442 ****       105.2500 157.2500 129.7500 Du        
  11443 ****       105.2500 157.2500 136.7500 Du        
  11444 ****       105.2500 157.2500 137.0000 Du        
  11445 ****       105.2500 157.2500 137.2500 Du        
  11446 ****       105.2500 157.2500 137.5000 Du        
  11447 ****       105.2500 157.2500 137.7500 Du        
  11448 ****       105.2500 157.5000 126.5000 Du        
  11449 ****       105.2500 157.5000 126.7500 Du        
  11450 ****       105.2500 157.5000 127.0000 Du        
  11451 ****       105.2500 157.5000 127.2500 Du        
  11452 ****       105.2500 157.5000 127.5000 Du        
  11453 ****       105.2500 157.5000 127.7500 Du        
  11454 ****       105.2500 157.5000 128.0000 Du        
  11455 ****       105.2500 157.5000 128.2500 Du        
  11456 ****       105.2500 157.5000 128.5000 Du        
  11457 ****       105.2500 157.5000 128.7500 Du        
  11458 ****       105.2500 157.5000 129.0000 Du        
  11459 ****       105.2500 157.5000 129.2500 Du        
  11460 ****       105.2500 157.5000 129.5000 Du        
  11461 ****       105.2500 157.5000 129.7500 Du        
  11462 ****       105.2500 157.5000 137.0000 Du        
  11463 ****       105.2500 157.5000 137.2500 Du        
  11464 ****       105.2500 157.5000 137.5000 Du        
  11465 ****       105.2500 157.5000 137.7500 Du        
  11466 ****       105.2500 157.7500 126.5000 Du        
  11467 ****       105.2500 157.7500 126.7500 Du        
  11468 ****       105.2500 157.7500 127.0000 Du        
  11469 ****       105.2500 157.7500 127.2500 Du        
  11470 ****       105.2500 157.7500 127.5000 Du        
  11471 ****       105.2500 157.7500 127.7500 Du        
  11472 ****       105.2500 157.7500 128.0000 Du        
  11473 ****       105.2500 157.7500 128.2500 Du        
  11474 ****       105.2500 157.7500 128.5000 Du        
  11475 ****       105.2500 157.7500 128.7500 Du        
  11476 ****       105.2500 157.7500 129.0000 Du        
  11477 ****       105.2500 157.7500 129.2500 Du        
  11478 ****       105.2500 157.7500 129.5000 Du        
  11479 ****       105.2500 157.7500 129.7500 Du        
  11480 ****       105.2500 157.7500 130.0000 Du        
  11481 ****       105.2500 157.7500 137.0000 Du        
  11482 ****       105.2500 157.7500 137.2500 Du        
  11483 ****       105.2500 157.7500 137.5000 Du        
  11484 ****       105.2500 157.7500 137.7500 Du        
  11485 ****       105.2500 158.0000 126.5000 Du        
  11486 ****       105.2500 158.0000 126.7500 Du        
  11487 ****       105.2500 158.0000 127.0000 Du        
  11488 ****       105.2500 158.0000 127.2500 Du        
  11489 ****       105.2500 158.0000 127.5000 Du        
  11490 ****       105.2500 158.0000 127.7500 Du        
  11491 ****       105.2500 158.0000 128.0000 Du        
  11492 ****       105.2500 158.0000 128.2500 Du        
  11493 ****       105.2500 158.0000 128.5000 Du        
  11494 ****       105.2500 158.0000 128.7500 Du        
  11495 ****       105.2500 158.0000 129.0000 Du        
  11496 ****       105.2500 158.0000 129.2500 Du        
  11497 ****       105.2500 158.0000 129.5000 Du        
  11498 ****       105.2500 158.0000 129.7500 Du        
  11499 ****       105.2500 158.0000 130.0000 Du        
  11500 ****       105.2500 158.0000 130.2500 Du        
  11501 ****       105.2500 158.0000 137.2500 Du        
  11502 ****       105.2500 158.0000 137.5000 Du        
  11503 ****       105.2500 158.2500 126.5000 Du        
  11504 ****       105.2500 158.2500 126.7500 Du        
  11505 ****       105.2500 158.2500 127.0000 Du        
  11506 ****       105.2500 158.2500 127.2500 Du        
  11507 ****       105.2500 158.2500 127.5000 Du        
  11508 ****       105.2500 158.2500 127.7500 Du        
  11509 ****       105.2500 158.2500 128.0000 Du        
  11510 ****       105.2500 158.2500 128.2500 Du        
  11511 ****       105.2500 158.2500 128.5000 Du        
  11512 ****       105.2500 158.2500 128.7500 Du        
  11513 ****       105.2500 158.2500 129.0000 Du        
  11514 ****       105.2500 158.2500 129.2500 Du        
  11515 ****       105.2500 158.2500 129.5000 Du        
  11516 ****       105.2500 158.2500 129.7500 Du        
  11517 ****       105.2500 158.2500 130.0000 Du        
  11518 ****       105.2500 158.2500 130.2500 Du        
  11519 ****       105.2500 158.5000 126.7500 Du        
  11520 ****       105.2500 158.5000 127.0000 Du        
  11521 ****       105.2500 158.5000 127.2500 Du        
  11522 ****       105.2500 158.5000 127.5000 Du        
  11523 ****       105.2500 158.5000 127.7500 Du        
  11524 ****       105.2500 158.5000 128.0000 Du        
  11525 ****       105.2500 158.5000 128.2500 Du        
  11526 ****       105.2500 158.5000 128.5000 Du        
  11527 ****       105.2500 158.5000 128.7500 Du        
  11528 ****       105.2500 158.5000 129.0000 Du        
  11529 ****       105.2500 158.5000 129.2500 Du        
  11530 ****       105.2500 158.5000 129.7500 Du        
  11531 ****       105.2500 158.7500 126.7500 Du        
  11532 ****       105.2500 158.7500 127.0000 Du        
  11533 ****       105.2500 158.7500 127.2500 Du        
  11534 ****       105.2500 158.7500 127.5000 Du        
  11535 ****       105.2500 158.7500 127.7500 Du        
  11536 ****       105.2500 158.7500 128.0000 Du        
  11537 ****       105.2500 158.7500 128.2500 Du        
  11538 ****       105.2500 158.7500 128.5000 Du        
  11539 ****       105.2500 158.7500 128.7500 Du        
  11540 ****       105.2500 159.0000 127.0000 Du        
  11541 ****       105.2500 159.0000 127.2500 Du        
  11542 ****       105.2500 159.0000 127.5000 Du        
  11543 ****       105.2500 159.0000 127.7500 Du        
  11544 ****       105.2500 159.0000 128.0000 Du        
  11545 ****       105.2500 159.0000 128.2500 Du        
  11546 ****       105.2500 159.2500 127.0000 Du        
  11547 ****       105.2500 159.2500 127.2500 Du        
  11548 ****       105.2500 159.2500 127.5000 Du        
  11549 ****       105.2500 159.2500 127.7500 Du        
  11550 ****       105.2500 159.2500 128.0000 Du        
  11551 ****       105.2500 159.5000 127.2500 Du        
  11552 ****       105.2500 159.5000 127.5000 Du        
  11553 ****       105.2500 159.5000 127.7500 Du        
  11554 ****       105.2500 162.5000 138.0000 Du        
  11555 ****       105.2500 162.5000 138.2500 Du        
  11556 ****       105.2500 162.5000 138.5000 Du        
  11557 ****       105.2500 162.5000 138.7500 Du        
  11558 ****       105.2500 162.5000 139.0000 Du        
  11559 ****       105.2500 162.5000 139.2500 Du        
  11560 ****       105.2500 162.7500 138.0000 Du        
  11561 ****       105.2500 162.7500 138.2500 Du        
  11562 ****       105.2500 162.7500 138.5000 Du        
  11563 ****       105.2500 162.7500 138.7500 Du        
  11564 ****       105.2500 162.7500 139.0000 Du        
  11565 ****       105.2500 162.7500 139.2500 Du        
  11566 ****       105.2500 163.0000 138.2500 Du        
  11567 ****       105.5000 134.5000 135.2500 Du        
  11568 ****       105.5000 134.7500 135.2500 Du        
  11569 ****       105.5000 134.7500 135.5000 Du        
  11570 ****       105.5000 134.7500 135.7500 Du        
  11571 ****       105.5000 134.7500 136.0000 Du        
  11572 ****       105.5000 134.7500 136.2500 Du        
  11573 ****       105.5000 135.0000 135.2500 Du        
  11574 ****       105.5000 135.0000 135.5000 Du        
  11575 ****       105.5000 135.0000 135.7500 Du        
  11576 ****       105.5000 135.0000 136.0000 Du        
  11577 ****       105.5000 135.0000 136.2500 Du        
  11578 ****       105.5000 135.0000 136.5000 Du        
  11579 ****       105.5000 135.0000 136.7500 Du        
  11580 ****       105.5000 135.2500 135.2500 Du        
  11581 ****       105.5000 135.2500 135.5000 Du        
  11582 ****       105.5000 135.2500 135.7500 Du        
  11583 ****       105.5000 135.2500 136.0000 Du        
  11584 ****       105.5000 135.2500 136.2500 Du        
  11585 ****       105.5000 135.5000 135.7500 Du        
  11586 ****       105.5000 147.0000 145.5000 Du        
  11587 ****       105.5000 147.0000 145.7500 Du        
  11588 ****       105.5000 147.2500 145.2500 Du        
  11589 ****       105.5000 147.2500 145.5000 Du        
  11590 ****       105.5000 147.2500 145.7500 Du        
  11591 ****       105.5000 147.2500 146.0000 Du        
  11592 ****       105.5000 147.5000 145.2500 Du        
  11593 ****       105.5000 147.5000 145.5000 Du        
  11594 ****       105.5000 147.5000 145.7500 Du        
  11595 ****       105.5000 147.5000 146.0000 Du        
  11596 ****       105.5000 147.7500 145.2500 Du        
  11597 ****       105.5000 147.7500 145.5000 Du        
  11598 ****       105.5000 147.7500 145.7500 Du        
  11599 ****       105.5000 147.7500 146.0000 Du        
  11600 ****       105.5000 148.0000 145.2500 Du        
  11601 ****       105.5000 148.0000 145.5000 Du        
  11602 ****       105.5000 148.0000 145.7500 Du        
  11603 ****       105.5000 148.0000 146.0000 Du        
  11604 ****       105.5000 148.2500 145.2500 Du        
  11605 ****       105.5000 148.2500 145.5000 Du        
  11606 ****       105.5000 148.2500 145.7500 Du        
  11607 ****       105.5000 148.5000 145.2500 Du        
  11608 ****       105.5000 148.5000 145.5000 Du        
  11609 ****       105.5000 155.2500 128.5000 Du        
  11610 ****       105.5000 155.2500 128.7500 Du        
  11611 ****       105.5000 155.2500 129.0000 Du        
  11612 ****       105.5000 155.2500 129.2500 Du        
  11613 ****       105.5000 155.2500 129.5000 Du        
  11614 ****       105.5000 155.5000 128.2500 Du        
  11615 ****       105.5000 155.5000 128.5000 Du        
  11616 ****       105.5000 155.5000 128.7500 Du        
  11617 ****       105.5000 155.5000 129.0000 Du        
  11618 ****       105.5000 155.5000 129.2500 Du        
  11619 ****       105.5000 155.7500 127.7500 Du        
  11620 ****       105.5000 155.7500 128.0000 Du        
  11621 ****       105.5000 155.7500 128.2500 Du        
  11622 ****       105.5000 155.7500 128.5000 Du        
  11623 ****       105.5000 155.7500 128.7500 Du        
  11624 ****       105.5000 155.7500 129.0000 Du        
  11625 ****       105.5000 155.7500 129.2500 Du        
  11626 ****       105.5000 155.7500 129.5000 Du        
  11627 ****       105.5000 156.0000 127.2500 Du        
  11628 ****       105.5000 156.0000 127.5000 Du        
  11629 ****       105.5000 156.0000 127.7500 Du        
  11630 ****       105.5000 156.0000 128.0000 Du        
  11631 ****       105.5000 156.0000 128.2500 Du        
  11632 ****       105.5000 156.0000 128.5000 Du        
  11633 ****       105.5000 156.0000 128.7500 Du        
  11634 ****       105.5000 156.0000 129.0000 Du        
  11635 ****       105.5000 156.0000 129.2500 Du        
  11636 ****       105.5000 156.0000 129.5000 Du        
  11637 ****       105.5000 156.2500 127.2500 Du        
  11638 ****       105.5000 156.2500 127.5000 Du        
  11639 ****       105.5000 156.2500 127.7500 Du        
  11640 ****       105.5000 156.2500 128.0000 Du        
  11641 ****       105.5000 156.2500 128.2500 Du        
  11642 ****       105.5000 156.2500 128.5000 Du        
  11643 ****       105.5000 156.2500 128.7500 Du        
  11644 ****       105.5000 156.2500 129.0000 Du        
  11645 ****       105.5000 156.2500 129.2500 Du        
  11646 ****       105.5000 156.2500 129.5000 Du        
  11647 ****       105.5000 156.2500 136.5000 Du        
  11648 ****       105.5000 156.2500 136.7500 Du        
  11649 ****       105.5000 156.2500 137.0000 Du        
  11650 ****       105.5000 156.2500 137.2500 Du        
  11651 ****       105.5000 156.5000 127.0000 Du        
  11652 ****       105.5000 156.5000 127.2500 Du        
  11653 ****       105.5000 156.5000 127.5000 Du        
  11654 ****       105.5000 156.5000 127.7500 Du        
  11655 ****       105.5000 156.5000 128.0000 Du        
  11656 ****       105.5000 156.5000 128.2500 Du        
  11657 ****       105.5000 156.5000 128.5000 Du        
  11658 ****       105.5000 156.5000 128.7500 Du        
  11659 ****       105.5000 156.5000 129.0000 Du        
  11660 ****       105.5000 156.5000 129.2500 Du        
  11661 ****       105.5000 156.5000 129.5000 Du        
  11662 ****       105.5000 156.5000 136.2500 Du        
  11663 ****       105.5000 156.5000 136.5000 Du        
  11664 ****       105.5000 156.5000 136.7500 Du        
  11665 ****       105.5000 156.5000 137.0000 Du        
  11666 ****       105.5000 156.5000 137.2500 Du        
  11667 ****       105.5000 156.5000 137.5000 Du        
  11668 ****       105.5000 156.7500 126.7500 Du        
  11669 ****       105.5000 156.7500 127.0000 Du        
  11670 ****       105.5000 156.7500 127.2500 Du        
  11671 ****       105.5000 156.7500 127.5000 Du        
  11672 ****       105.5000 156.7500 127.7500 Du        
  11673 ****       105.5000 156.7500 128.0000 Du        
  11674 ****       105.5000 156.7500 128.2500 Du        
  11675 ****       105.5000 156.7500 128.5000 Du        
  11676 ****       105.5000 156.7500 128.7500 Du        
  11677 ****       105.5000 156.7500 129.0000 Du        
  11678 ****       105.5000 156.7500 129.2500 Du        
  11679 ****       105.5000 156.7500 129.5000 Du        
  11680 ****       105.5000 156.7500 129.7500 Du        
  11681 ****       105.5000 156.7500 136.2500 Du        
  11682 ****       105.5000 156.7500 136.5000 Du        
  11683 ****       105.5000 156.7500 136.7500 Du        
  11684 ****       105.5000 156.7500 137.0000 Du        
  11685 ****       105.5000 156.7500 137.2500 Du        
  11686 ****       105.5000 156.7500 137.5000 Du        
  11687 ****       105.5000 156.7500 137.7500 Du        
  11688 ****       105.5000 157.0000 126.7500 Du        
  11689 ****       105.5000 157.0000 127.0000 Du        
  11690 ****       105.5000 157.0000 127.2500 Du        
  11691 ****       105.5000 157.0000 127.5000 Du        
  11692 ****       105.5000 157.0000 127.7500 Du        
  11693 ****       105.5000 157.0000 128.0000 Du        
  11694 ****       105.5000 157.0000 128.2500 Du        
  11695 ****       105.5000 157.0000 128.5000 Du        
  11696 ****       105.5000 157.0000 128.7500 Du        
  11697 ****       105.5000 157.0000 129.0000 Du        
  11698 ****       105.5000 157.0000 129.2500 Du        
  11699 ****       105.5000 157.0000 129.5000 Du        
  11700 ****       105.5000 157.0000 129.7500 Du        
  11701 ****       105.5000 157.0000 136.2500 Du        
  11702 ****       105.5000 157.0000 136.5000 Du        
  11703 ****       105.5000 157.0000 136.7500 Du        
  11704 ****       105.5000 157.0000 137.0000 Du        
  11705 ****       105.5000 157.0000 137.2500 Du        
  11706 ****       105.5000 157.0000 137.5000 Du        
  11707 ****       105.5000 157.0000 137.7500 Du        
  11708 ****       105.5000 157.2500 126.7500 Du        
  11709 ****       105.5000 157.2500 127.0000 Du        
  11710 ****       105.5000 157.2500 127.2500 Du        
  11711 ****       105.5000 157.2500 127.5000 Du        
  11712 ****       105.5000 157.2500 127.7500 Du        
  11713 ****       105.5000 157.2500 128.0000 Du        
  11714 ****       105.5000 157.2500 128.2500 Du        
  11715 ****       105.5000 157.2500 128.5000 Du        
  11716 ****       105.5000 157.2500 128.7500 Du        
  11717 ****       105.5000 157.2500 129.0000 Du        
  11718 ****       105.5000 157.2500 129.2500 Du        
  11719 ****       105.5000 157.2500 129.5000 Du        
  11720 ****       105.5000 157.2500 129.7500 Du        
  11721 ****       105.5000 157.2500 136.5000 Du        
  11722 ****       105.5000 157.2500 136.7500 Du        
  11723 ****       105.5000 157.2500 137.0000 Du        
  11724 ****       105.5000 157.2500 137.2500 Du        
  11725 ****       105.5000 157.2500 137.5000 Du        
  11726 ****       105.5000 157.2500 137.7500 Du        
  11727 ****       105.5000 157.2500 138.0000 Du        
  11728 ****       105.5000 157.5000 126.5000 Du        
  11729 ****       105.5000 157.5000 126.7500 Du        
  11730 ****       105.5000 157.5000 127.0000 Du        
  11731 ****       105.5000 157.5000 127.2500 Du        
  11732 ****       105.5000 157.5000 127.5000 Du        
  11733 ****       105.5000 157.5000 127.7500 Du        
  11734 ****       105.5000 157.5000 128.0000 Du        
  11735 ****       105.5000 157.5000 128.2500 Du        
  11736 ****       105.5000 157.5000 128.5000 Du        
  11737 ****       105.5000 157.5000 128.7500 Du        
  11738 ****       105.5000 157.5000 129.0000 Du        
  11739 ****       105.5000 157.5000 129.2500 Du        
  11740 ****       105.5000 157.5000 129.5000 Du        
  11741 ****       105.5000 157.5000 129.7500 Du        
  11742 ****       105.5000 157.5000 136.7500 Du        
  11743 ****       105.5000 157.5000 137.0000 Du        
  11744 ****       105.5000 157.5000 137.2500 Du        
  11745 ****       105.5000 157.5000 137.5000 Du        
  11746 ****       105.5000 157.5000 137.7500 Du        
  11747 ****       105.5000 157.5000 138.0000 Du        
  11748 ****       105.5000 157.7500 126.5000 Du        
  11749 ****       105.5000 157.7500 126.7500 Du        
  11750 ****       105.5000 157.7500 127.0000 Du        
  11751 ****       105.5000 157.7500 127.2500 Du        
  11752 ****       105.5000 157.7500 127.5000 Du        
  11753 ****       105.5000 157.7500 127.7500 Du        
  11754 ****       105.5000 157.7500 128.0000 Du        
  11755 ****       105.5000 157.7500 128.2500 Du        
  11756 ****       105.5000 157.7500 128.5000 Du        
  11757 ****       105.5000 157.7500 128.7500 Du        
  11758 ****       105.5000 157.7500 129.0000 Du        
  11759 ****       105.5000 157.7500 129.2500 Du        
  11760 ****       105.5000 157.7500 129.5000 Du        
  11761 ****       105.5000 157.7500 129.7500 Du        
  11762 ****       105.5000 157.7500 130.0000 Du        
  11763 ****       105.5000 157.7500 136.7500 Du        
  11764 ****       105.5000 157.7500 137.0000 Du        
  11765 ****       105.5000 157.7500 137.2500 Du        
  11766 ****       105.5000 157.7500 137.5000 Du        
  11767 ****       105.5000 157.7500 137.7500 Du        
  11768 ****       105.5000 157.7500 138.0000 Du        
  11769 ****       105.5000 157.7500 138.2500 Du        
  11770 ****       105.5000 158.0000 126.5000 Du        
  11771 ****       105.5000 158.0000 126.7500 Du        
  11772 ****       105.5000 158.0000 127.0000 Du        
  11773 ****       105.5000 158.0000 127.2500 Du        
  11774 ****       105.5000 158.0000 127.5000 Du        
  11775 ****       105.5000 158.0000 127.7500 Du        
  11776 ****       105.5000 158.0000 128.0000 Du        
  11777 ****       105.5000 158.0000 128.2500 Du        
  11778 ****       105.5000 158.0000 128.5000 Du        
  11779 ****       105.5000 158.0000 128.7500 Du        
  11780 ****       105.5000 158.0000 129.0000 Du        
  11781 ****       105.5000 158.0000 129.2500 Du        
  11782 ****       105.5000 158.0000 129.5000 Du        
  11783 ****       105.5000 158.0000 129.7500 Du        
  11784 ****       105.5000 158.0000 130.0000 Du        
  11785 ****       105.5000 158.0000 130.2500 Du        
  11786 ****       105.5000 158.0000 130.5000 Du        
  11787 ****       105.5000 158.0000 137.0000 Du        
  11788 ****       105.5000 158.0000 137.2500 Du        
  11789 ****       105.5000 158.0000 137.5000 Du        
  11790 ****       105.5000 158.0000 137.7500 Du        
  11791 ****       105.5000 158.0000 138.0000 Du        
  11792 ****       105.5000 158.0000 138.2500 Du        
  11793 ****       105.5000 158.2500 126.5000 Du        
  11794 ****       105.5000 158.2500 126.7500 Du        
  11795 ****       105.5000 158.2500 127.0000 Du        
  11796 ****       105.5000 158.2500 127.2500 Du        
  11797 ****       105.5000 158.2500 127.5000 Du        
  11798 ****       105.5000 158.2500 127.7500 Du        
  11799 ****       105.5000 158.2500 128.0000 Du        
  11800 ****       105.5000 158.2500 128.2500 Du        
  11801 ****       105.5000 158.2500 128.5000 Du        
  11802 ****       105.5000 158.2500 128.7500 Du        
  11803 ****       105.5000 158.2500 129.0000 Du        
  11804 ****       105.5000 158.2500 129.2500 Du        
  11805 ****       105.5000 158.2500 129.5000 Du        
  11806 ****       105.5000 158.2500 129.7500 Du        
  11807 ****       105.5000 158.2500 130.0000 Du        
  11808 ****       105.5000 158.2500 130.2500 Du        
  11809 ****       105.5000 158.2500 130.5000 Du        
  11810 ****       105.5000 158.2500 137.2500 Du        
  11811 ****       105.5000 158.5000 126.5000 Du        
  11812 ****       105.5000 158.5000 126.7500 Du        
  11813 ****       105.5000 158.5000 127.0000 Du        
  11814 ****       105.5000 158.5000 127.2500 Du        
  11815 ****       105.5000 158.5000 127.5000 Du        
  11816 ****       105.5000 158.5000 127.7500 Du        
  11817 ****       105.5000 158.5000 128.0000 Du        
  11818 ****       105.5000 158.5000 128.2500 Du        
  11819 ****       105.5000 158.5000 128.5000 Du        
  11820 ****       105.5000 158.5000 128.7500 Du        
  11821 ****       105.5000 158.5000 129.0000 Du        
  11822 ****       105.5000 158.5000 129.5000 Du        
  11823 ****       105.5000 158.5000 129.7500 Du        
  11824 ****       105.5000 158.7500 126.7500 Du        
  11825 ****       105.5000 158.7500 127.0000 Du        
  11826 ****       105.5000 158.7500 127.2500 Du        
  11827 ****       105.5000 158.7500 127.5000 Du        
  11828 ****       105.5000 158.7500 127.7500 Du        
  11829 ****       105.5000 158.7500 128.0000 Du        
  11830 ****       105.5000 158.7500 128.2500 Du        
  11831 ****       105.5000 158.7500 128.5000 Du        
  11832 ****       105.5000 158.7500 128.7500 Du        
  11833 ****       105.5000 159.0000 126.7500 Du        
  11834 ****       105.5000 159.0000 127.0000 Du        
  11835 ****       105.5000 159.0000 127.2500 Du        
  11836 ****       105.5000 159.0000 127.5000 Du        
  11837 ****       105.5000 159.0000 127.7500 Du        
  11838 ****       105.5000 159.0000 128.0000 Du        
  11839 ****       105.5000 159.0000 128.2500 Du        
  11840 ****       105.5000 159.2500 127.2500 Du        
  11841 ****       105.5000 162.2500 138.0000 Du        
  11842 ****       105.5000 162.2500 138.2500 Du        
  11843 ****       105.5000 162.2500 138.7500 Du        
  11844 ****       105.5000 162.5000 138.0000 Du        
  11845 ****       105.5000 162.5000 138.2500 Du        
  11846 ****       105.5000 162.5000 138.5000 Du        
  11847 ****       105.5000 162.5000 138.7500 Du        
  11848 ****       105.5000 162.5000 139.0000 Du        
  11849 ****       105.5000 162.7500 138.0000 Du        
  11850 ****       105.5000 162.7500 138.2500 Du        
  11851 ****       105.5000 162.7500 138.5000 Du        
  11852 ****       105.5000 162.7500 138.7500 Du        
  11853 ****       105.7500 134.5000 135.0000 Du        
  11854 ****       105.7500 134.5000 135.2500 Du        
  11855 ****       105.7500 134.5000 135.5000 Du        
  11856 ****       105.7500 134.5000 135.7500 Du        
  11857 ****       105.7500 134.5000 136.0000 Du        
  11858 ****       105.7500 134.7500 135.2500 Du        
  11859 ****       105.7500 134.7500 135.5000 Du        
  11860 ****       105.7500 134.7500 135.7500 Du        
  11861 ****       105.7500 134.7500 136.0000 Du        
  11862 ****       105.7500 134.7500 136.2500 Du        
  11863 ****       105.7500 134.7500 136.7500 Du        
  11864 ****       105.7500 135.0000 135.2500 Du        
  11865 ****       105.7500 135.0000 135.5000 Du        
  11866 ****       105.7500 135.0000 135.7500 Du        
  11867 ****       105.7500 135.0000 136.0000 Du        
  11868 ****       105.7500 135.0000 136.2500 Du        
  11869 ****       105.7500 135.0000 136.5000 Du        
  11870 ****       105.7500 135.0000 136.7500 Du        
  11871 ****       105.7500 135.0000 137.0000 Du        
  11872 ****       105.7500 135.2500 135.2500 Du        
  11873 ****       105.7500 135.2500 135.5000 Du        
  11874 ****       105.7500 135.2500 135.7500 Du        
  11875 ****       105.7500 135.2500 136.0000 Du        
  11876 ****       105.7500 135.2500 136.2500 Du        
  11877 ****       105.7500 146.7500 145.7500 Du        
  11878 ****       105.7500 147.0000 145.5000 Du        
  11879 ****       105.7500 147.0000 145.7500 Du        
  11880 ****       105.7500 147.0000 146.0000 Du        
  11881 ****       105.7500 147.2500 145.5000 Du        
  11882 ****       105.7500 147.2500 145.7500 Du        
  11883 ****       105.7500 147.2500 146.0000 Du        
  11884 ****       105.7500 147.2500 146.2500 Du        
  11885 ****       105.7500 147.5000 145.5000 Du        
  11886 ****       105.7500 147.5000 145.7500 Du        
  11887 ****       105.7500 147.5000 146.0000 Du        
  11888 ****       105.7500 147.5000 146.2500 Du        
  11889 ****       105.7500 147.7500 145.5000 Du        
  11890 ****       105.7500 147.7500 145.7500 Du        
  11891 ****       105.7500 147.7500 146.0000 Du        
  11892 ****       105.7500 147.7500 146.2500 Du        
  11893 ****       105.7500 147.7500 146.5000 Du        
  11894 ****       105.7500 148.0000 145.5000 Du        
  11895 ****       105.7500 148.0000 145.7500 Du        
  11896 ****       105.7500 148.0000 146.0000 Du        
  11897 ****       105.7500 148.0000 146.2500 Du        
  11898 ****       105.7500 148.2500 145.5000 Du        
  11899 ****       105.7500 148.2500 145.7500 Du        
  11900 ****       105.7500 148.2500 146.0000 Du        
  11901 ****       105.7500 148.2500 146.2500 Du        
  11902 ****       105.7500 148.5000 145.5000 Du        
  11903 ****       105.7500 148.5000 145.7500 Du        
  11904 ****       105.7500 155.0000 129.0000 Du        
  11905 ****       105.7500 155.0000 129.2500 Du        
  11906 ****       105.7500 155.0000 129.5000 Du        
  11907 ****       105.7500 155.2500 128.7500 Du        
  11908 ****       105.7500 155.2500 129.0000 Du        
  11909 ****       105.7500 155.2500 129.2500 Du        
  11910 ****       105.7500 155.2500 129.5000 Du        
  11911 ****       105.7500 155.5000 128.5000 Du        
  11912 ****       105.7500 155.5000 128.7500 Du        
  11913 ****       105.7500 155.5000 129.0000 Du        
  11914 ****       105.7500 155.5000 129.2500 Du        
  11915 ****       105.7500 155.5000 129.5000 Du        
  11916 ****       105.7500 155.7500 128.0000 Du        
  11917 ****       105.7500 155.7500 128.2500 Du        
  11918 ****       105.7500 155.7500 128.5000 Du        
  11919 ****       105.7500 155.7500 128.7500 Du        
  11920 ****       105.7500 155.7500 129.0000 Du        
  11921 ****       105.7500 155.7500 129.2500 Du        
  11922 ****       105.7500 155.7500 129.5000 Du        
  11923 ****       105.7500 155.7500 129.7500 Du        
  11924 ****       105.7500 156.0000 127.5000 Du        
  11925 ****       105.7500 156.0000 127.7500 Du        
  11926 ****       105.7500 156.0000 128.0000 Du        
  11927 ****       105.7500 156.0000 128.2500 Du        
  11928 ****       105.7500 156.0000 128.5000 Du        
  11929 ****       105.7500 156.0000 128.7500 Du        
  11930 ****       105.7500 156.0000 129.0000 Du        
  11931 ****       105.7500 156.0000 129.2500 Du        
  11932 ****       105.7500 156.0000 129.5000 Du        
  11933 ****       105.7500 156.0000 129.7500 Du        
  11934 ****       105.7500 156.2500 127.2500 Du        
  11935 ****       105.7500 156.2500 127.5000 Du        
  11936 ****       105.7500 156.2500 127.7500 Du        
  11937 ****       105.7500 156.2500 128.0000 Du        
  11938 ****       105.7500 156.2500 128.2500 Du        
  11939 ****       105.7500 156.2500 128.5000 Du        
  11940 ****       105.7500 156.2500 128.7500 Du        
  11941 ****       105.7500 156.2500 129.0000 Du        
  11942 ****       105.7500 156.2500 129.2500 Du        
  11943 ****       105.7500 156.2500 129.5000 Du        
  11944 ****       105.7500 156.2500 129.7500 Du        
  11945 ****       105.7500 156.2500 136.5000 Du        
  11946 ****       105.7500 156.2500 136.7500 Du        
  11947 ****       105.7500 156.2500 137.0000 Du        
  11948 ****       105.7500 156.5000 127.0000 Du        
  11949 ****       105.7500 156.5000 127.2500 Du        
  11950 ****       105.7500 156.5000 127.5000 Du        
  11951 ****       105.7500 156.5000 127.7500 Du        
  11952 ****       105.7500 156.5000 128.0000 Du        
  11953 ****       105.7500 156.5000 128.2500 Du        
  11954 ****       105.7500 156.5000 128.5000 Du        
  11955 ****       105.7500 156.5000 128.7500 Du        
  11956 ****       105.7500 156.5000 129.0000 Du        
  11957 ****       105.7500 156.5000 129.2500 Du        
  11958 ****       105.7500 156.5000 129.5000 Du        
  11959 ****       105.7500 156.5000 129.7500 Du        
  11960 ****       105.7500 156.5000 136.2500 Du        
  11961 ****       105.7500 156.5000 136.5000 Du        
  11962 ****       105.7500 156.5000 136.7500 Du        
  11963 ****       105.7500 156.5000 137.0000 Du        
  11964 ****       105.7500 156.5000 137.2500 Du        
  11965 ****       105.7500 156.5000 137.5000 Du        
  11966 ****       105.7500 156.5000 137.7500 Du        
  11967 ****       105.7500 156.7500 127.0000 Du        
  11968 ****       105.7500 156.7500 127.2500 Du        
  11969 ****       105.7500 156.7500 127.5000 Du        
  11970 ****       105.7500 156.7500 127.7500 Du        
  11971 ****       105.7500 156.7500 128.0000 Du        
  11972 ****       105.7500 156.7500 128.2500 Du        
  11973 ****       105.7500 156.7500 128.5000 Du        
  11974 ****       105.7500 156.7500 128.7500 Du        
  11975 ****       105.7500 156.7500 129.0000 Du        
  11976 ****       105.7500 156.7500 129.2500 Du        
  11977 ****       105.7500 156.7500 129.5000 Du        
  11978 ****       105.7500 156.7500 129.7500 Du        
  11979 ****       105.7500 156.7500 130.0000 Du        
  11980 ****       105.7500 156.7500 136.0000 Du        
  11981 ****       105.7500 156.7500 136.2500 Du        
  11982 ****       105.7500 156.7500 136.5000 Du        
  11983 ****       105.7500 156.7500 136.7500 Du        
  11984 ****       105.7500 156.7500 137.0000 Du        
  11985 ****       105.7500 156.7500 137.2500 Du        
  11986 ****       105.7500 156.7500 137.5000 Du        
  11987 ****       105.7500 156.7500 137.7500 Du        
  11988 ****       105.7500 156.7500 138.0000 Du        
  11989 ****       105.7500 157.0000 126.7500 Du        
  11990 ****       105.7500 157.0000 127.0000 Du        
  11991 ****       105.7500 157.0000 127.2500 Du        
  11992 ****       105.7500 157.0000 127.5000 Du        
  11993 ****       105.7500 157.0000 127.7500 Du        
  11994 ****       105.7500 157.0000 128.0000 Du        
  11995 ****       105.7500 157.0000 128.2500 Du        
  11996 ****       105.7500 157.0000 128.5000 Du        
  11997 ****       105.7500 157.0000 128.7500 Du        
  11998 ****       105.7500 157.0000 129.0000 Du        
  11999 ****       105.7500 157.0000 129.2500 Du        
  12000 ****       105.7500 157.0000 129.5000 Du        
  12001 ****       105.7500 157.0000 129.7500 Du        
  12002 ****       105.7500 157.0000 130.0000 Du        
  12003 ****       105.7500 157.0000 136.0000 Du        
  12004 ****       105.7500 157.0000 136.2500 Du        
  12005 ****       105.7500 157.0000 136.5000 Du        
  12006 ****       105.7500 157.0000 136.7500 Du        
  12007 ****       105.7500 157.0000 137.0000 Du        
  12008 ****       105.7500 157.0000 137.2500 Du        
  12009 ****       105.7500 157.0000 137.5000 Du        
  12010 ****       105.7500 157.0000 137.7500 Du        
  12011 ****       105.7500 157.0000 138.0000 Du        
  12012 ****       105.7500 157.0000 138.2500 Du        
  12013 ****       105.7500 157.2500 126.7500 Du        
  12014 ****       105.7500 157.2500 127.0000 Du        
  12015 ****       105.7500 157.2500 127.2500 Du        
  12016 ****       105.7500 157.2500 127.5000 Du        
  12017 ****       105.7500 157.2500 127.7500 Du        
  12018 ****       105.7500 157.2500 128.0000 Du        
  12019 ****       105.7500 157.2500 128.2500 Du        
  12020 ****       105.7500 157.2500 128.5000 Du        
  12021 ****       105.7500 157.2500 128.7500 Du        
  12022 ****       105.7500 157.2500 129.0000 Du        
  12023 ****       105.7500 157.2500 129.2500 Du        
  12024 ****       105.7500 157.2500 129.5000 Du        
  12025 ****       105.7500 157.2500 129.7500 Du        
  12026 ****       105.7500 157.2500 130.0000 Du        
  12027 ****       105.7500 157.2500 130.2500 Du        
  12028 ****       105.7500 157.2500 136.2500 Du        
  12029 ****       105.7500 157.2500 136.5000 Du        
  12030 ****       105.7500 157.2500 136.7500 Du        
  12031 ****       105.7500 157.2500 137.0000 Du        
  12032 ****       105.7500 157.2500 137.2500 Du        
  12033 ****       105.7500 157.2500 137.5000 Du        
  12034 ****       105.7500 157.2500 137.7500 Du        
  12035 ****       105.7500 157.2500 138.0000 Du        
  12036 ****       105.7500 157.2500 138.2500 Du        
  12037 ****       105.7500 157.5000 126.7500 Du        
  12038 ****       105.7500 157.5000 127.0000 Du        
  12039 ****       105.7500 157.5000 127.2500 Du        
  12040 ****       105.7500 157.5000 127.5000 Du        
  12041 ****       105.7500 157.5000 127.7500 Du        
  12042 ****       105.7500 157.5000 128.0000 Du        
  12043 ****       105.7500 157.5000 128.2500 Du        
  12044 ****       105.7500 157.5000 128.5000 Du        
  12045 ****       105.7500 157.5000 128.7500 Du        
  12046 ****       105.7500 157.5000 129.0000 Du        
  12047 ****       105.7500 157.5000 129.2500 Du        
  12048 ****       105.7500 157.5000 129.5000 Du        
  12049 ****       105.7500 157.5000 129.7500 Du        
  12050 ****       105.7500 157.5000 130.0000 Du        
  12051 ****       105.7500 157.5000 130.2500 Du        
  12052 ****       105.7500 157.5000 136.5000 Du        
  12053 ****       105.7500 157.5000 136.7500 Du        
  12054 ****       105.7500 157.5000 137.0000 Du        
  12055 ****       105.7500 157.5000 137.2500 Du        
  12056 ****       105.7500 157.5000 137.5000 Du        
  12057 ****       105.7500 157.5000 137.7500 Du        
  12058 ****       105.7500 157.5000 138.0000 Du        
  12059 ****       105.7500 157.5000 138.2500 Du        
  12060 ****       105.7500 157.7500 126.7500 Du        
  12061 ****       105.7500 157.7500 127.0000 Du        
  12062 ****       105.7500 157.7500 127.2500 Du        
  12063 ****       105.7500 157.7500 127.5000 Du        
  12064 ****       105.7500 157.7500 127.7500 Du        
  12065 ****       105.7500 157.7500 128.0000 Du        
  12066 ****       105.7500 157.7500 128.2500 Du        
  12067 ****       105.7500 157.7500 128.5000 Du        
  12068 ****       105.7500 157.7500 128.7500 Du        
  12069 ****       105.7500 157.7500 129.0000 Du        
  12070 ****       105.7500 157.7500 129.2500 Du        
  12071 ****       105.7500 157.7500 129.5000 Du        
  12072 ****       105.7500 157.7500 129.7500 Du        
  12073 ****       105.7500 157.7500 130.0000 Du        
  12074 ****       105.7500 157.7500 130.2500 Du        
  12075 ****       105.7500 157.7500 130.5000 Du        
  12076 ****       105.7500 157.7500 130.7500 Du        
  12077 ****       105.7500 157.7500 136.5000 Du        
  12078 ****       105.7500 157.7500 136.7500 Du        
  12079 ****       105.7500 157.7500 137.0000 Du        
  12080 ****       105.7500 157.7500 137.2500 Du        
  12081 ****       105.7500 157.7500 137.5000 Du        
  12082 ****       105.7500 157.7500 137.7500 Du        
  12083 ****       105.7500 157.7500 138.0000 Du        
  12084 ****       105.7500 157.7500 138.2500 Du        
  12085 ****       105.7500 157.7500 138.5000 Du        
  12086 ****       105.7500 157.7500 138.7500 Du        
  12087 ****       105.7500 158.0000 126.7500 Du        
  12088 ****       105.7500 158.0000 127.0000 Du        
  12089 ****       105.7500 158.0000 127.2500 Du        
  12090 ****       105.7500 158.0000 127.5000 Du        
  12091 ****       105.7500 158.0000 127.7500 Du        
  12092 ****       105.7500 158.0000 128.0000 Du        
  12093 ****       105.7500 158.0000 128.2500 Du        
  12094 ****       105.7500 158.0000 128.5000 Du        
  12095 ****       105.7500 158.0000 128.7500 Du        
  12096 ****       105.7500 158.0000 129.0000 Du        
  12097 ****       105.7500 158.0000 129.2500 Du        
  12098 ****       105.7500 158.0000 129.5000 Du        
  12099 ****       105.7500 158.0000 129.7500 Du        
  12100 ****       105.7500 158.0000 130.0000 Du        
  12101 ****       105.7500 158.0000 130.2500 Du        
  12102 ****       105.7500 158.0000 130.5000 Du        
  12103 ****       105.7500 158.0000 130.7500 Du        
  12104 ****       105.7500 158.0000 131.0000 Du        
  12105 ****       105.7500 158.0000 136.7500 Du        
  12106 ****       105.7500 158.0000 137.0000 Du        
  12107 ****       105.7500 158.0000 137.2500 Du        
  12108 ****       105.7500 158.0000 137.5000 Du        
  12109 ****       105.7500 158.0000 137.7500 Du        
  12110 ****       105.7500 158.0000 138.0000 Du        
  12111 ****       105.7500 158.0000 138.2500 Du        
  12112 ****       105.7500 158.0000 138.5000 Du        
  12113 ****       105.7500 158.0000 138.7500 Du        
  12114 ****       105.7500 158.0000 139.0000 Du        
  12115 ****       105.7500 158.2500 126.7500 Du        
  12116 ****       105.7500 158.2500 127.0000 Du        
  12117 ****       105.7500 158.2500 127.2500 Du        
  12118 ****       105.7500 158.2500 127.5000 Du        
  12119 ****       105.7500 158.2500 127.7500 Du        
  12120 ****       105.7500 158.2500 128.0000 Du        
  12121 ****       105.7500 158.2500 128.2500 Du        
  12122 ****       105.7500 158.2500 128.5000 Du        
  12123 ****       105.7500 158.2500 128.7500 Du        
  12124 ****       105.7500 158.2500 129.0000 Du        
  12125 ****       105.7500 158.2500 129.2500 Du        
  12126 ****       105.7500 158.2500 129.5000 Du        
  12127 ****       105.7500 158.2500 129.7500 Du        
  12128 ****       105.7500 158.2500 130.0000 Du        
  12129 ****       105.7500 158.2500 130.2500 Du        
  12130 ****       105.7500 158.2500 130.5000 Du        
  12131 ****       105.7500 158.2500 130.7500 Du        
  12132 ****       105.7500 158.2500 136.7500 Du        
  12133 ****       105.7500 158.2500 137.0000 Du        
  12134 ****       105.7500 158.2500 137.2500 Du        
  12135 ****       105.7500 158.2500 137.5000 Du        
  12136 ****       105.7500 158.2500 137.7500 Du        
  12137 ****       105.7500 158.2500 138.0000 Du        
  12138 ****       105.7500 158.2500 138.2500 Du        
  12139 ****       105.7500 158.2500 139.0000 Du        
  12140 ****       105.7500 158.2500 139.2500 Du        
  12141 ****       105.7500 158.5000 126.7500 Du        
  12142 ****       105.7500 158.5000 127.0000 Du        
  12143 ****       105.7500 158.5000 127.2500 Du        
  12144 ****       105.7500 158.5000 127.5000 Du        
  12145 ****       105.7500 158.5000 127.7500 Du        
  12146 ****       105.7500 158.5000 128.0000 Du        
  12147 ****       105.7500 158.5000 128.2500 Du        
  12148 ****       105.7500 158.5000 128.5000 Du        
  12149 ****       105.7500 158.5000 128.7500 Du        
  12150 ****       105.7500 158.5000 129.0000 Du        
  12151 ****       105.7500 158.5000 129.2500 Du        
  12152 ****       105.7500 158.5000 129.5000 Du        
  12153 ****       105.7500 158.5000 129.7500 Du        
  12154 ****       105.7500 158.5000 130.0000 Du        
  12155 ****       105.7500 158.5000 130.2500 Du        
  12156 ****       105.7500 158.5000 130.5000 Du        
  12157 ****       105.7500 158.5000 130.7500 Du        
  12158 ****       105.7500 158.5000 137.0000 Du        
  12159 ****       105.7500 158.5000 137.2500 Du        
  12160 ****       105.7500 158.7500 126.7500 Du        
  12161 ****       105.7500 158.7500 127.0000 Du        
  12162 ****       105.7500 158.7500 127.2500 Du        
  12163 ****       105.7500 158.7500 127.5000 Du        
  12164 ****       105.7500 158.7500 127.7500 Du        
  12165 ****       105.7500 158.7500 128.0000 Du        
  12166 ****       105.7500 158.7500 128.2500 Du        
  12167 ****       105.7500 158.7500 128.5000 Du        
  12168 ****       105.7500 158.7500 128.7500 Du        
  12169 ****       105.7500 158.7500 129.0000 Du        
  12170 ****       105.7500 158.7500 129.7500 Du        
  12171 ****       105.7500 158.7500 130.0000 Du        
  12172 ****       105.7500 159.0000 127.2500 Du        
  12173 ****       105.7500 159.0000 127.7500 Du        
  12174 ****       105.7500 159.0000 128.0000 Du        
  12175 ****       105.7500 159.0000 128.2500 Du        
  12176 ****       105.7500 159.0000 128.5000 Du        
  12177 ****       105.7500 162.0000 138.0000 Du        
  12178 ****       105.7500 162.0000 138.2500 Du        
  12179 ****       105.7500 162.0000 138.5000 Du        
  12180 ****       105.7500 162.0000 138.7500 Du        
  12181 ****       105.7500 162.2500 138.0000 Du        
  12182 ****       105.7500 162.2500 138.2500 Du        
  12183 ****       105.7500 162.2500 138.5000 Du        
  12184 ****       105.7500 162.2500 138.7500 Du        
  12185 ****       105.7500 162.2500 139.0000 Du        
  12186 ****       105.7500 162.5000 138.0000 Du        
  12187 ****       105.7500 162.5000 138.2500 Du        
  12188 ****       105.7500 162.5000 138.5000 Du        
  12189 ****       105.7500 162.5000 138.7500 Du        
  12190 ****       105.7500 162.5000 139.0000 Du        
  12191 ****       105.7500 162.7500 138.0000 Du        
  12192 ****       105.7500 162.7500 138.2500 Du        
  12193 ****       105.7500 162.7500 138.5000 Du        
  12194 ****       106.0000 134.0000 135.0000 Du        
  12195 ****       106.0000 134.2500 135.0000 Du        
  12196 ****       106.0000 134.2500 135.2500 Du        
  12197 ****       106.0000 134.2500 135.5000 Du        
  12198 ****       106.0000 134.2500 135.7500 Du        
  12199 ****       106.0000 134.5000 135.0000 Du        
  12200 ****       106.0000 134.5000 135.2500 Du        
  12201 ****       106.0000 134.5000 135.5000 Du        
  12202 ****       106.0000 134.5000 135.7500 Du        
  12203 ****       106.0000 134.5000 136.0000 Du        
  12204 ****       106.0000 134.5000 136.2500 Du        
  12205 ****       106.0000 134.7500 135.0000 Du        
  12206 ****       106.0000 134.7500 135.2500 Du        
  12207 ****       106.0000 134.7500 135.5000 Du        
  12208 ****       106.0000 134.7500 135.7500 Du        
  12209 ****       106.0000 134.7500 136.0000 Du        
  12210 ****       106.0000 134.7500 136.2500 Du        
  12211 ****       106.0000 134.7500 136.5000 Du        
  12212 ****       106.0000 134.7500 136.7500 Du        
  12213 ****       106.0000 135.0000 135.2500 Du        
  12214 ****       106.0000 135.0000 135.5000 Du        
  12215 ****       106.0000 135.0000 135.7500 Du        
  12216 ****       106.0000 135.0000 136.0000 Du        
  12217 ****       106.0000 135.0000 136.2500 Du        
  12218 ****       106.0000 135.0000 136.5000 Du        
  12219 ****       106.0000 135.0000 136.7500 Du        
  12220 ****       106.0000 135.0000 137.0000 Du        
  12221 ****       106.0000 135.2500 135.5000 Du        
  12222 ****       106.0000 135.2500 135.7500 Du        
  12223 ****       106.0000 135.2500 136.0000 Du        
  12224 ****       106.0000 135.2500 136.2500 Du        
  12225 ****       106.0000 146.7500 145.7500 Du        
  12226 ****       106.0000 147.0000 145.5000 Du        
  12227 ****       106.0000 147.0000 145.7500 Du        
  12228 ****       106.0000 147.0000 146.0000 Du        
  12229 ****       106.0000 147.2500 145.5000 Du        
  12230 ****       106.0000 147.2500 145.7500 Du        
  12231 ****       106.0000 147.2500 146.0000 Du        
  12232 ****       106.0000 147.2500 146.2500 Du        
  12233 ****       106.0000 147.5000 145.5000 Du        
  12234 ****       106.0000 147.5000 145.7500 Du        
  12235 ****       106.0000 147.5000 146.0000 Du        
  12236 ****       106.0000 147.5000 146.2500 Du        
  12237 ****       106.0000 147.5000 146.5000 Du        
  12238 ****       106.0000 147.7500 145.5000 Du        
  12239 ****       106.0000 147.7500 145.7500 Du        
  12240 ****       106.0000 147.7500 146.0000 Du        
  12241 ****       106.0000 147.7500 146.2500 Du        
  12242 ****       106.0000 147.7500 146.5000 Du        
  12243 ****       106.0000 147.7500 146.7500 Du        
  12244 ****       106.0000 148.0000 145.5000 Du        
  12245 ****       106.0000 148.0000 145.7500 Du        
  12246 ****       106.0000 148.0000 146.0000 Du        
  12247 ****       106.0000 148.0000 146.2500 Du        
  12248 ****       106.0000 148.0000 146.5000 Du        
  12249 ****       106.0000 148.0000 146.7500 Du        
  12250 ****       106.0000 148.2500 145.5000 Du        
  12251 ****       106.0000 148.2500 145.7500 Du        
  12252 ****       106.0000 148.2500 146.0000 Du        
  12253 ****       106.0000 148.2500 146.2500 Du        
  12254 ****       106.0000 148.5000 145.5000 Du        
  12255 ****       106.0000 148.5000 145.7500 Du        
  12256 ****       106.0000 148.5000 146.0000 Du        
  12257 ****       106.0000 155.0000 129.2500 Du        
  12258 ****       106.0000 155.0000 129.5000 Du        
  12259 ****       106.0000 155.2500 128.7500 Du        
  12260 ****       106.0000 155.2500 129.0000 Du        
  12261 ****       106.0000 155.2500 129.2500 Du        
  12262 ****       106.0000 155.2500 129.5000 Du        
  12263 ****       106.0000 155.2500 129.7500 Du        
  12264 ****       106.0000 155.5000 128.5000 Du        
  12265 ****       106.0000 155.5000 128.7500 Du        
  12266 ****       106.0000 155.5000 129.0000 Du        
  12267 ****       106.0000 155.5000 129.2500 Du        
  12268 ****       106.0000 155.5000 129.5000 Du        
  12269 ****       106.0000 155.5000 129.7500 Du        
  12270 ****       106.0000 155.7500 128.0000 Du        
  12271 ****       106.0000 155.7500 128.2500 Du        
  12272 ****       106.0000 155.7500 128.5000 Du        
  12273 ****       106.0000 155.7500 128.7500 Du        
  12274 ****       106.0000 155.7500 129.0000 Du        
  12275 ****       106.0000 155.7500 129.2500 Du        
  12276 ****       106.0000 155.7500 129.5000 Du        
  12277 ****       106.0000 155.7500 129.7500 Du        
  12278 ****       106.0000 155.7500 130.0000 Du        
  12279 ****       106.0000 156.0000 127.7500 Du        
  12280 ****       106.0000 156.0000 128.0000 Du        
  12281 ****       106.0000 156.0000 128.2500 Du        
  12282 ****       106.0000 156.0000 128.5000 Du        
  12283 ****       106.0000 156.0000 128.7500 Du        
  12284 ****       106.0000 156.0000 129.0000 Du        
  12285 ****       106.0000 156.0000 129.2500 Du        
  12286 ****       106.0000 156.0000 129.5000 Du        
  12287 ****       106.0000 156.0000 129.7500 Du        
  12288 ****       106.0000 156.0000 130.0000 Du        
  12289 ****       106.0000 156.2500 127.2500 Du        
  12290 ****       106.0000 156.2500 127.5000 Du        
  12291 ****       106.0000 156.2500 127.7500 Du        
  12292 ****       106.0000 156.2500 128.0000 Du        
  12293 ****       106.0000 156.2500 128.2500 Du        
  12294 ****       106.0000 156.2500 128.5000 Du        
  12295 ****       106.0000 156.2500 128.7500 Du        
  12296 ****       106.0000 156.2500 129.0000 Du        
  12297 ****       106.0000 156.2500 129.2500 Du        
  12298 ****       106.0000 156.2500 129.5000 Du        
  12299 ****       106.0000 156.2500 129.7500 Du        
  12300 ****       106.0000 156.2500 130.0000 Du        
  12301 ****       106.0000 156.5000 127.2500 Du        
  12302 ****       106.0000 156.5000 127.5000 Du        
  12303 ****       106.0000 156.5000 127.7500 Du        
  12304 ****       106.0000 156.5000 128.0000 Du        
  12305 ****       106.0000 156.5000 128.2500 Du        
  12306 ****       106.0000 156.5000 128.5000 Du        
  12307 ****       106.0000 156.5000 128.7500 Du        
  12308 ****       106.0000 156.5000 129.0000 Du        
  12309 ****       106.0000 156.5000 129.2500 Du        
  12310 ****       106.0000 156.5000 129.5000 Du        
  12311 ****       106.0000 156.5000 129.7500 Du        
  12312 ****       106.0000 156.5000 130.0000 Du        
  12313 ****       106.0000 156.5000 136.2500 Du        
  12314 ****       106.0000 156.5000 136.5000 Du        
  12315 ****       106.0000 156.5000 136.7500 Du        
  12316 ****       106.0000 156.5000 137.0000 Du        
  12317 ****       106.0000 156.5000 137.2500 Du        
  12318 ****       106.0000 156.5000 137.5000 Du        
  12319 ****       106.0000 156.5000 137.7500 Du        
  12320 ****       106.0000 156.7500 127.0000 Du        
  12321 ****       106.0000 156.7500 127.2500 Du        
  12322 ****       106.0000 156.7500 127.5000 Du        
  12323 ****       106.0000 156.7500 127.7500 Du        
  12324 ****       106.0000 156.7500 128.0000 Du        
  12325 ****       106.0000 156.7500 128.2500 Du        
  12326 ****       106.0000 156.7500 128.5000 Du        
  12327 ****       106.0000 156.7500 128.7500 Du        
  12328 ****       106.0000 156.7500 129.0000 Du        
  12329 ****       106.0000 156.7500 129.2500 Du        
  12330 ****       106.0000 156.7500 129.5000 Du        
  12331 ****       106.0000 156.7500 129.7500 Du        
  12332 ****       106.0000 156.7500 130.0000 Du        
  12333 ****       106.0000 156.7500 130.2500 Du        
  12334 ****       106.0000 156.7500 136.0000 Du        
  12335 ****       106.0000 156.7500 136.2500 Du        
  12336 ****       106.0000 156.7500 136.5000 Du        
  12337 ****       106.0000 156.7500 136.7500 Du        
  12338 ****       106.0000 156.7500 137.0000 Du        
  12339 ****       106.0000 156.7500 137.2500 Du        
  12340 ****       106.0000 156.7500 137.5000 Du        
  12341 ****       106.0000 156.7500 137.7500 Du        
  12342 ****       106.0000 156.7500 138.0000 Du        
  12343 ****       106.0000 156.7500 138.2500 Du        
  12344 ****       106.0000 157.0000 127.0000 Du        
  12345 ****       106.0000 157.0000 127.2500 Du        
  12346 ****       106.0000 157.0000 127.5000 Du        
  12347 ****       106.0000 157.0000 127.7500 Du        
  12348 ****       106.0000 157.0000 128.0000 Du        
  12349 ****       106.0000 157.0000 128.2500 Du        
  12350 ****       106.0000 157.0000 128.5000 Du        
  12351 ****       106.0000 157.0000 128.7500 Du        
  12352 ****       106.0000 157.0000 129.0000 Du        
  12353 ****       106.0000 157.0000 129.2500 Du        
  12354 ****       106.0000 157.0000 129.5000 Du        
  12355 ****       106.0000 157.0000 129.7500 Du        
  12356 ****       106.0000 157.0000 130.0000 Du        
  12357 ****       106.0000 157.0000 130.2500 Du        
  12358 ****       106.0000 157.0000 136.0000 Du        
  12359 ****       106.0000 157.0000 136.2500 Du        
  12360 ****       106.0000 157.0000 136.5000 Du        
  12361 ****       106.0000 157.0000 136.7500 Du        
  12362 ****       106.0000 157.0000 137.0000 Du        
  12363 ****       106.0000 157.0000 137.2500 Du        
  12364 ****       106.0000 157.0000 137.5000 Du        
  12365 ****       106.0000 157.0000 137.7500 Du        
  12366 ****       106.0000 157.0000 138.0000 Du        
  12367 ****       106.0000 157.0000 138.2500 Du        
  12368 ****       106.0000 157.0000 138.5000 Du        
  12369 ****       106.0000 157.2500 127.0000 Du        
  12370 ****       106.0000 157.2500 127.2500 Du        
  12371 ****       106.0000 157.2500 127.5000 Du        
  12372 ****       106.0000 157.2500 127.7500 Du        
  12373 ****       106.0000 157.2500 128.0000 Du        
  12374 ****       106.0000 157.2500 128.2500 Du        
  12375 ****       106.0000 157.2500 128.5000 Du        
  12376 ****       106.0000 157.2500 128.7500 Du        
  12377 ****       106.0000 157.2500 129.0000 Du        
  12378 ****       106.0000 157.2500 129.2500 Du        
  12379 ****       106.0000 157.2500 129.5000 Du        
  12380 ****       106.0000 157.2500 129.7500 Du        
  12381 ****       106.0000 157.2500 130.0000 Du        
  12382 ****       106.0000 157.2500 130.2500 Du        
  12383 ****       106.0000 157.2500 130.5000 Du        
  12384 ****       106.0000 157.2500 136.0000 Du        
  12385 ****       106.0000 157.2500 136.2500 Du        
  12386 ****       106.0000 157.2500 136.5000 Du        
  12387 ****       106.0000 157.2500 136.7500 Du        
  12388 ****       106.0000 157.2500 137.0000 Du        
  12389 ****       106.0000 157.2500 137.2500 Du        
  12390 ****       106.0000 157.2500 137.5000 Du        
  12391 ****       106.0000 157.2500 137.7500 Du        
  12392 ****       106.0000 157.2500 138.0000 Du        
  12393 ****       106.0000 157.2500 138.2500 Du        
  12394 ****       106.0000 157.2500 138.5000 Du        
  12395 ****       106.0000 157.2500 138.7500 Du        
  12396 ****       106.0000 157.5000 127.0000 Du        
  12397 ****       106.0000 157.5000 127.2500 Du        
  12398 ****       106.0000 157.5000 127.5000 Du        
  12399 ****       106.0000 157.5000 127.7500 Du        
  12400 ****       106.0000 157.5000 128.0000 Du        
  12401 ****       106.0000 157.5000 128.2500 Du        
  12402 ****       106.0000 157.5000 128.5000 Du        
  12403 ****       106.0000 157.5000 128.7500 Du        
  12404 ****       106.0000 157.5000 129.0000 Du        
  12405 ****       106.0000 157.5000 129.2500 Du        
  12406 ****       106.0000 157.5000 129.5000 Du        
  12407 ****       106.0000 157.5000 129.7500 Du        
  12408 ****       106.0000 157.5000 130.0000 Du        
  12409 ****       106.0000 157.5000 130.2500 Du        
  12410 ****       106.0000 157.5000 130.5000 Du        
  12411 ****       106.0000 157.5000 130.7500 Du        
  12412 ****       106.0000 157.5000 136.2500 Du        
  12413 ****       106.0000 157.5000 136.5000 Du        
  12414 ****       106.0000 157.5000 136.7500 Du        
  12415 ****       106.0000 157.5000 137.0000 Du        
  12416 ****       106.0000 157.5000 137.2500 Du        
  12417 ****       106.0000 157.5000 137.5000 Du        
  12418 ****       106.0000 157.5000 137.7500 Du        
  12419 ****       106.0000 157.5000 138.0000 Du        
  12420 ****       106.0000 157.5000 138.2500 Du        
  12421 ****       106.0000 157.5000 138.5000 Du        
  12422 ****       106.0000 157.5000 138.7500 Du        
  12423 ****       106.0000 157.5000 139.0000 Du        
  12424 ****       106.0000 157.7500 127.0000 Du        
  12425 ****       106.0000 157.7500 127.2500 Du        
  12426 ****       106.0000 157.7500 127.5000 Du        
  12427 ****       106.0000 157.7500 127.7500 Du        
  12428 ****       106.0000 157.7500 128.0000 Du        
  12429 ****       106.0000 157.7500 128.2500 Du        
  12430 ****       106.0000 157.7500 128.5000 Du        
  12431 ****       106.0000 157.7500 128.7500 Du        
  12432 ****       106.0000 157.7500 129.0000 Du        
  12433 ****       106.0000 157.7500 129.2500 Du        
  12434 ****       106.0000 157.7500 129.5000 Du        
  12435 ****       106.0000 157.7500 129.7500 Du        
  12436 ****       106.0000 157.7500 130.0000 Du        
  12437 ****       106.0000 157.7500 130.2500 Du        
  12438 ****       106.0000 157.7500 130.5000 Du        
  12439 ****       106.0000 157.7500 130.7500 Du        
  12440 ****       106.0000 157.7500 131.0000 Du        
  12441 ****       106.0000 157.7500 131.2500 Du        
  12442 ****       106.0000 157.7500 136.2500 Du        
  12443 ****       106.0000 157.7500 136.5000 Du        
  12444 ****       106.0000 157.7500 136.7500 Du        
  12445 ****       106.0000 157.7500 137.0000 Du        
  12446 ****       106.0000 157.7500 137.2500 Du        
  12447 ****       106.0000 157.7500 137.5000 Du        
  12448 ****       106.0000 157.7500 137.7500 Du        
  12449 ****       106.0000 157.7500 138.0000 Du        
  12450 ****       106.0000 157.7500 138.2500 Du        
  12451 ****       106.0000 157.7500 138.5000 Du        
  12452 ****       106.0000 157.7500 138.7500 Du        
  12453 ****       106.0000 157.7500 139.0000 Du        
  12454 ****       106.0000 157.7500 139.2500 Du        
  12455 ****       106.0000 158.0000 127.0000 Du        
  12456 ****       106.0000 158.0000 127.2500 Du        
  12457 ****       106.0000 158.0000 127.5000 Du        
  12458 ****       106.0000 158.0000 127.7500 Du        
  12459 ****       106.0000 158.0000 128.0000 Du        
  12460 ****       106.0000 158.0000 128.2500 Du        
  12461 ****       106.0000 158.0000 128.5000 Du        
  12462 ****       106.0000 158.0000 128.7500 Du        
  12463 ****       106.0000 158.0000 129.0000 Du        
  12464 ****       106.0000 158.0000 129.2500 Du        
  12465 ****       106.0000 158.0000 129.5000 Du        
  12466 ****       106.0000 158.0000 129.7500 Du        
  12467 ****       106.0000 158.0000 130.0000 Du        
  12468 ****       106.0000 158.0000 130.2500 Du        
  12469 ****       106.0000 158.0000 130.5000 Du        
  12470 ****       106.0000 158.0000 130.7500 Du        
  12471 ****       106.0000 158.0000 131.0000 Du        
  12472 ****       106.0000 158.0000 131.2500 Du        
  12473 ****       106.0000 158.0000 136.5000 Du        
  12474 ****       106.0000 158.0000 136.7500 Du        
  12475 ****       106.0000 158.0000 137.0000 Du        
  12476 ****       106.0000 158.0000 137.2500 Du        
  12477 ****       106.0000 158.0000 137.5000 Du        
  12478 ****       106.0000 158.0000 137.7500 Du        
  12479 ****       106.0000 158.0000 138.0000 Du        
  12480 ****       106.0000 158.0000 138.2500 Du        
  12481 ****       106.0000 158.0000 138.5000 Du        
  12482 ****       106.0000 158.0000 138.7500 Du        
  12483 ****       106.0000 158.0000 139.0000 Du        
  12484 ****       106.0000 158.0000 139.2500 Du        
  12485 ****       106.0000 158.0000 139.5000 Du        
  12486 ****       106.0000 158.0000 139.7500 Du        
  12487 ****       106.0000 158.0000 140.0000 Du        
  12488 ****       106.0000 158.0000 140.2500 Du        
  12489 ****       106.0000 158.2500 127.0000 Du        
  12490 ****       106.0000 158.2500 127.2500 Du        
  12491 ****       106.0000 158.2500 127.5000 Du        
  12492 ****       106.0000 158.2500 127.7500 Du        
  12493 ****       106.0000 158.2500 128.0000 Du        
  12494 ****       106.0000 158.2500 128.2500 Du        
  12495 ****       106.0000 158.2500 128.5000 Du        
  12496 ****       106.0000 158.2500 128.7500 Du        
  12497 ****       106.0000 158.2500 129.0000 Du        
  12498 ****       106.0000 158.2500 129.2500 Du        
  12499 ****       106.0000 158.2500 129.5000 Du        
  12500 ****       106.0000 158.2500 129.7500 Du        
  12501 ****       106.0000 158.2500 130.0000 Du        
  12502 ****       106.0000 158.2500 130.2500 Du        
  12503 ****       106.0000 158.2500 130.5000 Du        
  12504 ****       106.0000 158.2500 130.7500 Du        
  12505 ****       106.0000 158.2500 131.0000 Du        
  12506 ****       106.0000 158.2500 131.2500 Du        
  12507 ****       106.0000 158.2500 136.5000 Du        
  12508 ****       106.0000 158.2500 136.7500 Du        
  12509 ****       106.0000 158.2500 137.0000 Du        
  12510 ****       106.0000 158.2500 137.2500 Du        
  12511 ****       106.0000 158.2500 137.5000 Du        
  12512 ****       106.0000 158.2500 137.7500 Du        
  12513 ****       106.0000 158.2500 138.0000 Du        
  12514 ****       106.0000 158.2500 138.2500 Du        
  12515 ****       106.0000 158.2500 138.5000 Du        
  12516 ****       106.0000 158.2500 138.7500 Du        
  12517 ****       106.0000 158.2500 139.0000 Du        
  12518 ****       106.0000 158.2500 139.2500 Du        
  12519 ****       106.0000 158.2500 139.5000 Du        
  12520 ****       106.0000 158.2500 139.7500 Du        
  12521 ****       106.0000 158.2500 140.0000 Du        
  12522 ****       106.0000 158.5000 127.0000 Du        
  12523 ****       106.0000 158.5000 127.2500 Du        
  12524 ****       106.0000 158.5000 127.5000 Du        
  12525 ****       106.0000 158.5000 127.7500 Du        
  12526 ****       106.0000 158.5000 128.0000 Du        
  12527 ****       106.0000 158.5000 128.2500 Du        
  12528 ****       106.0000 158.5000 128.5000 Du        
  12529 ****       106.0000 158.5000 128.7500 Du        
  12530 ****       106.0000 158.5000 129.0000 Du        
  12531 ****       106.0000 158.5000 129.2500 Du        
  12532 ****       106.0000 158.5000 129.5000 Du        
  12533 ****       106.0000 158.5000 129.7500 Du        
  12534 ****       106.0000 158.5000 130.0000 Du        
  12535 ****       106.0000 158.5000 130.2500 Du        
  12536 ****       106.0000 158.5000 130.5000 Du        
  12537 ****       106.0000 158.5000 130.7500 Du        
  12538 ****       106.0000 158.5000 131.0000 Du        
  12539 ****       106.0000 158.5000 136.7500 Du        
  12540 ****       106.0000 158.5000 137.0000 Du        
  12541 ****       106.0000 158.5000 137.2500 Du        
  12542 ****       106.0000 158.5000 137.5000 Du        
  12543 ****       106.0000 158.5000 137.7500 Du        
  12544 ****       106.0000 158.5000 138.0000 Du        
  12545 ****       106.0000 158.5000 138.2500 Du        
  12546 ****       106.0000 158.5000 138.5000 Du        
  12547 ****       106.0000 158.5000 138.7500 Du        
  12548 ****       106.0000 158.5000 139.0000 Du        
  12549 ****       106.0000 158.5000 139.2500 Du        
  12550 ****       106.0000 158.7500 127.7500 Du        
  12551 ****       106.0000 158.7500 128.0000 Du        
  12552 ****       106.0000 158.7500 128.2500 Du        
  12553 ****       106.0000 158.7500 128.5000 Du        
  12554 ****       106.0000 158.7500 128.7500 Du        
  12555 ****       106.0000 158.7500 129.0000 Du        
  12556 ****       106.0000 158.7500 129.2500 Du        
  12557 ****       106.0000 158.7500 129.5000 Du        
  12558 ****       106.0000 158.7500 129.7500 Du        
  12559 ****       106.0000 158.7500 130.0000 Du        
  12560 ****       106.0000 158.7500 130.2500 Du        
  12561 ****       106.0000 158.7500 130.5000 Du        
  12562 ****       106.0000 158.7500 130.7500 Du        
  12563 ****       106.0000 158.7500 131.0000 Du        
  12564 ****       106.0000 158.7500 136.7500 Du        
  12565 ****       106.0000 158.7500 137.0000 Du        
  12566 ****       106.0000 158.7500 137.2500 Du        
  12567 ****       106.0000 158.7500 137.5000 Du        
  12568 ****       106.0000 158.7500 137.7500 Du        
  12569 ****       106.0000 158.7500 138.0000 Du        
  12570 ****       106.0000 159.0000 128.7500 Du        
  12571 ****       106.0000 159.0000 129.0000 Du        
  12572 ****       106.0000 159.0000 137.0000 Du        
  12573 ****       106.0000 159.0000 137.2500 Du        
  12574 ****       106.0000 161.7500 138.0000 Du        
  12575 ****       106.0000 161.7500 138.2500 Du        
  12576 ****       106.0000 161.7500 138.5000 Du        
  12577 ****       106.0000 162.0000 137.7500 Du        
  12578 ****       106.0000 162.0000 138.0000 Du        
  12579 ****       106.0000 162.0000 138.2500 Du        
  12580 ****       106.0000 162.0000 138.5000 Du        
  12581 ****       106.0000 162.0000 138.7500 Du        
  12582 ****       106.0000 162.0000 139.0000 Du        
  12583 ****       106.0000 162.2500 137.7500 Du        
  12584 ****       106.0000 162.2500 138.0000 Du        
  12585 ****       106.0000 162.2500 138.2500 Du        
  12586 ****       106.0000 162.2500 138.5000 Du        
  12587 ****       106.0000 162.2500 138.7500 Du        
  12588 ****       106.0000 162.2500 139.0000 Du        
  12589 ****       106.0000 162.5000 137.7500 Du        
  12590 ****       106.0000 162.5000 138.0000 Du        
  12591 ****       106.0000 162.5000 138.2500 Du        
  12592 ****       106.0000 162.5000 138.5000 Du        
  12593 ****       106.0000 162.5000 138.7500 Du        
  12594 ****       106.0000 162.5000 139.0000 Du        
  12595 ****       106.0000 162.7500 138.0000 Du        
  12596 ****       106.0000 162.7500 138.2500 Du        
  12597 ****       106.2500 147.0000 145.7500 Du        
  12598 ****       106.2500 147.0000 146.0000 Du        
  12599 ****       106.2500 147.2500 145.7500 Du        
  12600 ****       106.2500 147.2500 146.0000 Du        
  12601 ****       106.2500 147.2500 146.2500 Du        
  12602 ****       106.2500 147.5000 145.5000 Du        
  12603 ****       106.2500 147.5000 145.7500 Du        
  12604 ****       106.2500 147.5000 146.0000 Du        
  12605 ****       106.2500 147.5000 146.2500 Du        
  12606 ****       106.2500 147.5000 146.5000 Du        
  12607 ****       106.2500 147.7500 145.5000 Du        
  12608 ****       106.2500 147.7500 145.7500 Du        
  12609 ****       106.2500 147.7500 146.0000 Du        
  12610 ****       106.2500 147.7500 146.2500 Du        
  12611 ****       106.2500 147.7500 146.5000 Du        
  12612 ****       106.2500 147.7500 146.7500 Du        
  12613 ****       106.2500 148.0000 145.5000 Du        
  12614 ****       106.2500 148.0000 145.7500 Du        
  12615 ****       106.2500 148.0000 146.0000 Du        
  12616 ****       106.2500 148.0000 146.2500 Du        
  12617 ****       106.2500 148.0000 146.5000 Du        
  12618 ****       106.2500 148.0000 146.7500 Du        
  12619 ****       106.2500 148.2500 145.5000 Du        
  12620 ****       106.2500 148.2500 145.7500 Du        
  12621 ****       106.2500 148.2500 146.0000 Du        
  12622 ****       106.2500 148.2500 146.2500 Du        
  12623 ****       106.2500 148.5000 145.5000 Du        
  12624 ****       106.2500 148.5000 145.7500 Du        
  12625 ****       106.2500 148.5000 146.0000 Du        
  12626 ****       106.2500 155.0000 129.7500 Du        
  12627 ****       106.2500 155.2500 128.7500 Du        
  12628 ****       106.2500 155.2500 129.0000 Du        
  12629 ****       106.2500 155.2500 129.2500 Du        
  12630 ****       106.2500 155.2500 129.5000 Du        
  12631 ****       106.2500 155.2500 129.7500 Du        
  12632 ****       106.2500 155.2500 130.0000 Du        
  12633 ****       106.2500 155.5000 128.7500 Du        
  12634 ****       106.2500 155.5000 129.0000 Du        
  12635 ****       106.2500 155.5000 129.2500 Du        
  12636 ****       106.2500 155.5000 129.5000 Du        
  12637 ****       106.2500 155.5000 129.7500 Du        
  12638 ****       106.2500 155.5000 130.0000 Du        
  12639 ****       106.2500 155.7500 128.2500 Du        
  12640 ****       106.2500 155.7500 128.5000 Du        
  12641 ****       106.2500 155.7500 128.7500 Du        
  12642 ****       106.2500 155.7500 129.0000 Du        
  12643 ****       106.2500 155.7500 129.2500 Du        
  12644 ****       106.2500 155.7500 129.5000 Du        
  12645 ****       106.2500 155.7500 129.7500 Du        
  12646 ****       106.2500 155.7500 130.0000 Du        
  12647 ****       106.2500 155.7500 130.2500 Du        
  12648 ****       106.2500 156.0000 127.7500 Du        
  12649 ****       106.2500 156.0000 128.0000 Du        
  12650 ****       106.2500 156.0000 128.2500 Du        
  12651 ****       106.2500 156.0000 128.5000 Du        
  12652 ****       106.2500 156.0000 128.7500 Du        
  12653 ****       106.2500 156.0000 129.0000 Du        
  12654 ****       106.2500 156.0000 129.2500 Du        
  12655 ****       106.2500 156.0000 129.5000 Du        
  12656 ****       106.2500 156.0000 129.7500 Du        
  12657 ****       106.2500 156.0000 130.0000 Du        
  12658 ****       106.2500 156.0000 130.2500 Du        
  12659 ****       106.2500 156.2500 127.5000 Du        
  12660 ****       106.2500 156.2500 127.7500 Du        
  12661 ****       106.2500 156.2500 128.0000 Du        
  12662 ****       106.2500 156.2500 128.2500 Du        
  12663 ****       106.2500 156.2500 128.5000 Du        
  12664 ****       106.2500 156.2500 128.7500 Du        
  12665 ****       106.2500 156.2500 129.0000 Du        
  12666 ****       106.2500 156.2500 129.2500 Du        
  12667 ****       106.2500 156.2500 129.5000 Du        
  12668 ****       106.2500 156.2500 129.7500 Du        
  12669 ****       106.2500 156.2500 130.0000 Du        
  12670 ****       106.2500 156.2500 130.2500 Du        
  12671 ****       106.2500 156.5000 127.5000 Du        
  12672 ****       106.2500 156.5000 127.7500 Du        
  12673 ****       106.2500 156.5000 128.0000 Du        
  12674 ****       106.2500 156.5000 128.2500 Du        
  12675 ****       106.2500 156.5000 128.5000 Du        
  12676 ****       106.2500 156.5000 128.7500 Du        
  12677 ****       106.2500 156.5000 129.0000 Du        
  12678 ****       106.2500 156.5000 129.2500 Du        
  12679 ****       106.2500 156.5000 129.5000 Du        
  12680 ****       106.2500 156.5000 129.7500 Du        
  12681 ****       106.2500 156.5000 130.0000 Du        
  12682 ****       106.2500 156.5000 130.2500 Du        
  12683 ****       106.2500 156.5000 136.7500 Du        
  12684 ****       106.2500 156.5000 137.0000 Du        
  12685 ****       106.2500 156.7500 127.2500 Du        
  12686 ****       106.2500 156.7500 127.5000 Du        
  12687 ****       106.2500 156.7500 127.7500 Du        
  12688 ****       106.2500 156.7500 128.0000 Du        
  12689 ****       106.2500 156.7500 128.2500 Du        
  12690 ****       106.2500 156.7500 128.5000 Du        
  12691 ****       106.2500 156.7500 128.7500 Du        
  12692 ****       106.2500 156.7500 129.0000 Du        
  12693 ****       106.2500 156.7500 129.2500 Du        
  12694 ****       106.2500 156.7500 129.5000 Du        
  12695 ****       106.2500 156.7500 129.7500 Du        
  12696 ****       106.2500 156.7500 130.0000 Du        
  12697 ****       106.2500 156.7500 130.2500 Du        
  12698 ****       106.2500 156.7500 130.5000 Du        
  12699 ****       106.2500 156.7500 136.2500 Du        
  12700 ****       106.2500 156.7500 136.5000 Du        
  12701 ****       106.2500 156.7500 136.7500 Du        
  12702 ****       106.2500 156.7500 137.0000 Du        
  12703 ****       106.2500 156.7500 137.2500 Du        
  12704 ****       106.2500 156.7500 137.5000 Du        
  12705 ****       106.2500 156.7500 137.7500 Du        
  12706 ****       106.2500 156.7500 138.0000 Du        
  12707 ****       106.2500 156.7500 138.2500 Du        
  12708 ****       106.2500 156.7500 138.5000 Du        
  12709 ****       106.2500 156.7500 138.7500 Du        
  12710 ****       106.2500 157.0000 127.2500 Du        
  12711 ****       106.2500 157.0000 127.5000 Du        
  12712 ****       106.2500 157.0000 127.7500 Du        
  12713 ****       106.2500 157.0000 128.0000 Du        
  12714 ****       106.2500 157.0000 128.2500 Du        
  12715 ****       106.2500 157.0000 128.5000 Du        
  12716 ****       106.2500 157.0000 128.7500 Du        
  12717 ****       106.2500 157.0000 129.0000 Du        
  12718 ****       106.2500 157.0000 129.2500 Du        
  12719 ****       106.2500 157.0000 129.5000 Du        
  12720 ****       106.2500 157.0000 129.7500 Du        
  12721 ****       106.2500 157.0000 130.0000 Du        
  12722 ****       106.2500 157.0000 130.2500 Du        
  12723 ****       106.2500 157.0000 130.5000 Du        
  12724 ****       106.2500 157.0000 136.0000 Du        
  12725 ****       106.2500 157.0000 136.2500 Du        
  12726 ****       106.2500 157.0000 136.5000 Du        
  12727 ****       106.2500 157.0000 136.7500 Du        
  12728 ****       106.2500 157.0000 137.0000 Du        
  12729 ****       106.2500 157.0000 137.2500 Du        
  12730 ****       106.2500 157.0000 137.5000 Du        
  12731 ****       106.2500 157.0000 137.7500 Du        
  12732 ****       106.2500 157.0000 138.0000 Du        
  12733 ****       106.2500 157.0000 138.2500 Du        
  12734 ****       106.2500 157.0000 138.5000 Du        
  12735 ****       106.2500 157.0000 138.7500 Du        
  12736 ****       106.2500 157.0000 139.0000 Du        
  12737 ****       106.2500 157.2500 127.2500 Du        
  12738 ****       106.2500 157.2500 127.5000 Du        
  12739 ****       106.2500 157.2500 127.7500 Du        
  12740 ****       106.2500 157.2500 128.0000 Du        
  12741 ****       106.2500 157.2500 128.2500 Du        
  12742 ****       106.2500 157.2500 128.5000 Du        
  12743 ****       106.2500 157.2500 128.7500 Du        
  12744 ****       106.2500 157.2500 129.0000 Du        
  12745 ****       106.2500 157.2500 129.2500 Du        
  12746 ****       106.2500 157.2500 129.5000 Du        
  12747 ****       106.2500 157.2500 129.7500 Du        
  12748 ****       106.2500 157.2500 130.0000 Du        
  12749 ****       106.2500 157.2500 130.2500 Du        
  12750 ****       106.2500 157.2500 130.5000 Du        
  12751 ****       106.2500 157.2500 130.7500 Du        
  12752 ****       106.2500 157.2500 131.0000 Du        
  12753 ****       106.2500 157.2500 136.0000 Du        
  12754 ****       106.2500 157.2500 136.2500 Du        
  12755 ****       106.2500 157.2500 136.5000 Du        
  12756 ****       106.2500 157.2500 136.7500 Du        
  12757 ****       106.2500 157.2500 137.0000 Du        
  12758 ****       106.2500 157.2500 137.2500 Du        
  12759 ****       106.2500 157.2500 137.5000 Du        
  12760 ****       106.2500 157.2500 137.7500 Du        
  12761 ****       106.2500 157.2500 138.0000 Du        
  12762 ****       106.2500 157.2500 138.2500 Du        
  12763 ****       106.2500 157.2500 138.5000 Du        
  12764 ****       106.2500 157.2500 138.7500 Du        
  12765 ****       106.2500 157.2500 139.0000 Du        
  12766 ****       106.2500 157.2500 139.2500 Du        
  12767 ****       106.2500 157.5000 127.2500 Du        
  12768 ****       106.2500 157.5000 127.5000 Du        
  12769 ****       106.2500 157.5000 127.7500 Du        
  12770 ****       106.2500 157.5000 128.0000 Du        
  12771 ****       106.2500 157.5000 128.2500 Du        
  12772 ****       106.2500 157.5000 128.5000 Du        
  12773 ****       106.2500 157.5000 128.7500 Du        
  12774 ****       106.2500 157.5000 129.0000 Du        
  12775 ****       106.2500 157.5000 129.2500 Du        
  12776 ****       106.2500 157.5000 129.5000 Du        
  12777 ****       106.2500 157.5000 129.7500 Du        
  12778 ****       106.2500 157.5000 130.0000 Du        
  12779 ****       106.2500 157.5000 130.2500 Du        
  12780 ****       106.2500 157.5000 130.5000 Du        
  12781 ****       106.2500 157.5000 130.7500 Du        
  12782 ****       106.2500 157.5000 131.0000 Du        
  12783 ****       106.2500 157.5000 131.2500 Du        
  12784 ****       106.2500 157.5000 136.0000 Du        
  12785 ****       106.2500 157.5000 136.2500 Du        
  12786 ****       106.2500 157.5000 136.5000 Du        
  12787 ****       106.2500 157.5000 136.7500 Du        
  12788 ****       106.2500 157.5000 137.0000 Du        
  12789 ****       106.2500 157.5000 137.2500 Du        
  12790 ****       106.2500 157.5000 137.5000 Du        
  12791 ****       106.2500 157.5000 137.7500 Du        
  12792 ****       106.2500 157.5000 138.0000 Du        
  12793 ****       106.2500 157.5000 138.2500 Du        
  12794 ****       106.2500 157.5000 138.5000 Du        
  12795 ****       106.2500 157.5000 138.7500 Du        
  12796 ****       106.2500 157.5000 139.0000 Du        
  12797 ****       106.2500 157.5000 139.2500 Du        
  12798 ****       106.2500 157.5000 139.5000 Du        
  12799 ****       106.2500 157.7500 127.0000 Du        
  12800 ****       106.2500 157.7500 127.2500 Du        
  12801 ****       106.2500 157.7500 127.5000 Du        
  12802 ****       106.2500 157.7500 127.7500 Du        
  12803 ****       106.2500 157.7500 128.0000 Du        
  12804 ****       106.2500 157.7500 128.2500 Du        
  12805 ****       106.2500 157.7500 128.5000 Du        
  12806 ****       106.2500 157.7500 128.7500 Du        
  12807 ****       106.2500 157.7500 129.0000 Du        
  12808 ****       106.2500 157.7500 129.2500 Du        
  12809 ****       106.2500 157.7500 129.5000 Du        
  12810 ****       106.2500 157.7500 129.7500 Du        
  12811 ****       106.2500 157.7500 130.0000 Du        
  12812 ****       106.2500 157.7500 130.2500 Du        
  12813 ****       106.2500 157.7500 130.5000 Du        
  12814 ****       106.2500 157.7500 130.7500 Du        
  12815 ****       106.2500 157.7500 131.0000 Du        
  12816 ****       106.2500 157.7500 131.2500 Du        
  12817 ****       106.2500 157.7500 131.5000 Du        
  12818 ****       106.2500 157.7500 136.0000 Du        
  12819 ****       106.2500 157.7500 136.2500 Du        
  12820 ****       106.2500 157.7500 136.5000 Du        
  12821 ****       106.2500 157.7500 136.7500 Du        
  12822 ****       106.2500 157.7500 137.0000 Du        
  12823 ****       106.2500 157.7500 137.2500 Du        
  12824 ****       106.2500 157.7500 137.5000 Du        
  12825 ****       106.2500 157.7500 137.7500 Du        
  12826 ****       106.2500 157.7500 138.0000 Du        
  12827 ****       106.2500 157.7500 138.2500 Du        
  12828 ****       106.2500 157.7500 138.5000 Du        
  12829 ****       106.2500 157.7500 138.7500 Du        
  12830 ****       106.2500 157.7500 139.0000 Du        
  12831 ****       106.2500 157.7500 139.2500 Du        
  12832 ****       106.2500 157.7500 139.5000 Du        
  12833 ****       106.2500 157.7500 139.7500 Du        
  12834 ****       106.2500 157.7500 140.0000 Du        
  12835 ****       106.2500 157.7500 140.2500 Du        
  12836 ****       106.2500 158.0000 127.0000 Du        
  12837 ****       106.2500 158.0000 127.2500 Du        
  12838 ****       106.2500 158.0000 127.5000 Du        
  12839 ****       106.2500 158.0000 127.7500 Du        
  12840 ****       106.2500 158.0000 128.0000 Du        
  12841 ****       106.2500 158.0000 128.2500 Du        
  12842 ****       106.2500 158.0000 128.5000 Du        
  12843 ****       106.2500 158.0000 128.7500 Du        
  12844 ****       106.2500 158.0000 129.0000 Du        
  12845 ****       106.2500 158.0000 129.2500 Du        
  12846 ****       106.2500 158.0000 129.5000 Du        
  12847 ****       106.2500 158.0000 129.7500 Du        
  12848 ****       106.2500 158.0000 130.0000 Du        
  12849 ****       106.2500 158.0000 130.2500 Du        
  12850 ****       106.2500 158.0000 130.5000 Du        
  12851 ****       106.2500 158.0000 130.7500 Du        
  12852 ****       106.2500 158.0000 131.0000 Du        
  12853 ****       106.2500 158.0000 131.2500 Du        
  12854 ****       106.2500 158.0000 131.5000 Du        
  12855 ****       106.2500 158.0000 136.0000 Du        
  12856 ****       106.2500 158.0000 136.2500 Du        
  12857 ****       106.2500 158.0000 136.5000 Du        
  12858 ****       106.2500 158.0000 136.7500 Du        
  12859 ****       106.2500 158.0000 137.0000 Du        
  12860 ****       106.2500 158.0000 137.2500 Du        
  12861 ****       106.2500 158.0000 137.5000 Du        
  12862 ****       106.2500 158.0000 137.7500 Du        
  12863 ****       106.2500 158.0000 138.0000 Du        
  12864 ****       106.2500 158.0000 138.2500 Du        
  12865 ****       106.2500 158.0000 138.5000 Du        
  12866 ****       106.2500 158.0000 138.7500 Du        
  12867 ****       106.2500 158.0000 139.0000 Du        
  12868 ****       106.2500 158.0000 139.2500 Du        
  12869 ****       106.2500 158.0000 139.5000 Du        
  12870 ****       106.2500 158.0000 139.7500 Du        
  12871 ****       106.2500 158.0000 140.0000 Du        
  12872 ****       106.2500 158.0000 140.2500 Du        
  12873 ****       106.2500 158.2500 127.2500 Du        
  12874 ****       106.2500 158.2500 127.5000 Du        
  12875 ****       106.2500 158.2500 127.7500 Du        
  12876 ****       106.2500 158.2500 128.0000 Du        
  12877 ****       106.2500 158.2500 128.2500 Du        
  12878 ****       106.2500 158.2500 128.5000 Du        
  12879 ****       106.2500 158.2500 128.7500 Du        
  12880 ****       106.2500 158.2500 129.0000 Du        
  12881 ****       106.2500 158.2500 129.2500 Du        
  12882 ****       106.2500 158.2500 129.5000 Du        
  12883 ****       106.2500 158.2500 129.7500 Du        
  12884 ****       106.2500 158.2500 130.0000 Du        
  12885 ****       106.2500 158.2500 130.2500 Du        
  12886 ****       106.2500 158.2500 130.5000 Du        
  12887 ****       106.2500 158.2500 130.7500 Du        
  12888 ****       106.2500 158.2500 131.0000 Du        
  12889 ****       106.2500 158.2500 131.2500 Du        
  12890 ****       106.2500 158.2500 131.5000 Du        
  12891 ****       106.2500 158.2500 136.2500 Du        
  12892 ****       106.2500 158.2500 136.5000 Du        
  12893 ****       106.2500 158.2500 136.7500 Du        
  12894 ****       106.2500 158.2500 137.0000 Du        
  12895 ****       106.2500 158.2500 137.2500 Du        
  12896 ****       106.2500 158.2500 137.5000 Du        
  12897 ****       106.2500 158.2500 137.7500 Du        
  12898 ****       106.2500 158.2500 138.0000 Du        
  12899 ****       106.2500 158.2500 138.2500 Du        
  12900 ****       106.2500 158.2500 138.5000 Du        
  12901 ****       106.2500 158.2500 138.7500 Du        
  12902 ****       106.2500 158.2500 139.0000 Du        
  12903 ****       106.2500 158.2500 139.2500 Du        
  12904 ****       106.2500 158.2500 139.5000 Du        
  12905 ****       106.2500 158.2500 139.7500 Du        
  12906 ****       106.2500 158.2500 140.0000 Du        
  12907 ****       106.2500 158.2500 140.2500 Du        
  12908 ****       106.2500 158.5000 127.7500 Du        
  12909 ****       106.2500 158.5000 128.0000 Du        
  12910 ****       106.2500 158.5000 128.2500 Du        
  12911 ****       106.2500 158.5000 128.5000 Du        
  12912 ****       106.2500 158.5000 128.7500 Du        
  12913 ****       106.2500 158.5000 129.0000 Du        
  12914 ****       106.2500 158.5000 129.2500 Du        
  12915 ****       106.2500 158.5000 129.5000 Du        
  12916 ****       106.2500 158.5000 129.7500 Du        
  12917 ****       106.2500 158.5000 130.0000 Du        
  12918 ****       106.2500 158.5000 130.2500 Du        
  12919 ****       106.2500 158.5000 130.5000 Du        
  12920 ****       106.2500 158.5000 130.7500 Du        
  12921 ****       106.2500 158.5000 131.0000 Du        
  12922 ****       106.2500 158.5000 131.2500 Du        
  12923 ****       106.2500 158.5000 136.5000 Du        
  12924 ****       106.2500 158.5000 136.7500 Du        
  12925 ****       106.2500 158.5000 137.0000 Du        
  12926 ****       106.2500 158.5000 137.2500 Du        
  12927 ****       106.2500 158.5000 137.5000 Du        
  12928 ****       106.2500 158.5000 137.7500 Du        
  12929 ****       106.2500 158.5000 138.0000 Du        
  12930 ****       106.2500 158.5000 138.2500 Du        
  12931 ****       106.2500 158.5000 138.5000 Du        
  12932 ****       106.2500 158.5000 138.7500 Du        
  12933 ****       106.2500 158.5000 139.0000 Du        
  12934 ****       106.2500 158.5000 139.2500 Du        
  12935 ****       106.2500 158.7500 128.5000 Du        
  12936 ****       106.2500 158.7500 128.7500 Du        
  12937 ****       106.2500 158.7500 129.0000 Du        
  12938 ****       106.2500 158.7500 129.2500 Du        
  12939 ****       106.2500 158.7500 129.5000 Du        
  12940 ****       106.2500 158.7500 129.7500 Du        
  12941 ****       106.2500 158.7500 130.0000 Du        
  12942 ****       106.2500 158.7500 130.2500 Du        
  12943 ****       106.2500 158.7500 130.5000 Du        
  12944 ****       106.2500 158.7500 130.7500 Du        
  12945 ****       106.2500 158.7500 131.0000 Du        
  12946 ****       106.2500 158.7500 131.2500 Du        
  12947 ****       106.2500 158.7500 136.5000 Du        
  12948 ****       106.2500 158.7500 136.7500 Du        
  12949 ****       106.2500 158.7500 137.0000 Du        
  12950 ****       106.2500 158.7500 137.2500 Du        
  12951 ****       106.2500 158.7500 137.5000 Du        
  12952 ****       106.2500 158.7500 137.7500 Du        
  12953 ****       106.2500 158.7500 138.5000 Du        
  12954 ****       106.2500 158.7500 139.0000 Du        
  12955 ****       106.2500 158.7500 139.2500 Du        
  12956 ****       106.2500 159.0000 129.0000 Du        
  12957 ****       106.2500 159.0000 129.2500 Du        
  12958 ****       106.2500 159.0000 129.7500 Du        
  12959 ****       106.2500 159.0000 130.0000 Du        
  12960 ****       106.2500 159.0000 130.2500 Du        
  12961 ****       106.2500 159.0000 130.5000 Du        
  12962 ****       106.2500 159.0000 130.7500 Du        
  12963 ****       106.2500 159.0000 131.0000 Du        
  12964 ****       106.2500 159.0000 131.2500 Du        
  12965 ****       106.2500 159.0000 136.7500 Du        
  12966 ****       106.2500 159.0000 137.0000 Du        
  12967 ****       106.2500 159.0000 137.2500 Du        
  12968 ****       106.2500 159.0000 137.5000 Du        
  12969 ****       106.2500 159.0000 137.7500 Du        
  12970 ****       106.2500 159.2500 137.0000 Du        
  12971 ****       106.2500 159.2500 137.2500 Du        
  12972 ****       106.2500 161.5000 137.7500 Du        
  12973 ****       106.2500 161.5000 138.0000 Du        
  12974 ****       106.2500 161.5000 138.2500 Du        
  12975 ****       106.2500 161.7500 137.7500 Du        
  12976 ****       106.2500 161.7500 138.0000 Du        
  12977 ****       106.2500 161.7500 138.2500 Du        
  12978 ****       106.2500 161.7500 138.5000 Du        
  12979 ****       106.2500 161.7500 138.7500 Du        
  12980 ****       106.2500 162.0000 137.7500 Du        
  12981 ****       106.2500 162.0000 138.0000 Du        
  12982 ****       106.2500 162.0000 138.2500 Du        
  12983 ****       106.2500 162.0000 138.5000 Du        
  12984 ****       106.2500 162.0000 138.7500 Du        
  12985 ****       106.2500 162.0000 139.0000 Du        
  12986 ****       106.2500 162.2500 137.7500 Du        
  12987 ****       106.2500 162.2500 138.0000 Du        
  12988 ****       106.2500 162.2500 138.2500 Du        
  12989 ****       106.2500 162.2500 138.5000 Du        
  12990 ****       106.2500 162.2500 138.7500 Du        
  12991 ****       106.2500 162.2500 139.0000 Du        
  12992 ****       106.2500 162.5000 137.7500 Du        
  12993 ****       106.2500 162.5000 138.0000 Du        
  12994 ****       106.2500 162.5000 138.2500 Du        
  12995 ****       106.2500 162.5000 138.5000 Du        
  12996 ****       106.2500 162.5000 138.7500 Du        
  12997 ****       106.5000 147.5000 146.0000 Du        
  12998 ****       106.5000 147.5000 146.2500 Du        
  12999 ****       106.5000 147.7500 145.7500 Du        
  13000 ****       106.5000 147.7500 146.0000 Du        
  13001 ****       106.5000 147.7500 146.2500 Du        
  13002 ****       106.5000 148.0000 145.7500 Du        
  13003 ****       106.5000 148.0000 146.0000 Du        
  13004 ****       106.5000 148.0000 146.2500 Du        
  13005 ****       106.5000 148.2500 145.7500 Du        
  13006 ****       106.5000 148.2500 146.0000 Du        
  13007 ****       106.5000 148.2500 146.2500 Du        
  13008 ****       106.5000 148.5000 145.7500 Du        
  13009 ****       106.5000 155.2500 129.0000 Du        
  13010 ****       106.5000 155.2500 129.2500 Du        
  13011 ****       106.5000 155.2500 129.5000 Du        
  13012 ****       106.5000 155.2500 129.7500 Du        
  13013 ****       106.5000 155.2500 130.0000 Du        
  13014 ****       106.5000 155.2500 130.2500 Du        
  13015 ****       106.5000 155.5000 128.5000 Du        
  13016 ****       106.5000 155.5000 128.7500 Du        
  13017 ****       106.5000 155.5000 129.0000 Du        
  13018 ****       106.5000 155.5000 129.2500 Du        
  13019 ****       106.5000 155.5000 129.5000 Du        
  13020 ****       106.5000 155.5000 129.7500 Du        
  13021 ****       106.5000 155.5000 130.0000 Du        
  13022 ****       106.5000 155.5000 130.2500 Du        
  13023 ****       106.5000 155.7500 128.2500 Du        
  13024 ****       106.5000 155.7500 128.5000 Du        
  13025 ****       106.5000 155.7500 128.7500 Du        
  13026 ****       106.5000 155.7500 129.0000 Du        
  13027 ****       106.5000 155.7500 129.2500 Du        
  13028 ****       106.5000 155.7500 129.5000 Du        
  13029 ****       106.5000 155.7500 129.7500 Du        
  13030 ****       106.5000 155.7500 130.0000 Du        
  13031 ****       106.5000 155.7500 130.2500 Du        
  13032 ****       106.5000 156.0000 128.0000 Du        
  13033 ****       106.5000 156.0000 128.2500 Du        
  13034 ****       106.5000 156.0000 128.5000 Du        
  13035 ****       106.5000 156.0000 128.7500 Du        
  13036 ****       106.5000 156.0000 129.0000 Du        
  13037 ****       106.5000 156.0000 129.2500 Du        
  13038 ****       106.5000 156.0000 129.5000 Du        
  13039 ****       106.5000 156.0000 129.7500 Du        
  13040 ****       106.5000 156.0000 130.0000 Du        
  13041 ****       106.5000 156.0000 130.2500 Du        
  13042 ****       106.5000 156.0000 130.5000 Du        
  13043 ****       106.5000 156.2500 127.7500 Du        
  13044 ****       106.5000 156.2500 128.0000 Du        
  13045 ****       106.5000 156.2500 128.2500 Du        
  13046 ****       106.5000 156.2500 128.5000 Du        
  13047 ****       106.5000 156.2500 128.7500 Du        
  13048 ****       106.5000 156.2500 129.0000 Du        
  13049 ****       106.5000 156.2500 129.2500 Du        
  13050 ****       106.5000 156.2500 129.5000 Du        
  13051 ****       106.5000 156.2500 129.7500 Du        
  13052 ****       106.5000 156.2500 130.0000 Du        
  13053 ****       106.5000 156.2500 130.2500 Du        
  13054 ****       106.5000 156.2500 130.5000 Du        
  13055 ****       106.5000 156.5000 127.5000 Du        
  13056 ****       106.5000 156.5000 127.7500 Du        
  13057 ****       106.5000 156.5000 128.0000 Du        
  13058 ****       106.5000 156.5000 128.2500 Du        
  13059 ****       106.5000 156.5000 128.5000 Du        
  13060 ****       106.5000 156.5000 128.7500 Du        
  13061 ****       106.5000 156.5000 129.0000 Du        
  13062 ****       106.5000 156.5000 129.2500 Du        
  13063 ****       106.5000 156.5000 129.5000 Du        
  13064 ****       106.5000 156.5000 129.7500 Du        
  13065 ****       106.5000 156.5000 130.0000 Du        
  13066 ****       106.5000 156.5000 130.2500 Du        
  13067 ****       106.5000 156.5000 130.5000 Du        
  13068 ****       106.5000 156.5000 130.7500 Du        
  13069 ****       106.5000 156.7500 127.5000 Du        
  13070 ****       106.5000 156.7500 127.7500 Du        
  13071 ****       106.5000 156.7500 128.0000 Du        
  13072 ****       106.5000 156.7500 128.2500 Du        
  13073 ****       106.5000 156.7500 128.5000 Du        
  13074 ****       106.5000 156.7500 128.7500 Du        
  13075 ****       106.5000 156.7500 129.0000 Du        
  13076 ****       106.5000 156.7500 129.2500 Du        
  13077 ****       106.5000 156.7500 129.5000 Du        
  13078 ****       106.5000 156.7500 129.7500 Du        
  13079 ****       106.5000 156.7500 130.0000 Du        
  13080 ****       106.5000 156.7500 130.2500 Du        
  13081 ****       106.5000 156.7500 130.5000 Du        
  13082 ****       106.5000 156.7500 130.7500 Du        
  13083 ****       106.5000 156.7500 131.0000 Du        
  13084 ****       106.5000 156.7500 137.0000 Du        
  13085 ****       106.5000 156.7500 137.2500 Du        
  13086 ****       106.5000 156.7500 137.5000 Du        
  13087 ****       106.5000 156.7500 137.7500 Du        
  13088 ****       106.5000 156.7500 138.0000 Du        
  13089 ****       106.5000 156.7500 138.2500 Du        
  13090 ****       106.5000 156.7500 138.5000 Du        
  13091 ****       106.5000 156.7500 138.7500 Du        
  13092 ****       106.5000 156.7500 139.0000 Du        
  13093 ****       106.5000 157.0000 127.2500 Du        
  13094 ****       106.5000 157.0000 127.5000 Du        
  13095 ****       106.5000 157.0000 127.7500 Du        
  13096 ****       106.5000 157.0000 128.0000 Du        
  13097 ****       106.5000 157.0000 128.2500 Du        
  13098 ****       106.5000 157.0000 128.5000 Du        
  13099 ****       106.5000 157.0000 128.7500 Du        
  13100 ****       106.5000 157.0000 129.0000 Du        
  13101 ****       106.5000 157.0000 129.2500 Du        
  13102 ****       106.5000 157.0000 129.5000 Du        
  13103 ****       106.5000 157.0000 129.7500 Du        
  13104 ****       106.5000 157.0000 130.0000 Du        
  13105 ****       106.5000 157.0000 130.2500 Du        
  13106 ****       106.5000 157.0000 130.5000 Du        
  13107 ****       106.5000 157.0000 130.7500 Du        
  13108 ****       106.5000 157.0000 131.0000 Du        
  13109 ****       106.5000 157.0000 136.5000 Du        
  13110 ****       106.5000 157.0000 136.7500 Du        
  13111 ****       106.5000 157.0000 137.0000 Du        
  13112 ****       106.5000 157.0000 137.2500 Du        
  13113 ****       106.5000 157.0000 137.5000 Du        
  13114 ****       106.5000 157.0000 137.7500 Du        
  13115 ****       106.5000 157.0000 138.0000 Du        
  13116 ****       106.5000 157.0000 138.2500 Du        
  13117 ****       106.5000 157.0000 138.5000 Du        
  13118 ****       106.5000 157.0000 138.7500 Du        
  13119 ****       106.5000 157.0000 139.0000 Du        
  13120 ****       106.5000 157.0000 139.2500 Du        
  13121 ****       106.5000 157.0000 139.5000 Du        
  13122 ****       106.5000 157.2500 127.2500 Du        
  13123 ****       106.5000 157.2500 127.5000 Du        
  13124 ****       106.5000 157.2500 127.7500 Du        
  13125 ****       106.5000 157.2500 128.0000 Du        
  13126 ****       106.5000 157.2500 128.2500 Du        
  13127 ****       106.5000 157.2500 128.5000 Du        
  13128 ****       106.5000 157.2500 128.7500 Du        
  13129 ****       106.5000 157.2500 129.0000 Du        
  13130 ****       106.5000 157.2500 129.2500 Du        
  13131 ****       106.5000 157.2500 129.5000 Du        
  13132 ****       106.5000 157.2500 129.7500 Du        
  13133 ****       106.5000 157.2500 130.0000 Du        
  13134 ****       106.5000 157.2500 130.2500 Du        
  13135 ****       106.5000 157.2500 130.5000 Du        
  13136 ****       106.5000 157.2500 130.7500 Du        
  13137 ****       106.5000 157.2500 131.0000 Du        
  13138 ****       106.5000 157.2500 131.2500 Du        
  13139 ****       106.5000 157.2500 136.5000 Du        
  13140 ****       106.5000 157.2500 136.7500 Du        
  13141 ****       106.5000 157.2500 137.0000 Du        
  13142 ****       106.5000 157.2500 137.2500 Du        
  13143 ****       106.5000 157.2500 137.5000 Du        
  13144 ****       106.5000 157.2500 137.7500 Du        
  13145 ****       106.5000 157.2500 138.0000 Du        
  13146 ****       106.5000 157.2500 138.2500 Du        
  13147 ****       106.5000 157.2500 138.5000 Du        
  13148 ****       106.5000 157.2500 138.7500 Du        
  13149 ****       106.5000 157.2500 139.0000 Du        
  13150 ****       106.5000 157.2500 139.2500 Du        
  13151 ****       106.5000 157.2500 139.5000 Du        
  13152 ****       106.5000 157.2500 139.7500 Du        
  13153 ****       106.5000 157.2500 140.0000 Du        
  13154 ****       106.5000 157.5000 127.2500 Du        
  13155 ****       106.5000 157.5000 127.5000 Du        
  13156 ****       106.5000 157.5000 127.7500 Du        
  13157 ****       106.5000 157.5000 128.0000 Du        
  13158 ****       106.5000 157.5000 128.2500 Du        
  13159 ****       106.5000 157.5000 128.5000 Du        
  13160 ****       106.5000 157.5000 128.7500 Du        
  13161 ****       106.5000 157.5000 129.0000 Du        
  13162 ****       106.5000 157.5000 129.2500 Du        
  13163 ****       106.5000 157.5000 129.5000 Du        
  13164 ****       106.5000 157.5000 129.7500 Du        
  13165 ****       106.5000 157.5000 130.0000 Du        
  13166 ****       106.5000 157.5000 130.2500 Du        
  13167 ****       106.5000 157.5000 130.5000 Du        
  13168 ****       106.5000 157.5000 130.7500 Du        
  13169 ****       106.5000 157.5000 131.0000 Du        
  13170 ****       106.5000 157.5000 131.2500 Du        
  13171 ****       106.5000 157.5000 131.5000 Du        
  13172 ****       106.5000 157.5000 136.2500 Du        
  13173 ****       106.5000 157.5000 136.5000 Du        
  13174 ****       106.5000 157.5000 136.7500 Du        
  13175 ****       106.5000 157.5000 137.0000 Du        
  13176 ****       106.5000 157.5000 137.2500 Du        
  13177 ****       106.5000 157.5000 137.5000 Du        
  13178 ****       106.5000 157.5000 137.7500 Du        
  13179 ****       106.5000 157.5000 138.0000 Du        
  13180 ****       106.5000 157.5000 138.2500 Du        
  13181 ****       106.5000 157.5000 138.5000 Du        
  13182 ****       106.5000 157.5000 138.7500 Du        
  13183 ****       106.5000 157.5000 139.0000 Du        
  13184 ****       106.5000 157.5000 139.2500 Du        
  13185 ****       106.5000 157.5000 139.5000 Du        
  13186 ****       106.5000 157.5000 139.7500 Du        
  13187 ****       106.5000 157.5000 140.0000 Du        
  13188 ****       106.5000 157.5000 140.2500 Du        
  13189 ****       106.5000 157.7500 127.2500 Du        
  13190 ****       106.5000 157.7500 127.5000 Du        
  13191 ****       106.5000 157.7500 127.7500 Du        
  13192 ****       106.5000 157.7500 128.0000 Du        
  13193 ****       106.5000 157.7500 128.2500 Du        
  13194 ****       106.5000 157.7500 128.5000 Du        
  13195 ****       106.5000 157.7500 128.7500 Du        
  13196 ****       106.5000 157.7500 129.0000 Du        
  13197 ****       106.5000 157.7500 129.2500 Du        
  13198 ****       106.5000 157.7500 129.5000 Du        
  13199 ****       106.5000 157.7500 129.7500 Du        
  13200 ****       106.5000 157.7500 130.0000 Du        
  13201 ****       106.5000 157.7500 130.2500 Du        
  13202 ****       106.5000 157.7500 130.5000 Du        
  13203 ****       106.5000 157.7500 130.7500 Du        
  13204 ****       106.5000 157.7500 131.0000 Du        
  13205 ****       106.5000 157.7500 131.2500 Du        
  13206 ****       106.5000 157.7500 131.5000 Du        
  13207 ****       106.5000 157.7500 131.7500 Du        
  13208 ****       106.5000 157.7500 136.0000 Du        
  13209 ****       106.5000 157.7500 136.2500 Du        
  13210 ****       106.5000 157.7500 136.5000 Du        
  13211 ****       106.5000 157.7500 136.7500 Du        
  13212 ****       106.5000 157.7500 137.0000 Du        
  13213 ****       106.5000 157.7500 137.2500 Du        
  13214 ****       106.5000 157.7500 137.5000 Du        
  13215 ****       106.5000 157.7500 137.7500 Du        
  13216 ****       106.5000 157.7500 138.0000 Du        
  13217 ****       106.5000 157.7500 138.2500 Du        
  13218 ****       106.5000 157.7500 138.5000 Du        
  13219 ****       106.5000 157.7500 138.7500 Du        
  13220 ****       106.5000 157.7500 139.0000 Du        
  13221 ****       106.5000 157.7500 139.2500 Du        
  13222 ****       106.5000 157.7500 139.5000 Du        
  13223 ****       106.5000 157.7500 139.7500 Du        
  13224 ****       106.5000 157.7500 140.0000 Du        
  13225 ****       106.5000 157.7500 140.2500 Du        
  13226 ****       106.5000 158.0000 127.2500 Du        
  13227 ****       106.5000 158.0000 127.5000 Du        
  13228 ****       106.5000 158.0000 127.7500 Du        
  13229 ****       106.5000 158.0000 128.0000 Du        
  13230 ****       106.5000 158.0000 128.2500 Du        
  13231 ****       106.5000 158.0000 128.5000 Du        
  13232 ****       106.5000 158.0000 128.7500 Du        
  13233 ****       106.5000 158.0000 129.0000 Du        
  13234 ****       106.5000 158.0000 129.2500 Du        
  13235 ****       106.5000 158.0000 129.5000 Du        
  13236 ****       106.5000 158.0000 129.7500 Du        
  13237 ****       106.5000 158.0000 130.0000 Du        
  13238 ****       106.5000 158.0000 130.2500 Du        
  13239 ****       106.5000 158.0000 130.5000 Du        
  13240 ****       106.5000 158.0000 130.7500 Du        
  13241 ****       106.5000 158.0000 131.0000 Du        
  13242 ****       106.5000 158.0000 131.2500 Du        
  13243 ****       106.5000 158.0000 131.5000 Du        
  13244 ****       106.5000 158.0000 131.7500 Du        
  13245 ****       106.5000 158.0000 136.0000 Du        
  13246 ****       106.5000 158.0000 136.2500 Du        
  13247 ****       106.5000 158.0000 136.5000 Du        
  13248 ****       106.5000 158.0000 136.7500 Du        
  13249 ****       106.5000 158.0000 137.0000 Du        
  13250 ****       106.5000 158.0000 137.2500 Du        
  13251 ****       106.5000 158.0000 137.5000 Du        
  13252 ****       106.5000 158.0000 137.7500 Du        
  13253 ****       106.5000 158.0000 138.0000 Du        
  13254 ****       106.5000 158.0000 138.2500 Du        
  13255 ****       106.5000 158.0000 138.5000 Du        
  13256 ****       106.5000 158.0000 138.7500 Du        
  13257 ****       106.5000 158.0000 139.0000 Du        
  13258 ****       106.5000 158.0000 139.2500 Du        
  13259 ****       106.5000 158.0000 139.5000 Du        
  13260 ****       106.5000 158.0000 139.7500 Du        
  13261 ****       106.5000 158.0000 140.0000 Du        
  13262 ****       106.5000 158.0000 140.2500 Du        
  13263 ****       106.5000 158.2500 127.5000 Du        
  13264 ****       106.5000 158.2500 127.7500 Du        
  13265 ****       106.5000 158.2500 128.0000 Du        
  13266 ****       106.5000 158.2500 128.2500 Du        
  13267 ****       106.5000 158.2500 128.5000 Du        
  13268 ****       106.5000 158.2500 128.7500 Du        
  13269 ****       106.5000 158.2500 129.0000 Du        
  13270 ****       106.5000 158.2500 129.2500 Du        
  13271 ****       106.5000 158.2500 129.5000 Du        
  13272 ****       106.5000 158.2500 129.7500 Du        
  13273 ****       106.5000 158.2500 130.0000 Du        
  13274 ****       106.5000 158.2500 130.2500 Du        
  13275 ****       106.5000 158.2500 130.5000 Du        
  13276 ****       106.5000 158.2500 130.7500 Du        
  13277 ****       106.5000 158.2500 131.0000 Du        
  13278 ****       106.5000 158.2500 131.2500 Du        
  13279 ****       106.5000 158.2500 131.5000 Du        
  13280 ****       106.5000 158.2500 136.0000 Du        
  13281 ****       106.5000 158.2500 136.2500 Du        
  13282 ****       106.5000 158.2500 136.5000 Du        
  13283 ****       106.5000 158.2500 136.7500 Du        
  13284 ****       106.5000 158.2500 137.0000 Du        
  13285 ****       106.5000 158.2500 137.2500 Du        
  13286 ****       106.5000 158.2500 137.5000 Du        
  13287 ****       106.5000 158.2500 137.7500 Du        
  13288 ****       106.5000 158.2500 138.0000 Du        
  13289 ****       106.5000 158.2500 138.2500 Du        
  13290 ****       106.5000 158.2500 138.5000 Du        
  13291 ****       106.5000 158.2500 138.7500 Du        
  13292 ****       106.5000 158.2500 139.0000 Du        
  13293 ****       106.5000 158.2500 139.2500 Du        
  13294 ****       106.5000 158.2500 139.5000 Du        
  13295 ****       106.5000 158.2500 139.7500 Du        
  13296 ****       106.5000 158.2500 140.0000 Du        
  13297 ****       106.5000 158.2500 140.2500 Du        
  13298 ****       106.5000 158.5000 128.0000 Du        
  13299 ****       106.5000 158.5000 128.2500 Du        
  13300 ****       106.5000 158.5000 128.5000 Du        
  13301 ****       106.5000 158.5000 128.7500 Du        
  13302 ****       106.5000 158.5000 129.0000 Du        
  13303 ****       106.5000 158.5000 129.2500 Du        
  13304 ****       106.5000 158.5000 129.5000 Du        
  13305 ****       106.5000 158.5000 129.7500 Du        
  13306 ****       106.5000 158.5000 130.0000 Du        
  13307 ****       106.5000 158.5000 130.2500 Du        
  13308 ****       106.5000 158.5000 130.5000 Du        
  13309 ****       106.5000 158.5000 130.7500 Du        
  13310 ****       106.5000 158.5000 131.0000 Du        
  13311 ****       106.5000 158.5000 131.2500 Du        
  13312 ****       106.5000 158.5000 131.5000 Du        
  13313 ****       106.5000 158.5000 136.2500 Du        
  13314 ****       106.5000 158.5000 136.5000 Du        
  13315 ****       106.5000 158.5000 136.7500 Du        
  13316 ****       106.5000 158.5000 137.0000 Du        
  13317 ****       106.5000 158.5000 137.2500 Du        
  13318 ****       106.5000 158.5000 137.5000 Du        
  13319 ****       106.5000 158.7500 128.7500 Du        
  13320 ****       106.5000 158.7500 129.0000 Du        
  13321 ****       106.5000 158.7500 129.2500 Du        
  13322 ****       106.5000 158.7500 129.5000 Du        
  13323 ****       106.5000 158.7500 129.7500 Du        
  13324 ****       106.5000 158.7500 130.0000 Du        
  13325 ****       106.5000 158.7500 130.2500 Du        
  13326 ****       106.5000 158.7500 130.5000 Du        
  13327 ****       106.5000 158.7500 130.7500 Du        
  13328 ****       106.5000 158.7500 131.0000 Du        
  13329 ****       106.5000 158.7500 131.2500 Du        
  13330 ****       106.5000 158.7500 131.5000 Du        
  13331 ****       106.5000 158.7500 136.0000 Du        
  13332 ****       106.5000 158.7500 136.2500 Du        
  13333 ****       106.5000 158.7500 136.5000 Du        
  13334 ****       106.5000 158.7500 136.7500 Du        
  13335 ****       106.5000 158.7500 137.0000 Du        
  13336 ****       106.5000 158.7500 137.2500 Du        
  13337 ****       106.5000 158.7500 137.5000 Du        
  13338 ****       106.5000 158.7500 137.7500 Du        
  13339 ****       106.5000 159.0000 129.2500 Du        
  13340 ****       106.5000 159.0000 129.5000 Du        
  13341 ****       106.5000 159.0000 129.7500 Du        
  13342 ****       106.5000 159.0000 130.0000 Du        
  13343 ****       106.5000 159.0000 130.2500 Du        
  13344 ****       106.5000 159.0000 130.5000 Du        
  13345 ****       106.5000 159.0000 130.7500 Du        
  13346 ****       106.5000 159.0000 131.0000 Du        
  13347 ****       106.5000 159.0000 131.2500 Du        
  13348 ****       106.5000 159.0000 136.2500 Du        
  13349 ****       106.5000 159.0000 136.5000 Du        
  13350 ****       106.5000 159.0000 136.7500 Du        
  13351 ****       106.5000 159.0000 137.0000 Du        
  13352 ****       106.5000 159.0000 137.2500 Du        
  13353 ****       106.5000 159.0000 137.5000 Du        
  13354 ****       106.5000 159.2500 130.0000 Du        
  13355 ****       106.5000 159.2500 130.2500 Du        
  13356 ****       106.5000 159.2500 130.5000 Du        
  13357 ****       106.5000 159.2500 130.7500 Du        
  13358 ****       106.5000 159.2500 131.0000 Du        
  13359 ****       106.5000 159.2500 131.2500 Du        
  13360 ****       106.5000 159.2500 136.7500 Du        
  13361 ****       106.5000 159.2500 137.0000 Du        
  13362 ****       106.5000 159.2500 137.2500 Du        
  13363 ****       106.5000 159.5000 130.7500 Du        
  13364 ****       106.5000 159.5000 131.0000 Du        
  13365 ****       106.5000 160.7500 137.7500 Du        
  13366 ****       106.5000 161.0000 137.7500 Du        
  13367 ****       106.5000 161.0000 138.0000 Du        
  13368 ****       106.5000 161.2500 137.7500 Du        
  13369 ****       106.5000 161.2500 138.0000 Du        
  13370 ****       106.5000 161.2500 138.2500 Du        
  13371 ****       106.5000 161.5000 137.5000 Du        
  13372 ****       106.5000 161.5000 137.7500 Du        
  13373 ****       106.5000 161.5000 138.0000 Du        
  13374 ****       106.5000 161.5000 138.2500 Du        
  13375 ****       106.5000 161.5000 138.5000 Du        
  13376 ****       106.5000 161.7500 137.5000 Du        
  13377 ****       106.5000 161.7500 137.7500 Du        
  13378 ****       106.5000 161.7500 138.0000 Du        
  13379 ****       106.5000 161.7500 138.2500 Du        
  13380 ****       106.5000 161.7500 138.5000 Du        
  13381 ****       106.5000 161.7500 138.7500 Du        
  13382 ****       106.5000 162.0000 137.5000 Du        
  13383 ****       106.5000 162.0000 137.7500 Du        
  13384 ****       106.5000 162.0000 138.0000 Du        
  13385 ****       106.5000 162.0000 138.2500 Du        
  13386 ****       106.5000 162.0000 138.5000 Du        
  13387 ****       106.5000 162.0000 138.7500 Du        
  13388 ****       106.5000 162.2500 137.5000 Du        
  13389 ****       106.5000 162.2500 137.7500 Du        
  13390 ****       106.5000 162.2500 138.0000 Du        
  13391 ****       106.5000 162.2500 138.2500 Du        
  13392 ****       106.5000 162.2500 138.5000 Du        
  13393 ****       106.5000 162.2500 138.7500 Du        
  13394 ****       106.5000 162.2500 139.0000 Du        
  13395 ****       106.5000 162.5000 137.7500 Du        
  13396 ****       106.5000 162.5000 138.0000 Du        
  13397 ****       106.5000 162.5000 138.2500 Du        
  13398 ****       106.5000 162.5000 138.5000 Du        
  13399 ****       106.5000 162.5000 138.7500 Du        
  13400 ****       106.7500 147.7500 146.0000 Du        
  13401 ****       106.7500 148.0000 145.7500 Du        
  13402 ****       106.7500 148.0000 146.0000 Du        
  13403 ****       106.7500 148.0000 146.2500 Du        
  13404 ****       106.7500 148.2500 145.7500 Du        
  13405 ****       106.7500 148.2500 146.0000 Du        
  13406 ****       106.7500 148.2500 146.2500 Du        
  13407 ****       106.7500 148.5000 145.7500 Du        
  13408 ****       106.7500 148.5000 146.0000 Du        
  13409 ****       106.7500 155.2500 129.0000 Du        
  13410 ****       106.7500 155.2500 129.2500 Du        
  13411 ****       106.7500 155.2500 129.5000 Du        
  13412 ****       106.7500 155.2500 129.7500 Du        
  13413 ****       106.7500 155.2500 130.0000 Du        
  13414 ****       106.7500 155.2500 130.2500 Du        
  13415 ****       106.7500 155.2500 130.5000 Du        
  13416 ****       106.7500 155.5000 128.7500 Du        
  13417 ****       106.7500 155.5000 129.0000 Du        
  13418 ****       106.7500 155.5000 129.2500 Du        
  13419 ****       106.7500 155.5000 129.5000 Du        
  13420 ****       106.7500 155.5000 129.7500 Du        
  13421 ****       106.7500 155.5000 130.0000 Du        
  13422 ****       106.7500 155.5000 130.2500 Du        
  13423 ****       106.7500 155.5000 130.5000 Du        
  13424 ****       106.7500 155.7500 128.2500 Du        
  13425 ****       106.7500 155.7500 128.5000 Du        
  13426 ****       106.7500 155.7500 128.7500 Du        
  13427 ****       106.7500 155.7500 129.0000 Du        
  13428 ****       106.7500 155.7500 129.2500 Du        
  13429 ****       106.7500 155.7500 129.5000 Du        
  13430 ****       106.7500 155.7500 129.7500 Du        
  13431 ****       106.7500 155.7500 130.0000 Du        
  13432 ****       106.7500 155.7500 130.2500 Du        
  13433 ****       106.7500 155.7500 130.5000 Du        
  13434 ****       106.7500 156.0000 128.0000 Du        
  13435 ****       106.7500 156.0000 128.2500 Du        
  13436 ****       106.7500 156.0000 128.5000 Du        
  13437 ****       106.7500 156.0000 128.7500 Du        
  13438 ****       106.7500 156.0000 129.0000 Du        
  13439 ****       106.7500 156.0000 129.2500 Du        
  13440 ****       106.7500 156.0000 129.5000 Du        
  13441 ****       106.7500 156.0000 129.7500 Du        
  13442 ****       106.7500 156.0000 130.0000 Du        
  13443 ****       106.7500 156.0000 130.2500 Du        
  13444 ****       106.7500 156.0000 130.5000 Du        
  13445 ****       106.7500 156.2500 128.0000 Du        
  13446 ****       106.7500 156.2500 128.2500 Du        
  13447 ****       106.7500 156.2500 128.5000 Du        
  13448 ****       106.7500 156.2500 128.7500 Du        
  13449 ****       106.7500 156.2500 129.0000 Du        
  13450 ****       106.7500 156.2500 129.2500 Du        
  13451 ****       106.7500 156.2500 129.5000 Du        
  13452 ****       106.7500 156.2500 129.7500 Du        
  13453 ****       106.7500 156.2500 130.0000 Du        
  13454 ****       106.7500 156.2500 130.2500 Du        
  13455 ****       106.7500 156.2500 130.5000 Du        
  13456 ****       106.7500 156.2500 130.7500 Du        
  13457 ****       106.7500 156.5000 127.7500 Du        
  13458 ****       106.7500 156.5000 128.0000 Du        
  13459 ****       106.7500 156.5000 128.2500 Du        
  13460 ****       106.7500 156.5000 128.5000 Du        
  13461 ****       106.7500 156.5000 128.7500 Du        
  13462 ****       106.7500 156.5000 129.0000 Du        
  13463 ****       106.7500 156.5000 129.2500 Du        
  13464 ****       106.7500 156.5000 129.5000 Du        
  13465 ****       106.7500 156.5000 129.7500 Du        
  13466 ****       106.7500 156.5000 130.0000 Du        
  13467 ****       106.7500 156.5000 130.2500 Du        
  13468 ****       106.7500 156.5000 130.5000 Du        
  13469 ****       106.7500 156.5000 130.7500 Du        
  13470 ****       106.7500 156.7500 127.5000 Du        
  13471 ****       106.7500 156.7500 127.7500 Du        
  13472 ****       106.7500 156.7500 128.0000 Du        
  13473 ****       106.7500 156.7500 128.2500 Du        
  13474 ****       106.7500 156.7500 128.5000 Du        
  13475 ****       106.7500 156.7500 128.7500 Du        
  13476 ****       106.7500 156.7500 129.0000 Du        
  13477 ****       106.7500 156.7500 129.2500 Du        
  13478 ****       106.7500 156.7500 129.5000 Du        
  13479 ****       106.7500 156.7500 129.7500 Du        
  13480 ****       106.7500 156.7500 130.0000 Du        
  13481 ****       106.7500 156.7500 130.2500 Du        
  13482 ****       106.7500 156.7500 130.5000 Du        
  13483 ****       106.7500 156.7500 130.7500 Du        
  13484 ****       106.7500 156.7500 131.0000 Du        
  13485 ****       106.7500 156.7500 138.0000 Du        
  13486 ****       106.7500 156.7500 138.2500 Du        
  13487 ****       106.7500 156.7500 138.5000 Du        
  13488 ****       106.7500 156.7500 138.7500 Du        
  13489 ****       106.7500 156.7500 139.0000 Du        
  13490 ****       106.7500 156.7500 139.2500 Du        
  13491 ****       106.7500 156.7500 139.5000 Du        
  13492 ****       106.7500 156.7500 139.7500 Du        
  13493 ****       106.7500 157.0000 127.5000 Du        
  13494 ****       106.7500 157.0000 127.7500 Du        
  13495 ****       106.7500 157.0000 128.0000 Du        
  13496 ****       106.7500 157.0000 128.2500 Du        
  13497 ****       106.7500 157.0000 128.5000 Du        
  13498 ****       106.7500 157.0000 128.7500 Du        
  13499 ****       106.7500 157.0000 129.0000 Du        
  13500 ****       106.7500 157.0000 129.2500 Du        
  13501 ****       106.7500 157.0000 129.5000 Du        
  13502 ****       106.7500 157.0000 129.7500 Du        
  13503 ****       106.7500 157.0000 130.0000 Du        
  13504 ****       106.7500 157.0000 130.2500 Du        
  13505 ****       106.7500 157.0000 130.5000 Du        
  13506 ****       106.7500 157.0000 130.7500 Du        
  13507 ****       106.7500 157.0000 131.0000 Du        
  13508 ****       106.7500 157.0000 131.2500 Du        
  13509 ****       106.7500 157.0000 137.0000 Du        
  13510 ****       106.7500 157.0000 137.2500 Du        
  13511 ****       106.7500 157.0000 137.5000 Du        
  13512 ****       106.7500 157.0000 137.7500 Du        
  13513 ****       106.7500 157.0000 138.0000 Du        
  13514 ****       106.7500 157.0000 138.2500 Du        
  13515 ****       106.7500 157.0000 138.5000 Du        
  13516 ****       106.7500 157.0000 138.7500 Du        
  13517 ****       106.7500 157.0000 139.0000 Du        
  13518 ****       106.7500 157.0000 139.2500 Du        
  13519 ****       106.7500 157.0000 139.5000 Du        
  13520 ****       106.7500 157.0000 139.7500 Du        
  13521 ****       106.7500 157.0000 140.0000 Du        
  13522 ****       106.7500 157.2500 127.2500 Du        
  13523 ****       106.7500 157.2500 127.5000 Du        
  13524 ****       106.7500 157.2500 127.7500 Du        
  13525 ****       106.7500 157.2500 128.0000 Du        
  13526 ****       106.7500 157.2500 128.2500 Du        
  13527 ****       106.7500 157.2500 128.5000 Du        
  13528 ****       106.7500 157.2500 128.7500 Du        
  13529 ****       106.7500 157.2500 129.0000 Du        
  13530 ****       106.7500 157.2500 129.2500 Du        
  13531 ****       106.7500 157.2500 129.5000 Du        
  13532 ****       106.7500 157.2500 129.7500 Du        
  13533 ****       106.7500 157.2500 130.0000 Du        
  13534 ****       106.7500 157.2500 130.2500 Du        
  13535 ****       106.7500 157.2500 130.5000 Du        
  13536 ****       106.7500 157.2500 130.7500 Du        
  13537 ****       106.7500 157.2500 131.0000 Du        
  13538 ****       106.7500 157.2500 131.2500 Du        
  13539 ****       106.7500 157.2500 131.5000 Du        
  13540 ****       106.7500 157.2500 136.7500 Du        
  13541 ****       106.7500 157.2500 137.0000 Du        
  13542 ****       106.7500 157.2500 137.2500 Du        
  13543 ****       106.7500 157.2500 137.5000 Du        
  13544 ****       106.7500 157.2500 137.7500 Du        
  13545 ****       106.7500 157.2500 138.0000 Du        
  13546 ****       106.7500 157.2500 138.2500 Du        
  13547 ****       106.7500 157.2500 138.5000 Du        
  13548 ****       106.7500 157.2500 138.7500 Du        
  13549 ****       106.7500 157.2500 139.0000 Du        
  13550 ****       106.7500 157.2500 139.2500 Du        
  13551 ****       106.7500 157.2500 139.5000 Du        
  13552 ****       106.7500 157.2500 139.7500 Du        
  13553 ****       106.7500 157.2500 140.0000 Du        
  13554 ****       106.7500 157.2500 140.2500 Du        
  13555 ****       106.7500 157.2500 140.5000 Du        
  13556 ****       106.7500 157.2500 140.7500 Du        
  13557 ****       106.7500 157.2500 141.0000 Du        
  13558 ****       106.7500 157.5000 127.2500 Du        
  13559 ****       106.7500 157.5000 127.5000 Du        
  13560 ****       106.7500 157.5000 127.7500 Du        
  13561 ****       106.7500 157.5000 128.0000 Du        
  13562 ****       106.7500 157.5000 128.2500 Du        
  13563 ****       106.7500 157.5000 128.5000 Du        
  13564 ****       106.7500 157.5000 128.7500 Du        
  13565 ****       106.7500 157.5000 129.0000 Du        
  13566 ****       106.7500 157.5000 129.2500 Du        
  13567 ****       106.7500 157.5000 129.5000 Du        
  13568 ****       106.7500 157.5000 129.7500 Du        
  13569 ****       106.7500 157.5000 130.0000 Du        
  13570 ****       106.7500 157.5000 130.2500 Du        
  13571 ****       106.7500 157.5000 130.5000 Du        
  13572 ****       106.7500 157.5000 130.7500 Du        
  13573 ****       106.7500 157.5000 131.0000 Du        
  13574 ****       106.7500 157.5000 131.2500 Du        
  13575 ****       106.7500 157.5000 131.5000 Du        
  13576 ****       106.7500 157.5000 131.7500 Du        
  13577 ****       106.7500 157.5000 136.7500 Du        
  13578 ****       106.7500 157.5000 137.0000 Du        
  13579 ****       106.7500 157.5000 137.2500 Du        
  13580 ****       106.7500 157.5000 137.5000 Du        
  13581 ****       106.7500 157.5000 137.7500 Du        
  13582 ****       106.7500 157.5000 138.0000 Du        
  13583 ****       106.7500 157.5000 138.2500 Du        
  13584 ****       106.7500 157.5000 138.5000 Du        
  13585 ****       106.7500 157.5000 138.7500 Du        
  13586 ****       106.7500 157.5000 139.0000 Du        
  13587 ****       106.7500 157.5000 139.2500 Du        
  13588 ****       106.7500 157.5000 139.5000 Du        
  13589 ****       106.7500 157.5000 139.7500 Du        
  13590 ****       106.7500 157.5000 140.0000 Du        
  13591 ****       106.7500 157.5000 140.2500 Du        
  13592 ****       106.7500 157.7500 127.2500 Du        
  13593 ****       106.7500 157.7500 127.5000 Du        
  13594 ****       106.7500 157.7500 127.7500 Du        
  13595 ****       106.7500 157.7500 128.0000 Du        
  13596 ****       106.7500 157.7500 128.2500 Du        
  13597 ****       106.7500 157.7500 128.5000 Du        
  13598 ****       106.7500 157.7500 128.7500 Du        
  13599 ****       106.7500 157.7500 129.0000 Du        
  13600 ****       106.7500 157.7500 129.2500 Du        
  13601 ****       106.7500 157.7500 129.5000 Du        
  13602 ****       106.7500 157.7500 129.7500 Du        
  13603 ****       106.7500 157.7500 130.0000 Du        
  13604 ****       106.7500 157.7500 130.2500 Du        
  13605 ****       106.7500 157.7500 130.5000 Du        
  13606 ****       106.7500 157.7500 130.7500 Du        
  13607 ****       106.7500 157.7500 131.0000 Du        
  13608 ****       106.7500 157.7500 131.2500 Du        
  13609 ****       106.7500 157.7500 131.5000 Du        
  13610 ****       106.7500 157.7500 131.7500 Du        
  13611 ****       106.7500 157.7500 132.0000 Du        
  13612 ****       106.7500 157.7500 136.5000 Du        
  13613 ****       106.7500 157.7500 136.7500 Du        
  13614 ****       106.7500 157.7500 137.0000 Du        
  13615 ****       106.7500 157.7500 137.2500 Du        
  13616 ****       106.7500 157.7500 137.5000 Du        
  13617 ****       106.7500 157.7500 137.7500 Du        
  13618 ****       106.7500 157.7500 138.0000 Du        
  13619 ****       106.7500 157.7500 138.2500 Du        
  13620 ****       106.7500 157.7500 138.5000 Du        
  13621 ****       106.7500 157.7500 138.7500 Du        
  13622 ****       106.7500 157.7500 139.0000 Du        
  13623 ****       106.7500 157.7500 139.2500 Du        
  13624 ****       106.7500 157.7500 139.5000 Du        
  13625 ****       106.7500 157.7500 139.7500 Du        
  13626 ****       106.7500 157.7500 140.0000 Du        
  13627 ****       106.7500 157.7500 140.2500 Du        
  13628 ****       106.7500 157.7500 140.5000 Du        
  13629 ****       106.7500 157.7500 141.0000 Du        
  13630 ****       106.7500 158.0000 127.5000 Du        
  13631 ****       106.7500 158.0000 127.7500 Du        
  13632 ****       106.7500 158.0000 128.0000 Du        
  13633 ****       106.7500 158.0000 128.2500 Du        
  13634 ****       106.7500 158.0000 128.5000 Du        
  13635 ****       106.7500 158.0000 128.7500 Du        
  13636 ****       106.7500 158.0000 129.0000 Du        
  13637 ****       106.7500 158.0000 129.2500 Du        
  13638 ****       106.7500 158.0000 129.5000 Du        
  13639 ****       106.7500 158.0000 129.7500 Du        
  13640 ****       106.7500 158.0000 130.0000 Du        
  13641 ****       106.7500 158.0000 130.2500 Du        
  13642 ****       106.7500 158.0000 130.5000 Du        
  13643 ****       106.7500 158.0000 130.7500 Du        
  13644 ****       106.7500 158.0000 131.0000 Du        
  13645 ****       106.7500 158.0000 131.2500 Du        
  13646 ****       106.7500 158.0000 131.5000 Du        
  13647 ****       106.7500 158.0000 131.7500 Du        
  13648 ****       106.7500 158.0000 132.0000 Du        
  13649 ****       106.7500 158.0000 136.0000 Du        
  13650 ****       106.7500 158.0000 136.2500 Du        
  13651 ****       106.7500 158.0000 136.5000 Du        
  13652 ****       106.7500 158.0000 136.7500 Du        
  13653 ****       106.7500 158.0000 137.0000 Du        
  13654 ****       106.7500 158.0000 137.2500 Du        
  13655 ****       106.7500 158.0000 137.5000 Du        
  13656 ****       106.7500 158.0000 137.7500 Du        
  13657 ****       106.7500 158.0000 138.0000 Du        
  13658 ****       106.7500 158.0000 138.2500 Du        
  13659 ****       106.7500 158.0000 138.5000 Du        
  13660 ****       106.7500 158.0000 138.7500 Du        
  13661 ****       106.7500 158.0000 139.0000 Du        
  13662 ****       106.7500 158.0000 139.2500 Du        
  13663 ****       106.7500 158.0000 139.5000 Du        
  13664 ****       106.7500 158.0000 139.7500 Du        
  13665 ****       106.7500 158.0000 140.0000 Du        
  13666 ****       106.7500 158.0000 140.2500 Du        
  13667 ****       106.7500 158.2500 127.7500 Du        
  13668 ****       106.7500 158.2500 128.0000 Du        
  13669 ****       106.7500 158.2500 128.2500 Du        
  13670 ****       106.7500 158.2500 128.5000 Du        
  13671 ****       106.7500 158.2500 128.7500 Du        
  13672 ****       106.7500 158.2500 129.0000 Du        
  13673 ****       106.7500 158.2500 129.2500 Du        
  13674 ****       106.7500 158.2500 129.5000 Du        
  13675 ****       106.7500 158.2500 129.7500 Du        
  13676 ****       106.7500 158.2500 130.0000 Du        
  13677 ****       106.7500 158.2500 130.2500 Du        
  13678 ****       106.7500 158.2500 130.5000 Du        
  13679 ****       106.7500 158.2500 130.7500 Du        
  13680 ****       106.7500 158.2500 131.0000 Du        
  13681 ****       106.7500 158.2500 131.2500 Du        
  13682 ****       106.7500 158.2500 131.5000 Du        
  13683 ****       106.7500 158.2500 131.7500 Du        
  13684 ****       106.7500 158.2500 135.7500 Du        
  13685 ****       106.7500 158.2500 136.0000 Du        
  13686 ****       106.7500 158.2500 136.2500 Du        
  13687 ****       106.7500 158.2500 136.5000 Du        
  13688 ****       106.7500 158.2500 136.7500 Du        
  13689 ****       106.7500 158.2500 137.0000 Du        
  13690 ****       106.7500 158.2500 137.2500 Du        
  13691 ****       106.7500 158.2500 137.5000 Du        
  13692 ****       106.7500 158.2500 137.7500 Du        
  13693 ****       106.7500 158.2500 138.0000 Du        
  13694 ****       106.7500 158.2500 138.2500 Du        
  13695 ****       106.7500 158.2500 138.5000 Du        
  13696 ****       106.7500 158.2500 138.7500 Du        
  13697 ****       106.7500 158.2500 139.0000 Du        
  13698 ****       106.7500 158.2500 139.2500 Du        
  13699 ****       106.7500 158.2500 139.5000 Du        
  13700 ****       106.7500 158.2500 139.7500 Du        
  13701 ****       106.7500 158.2500 140.0000 Du        
  13702 ****       106.7500 158.2500 140.2500 Du        
  13703 ****       106.7500 158.5000 128.5000 Du        
  13704 ****       106.7500 158.5000 128.7500 Du        
  13705 ****       106.7500 158.5000 129.0000 Du        
  13706 ****       106.7500 158.5000 129.2500 Du        
  13707 ****       106.7500 158.5000 129.5000 Du        
  13708 ****       106.7500 158.5000 129.7500 Du        
  13709 ****       106.7500 158.5000 130.0000 Du        
  13710 ****       106.7500 158.5000 130.2500 Du        
  13711 ****       106.7500 158.5000 130.5000 Du        
  13712 ****       106.7500 158.5000 130.7500 Du        
  13713 ****       106.7500 158.5000 131.0000 Du        
  13714 ****       106.7500 158.5000 131.2500 Du        
  13715 ****       106.7500 158.5000 131.5000 Du        
  13716 ****       106.7500 158.5000 131.7500 Du        
  13717 ****       106.7500 158.5000 135.7500 Du        
  13718 ****       106.7500 158.5000 136.0000 Du        
  13719 ****       106.7500 158.5000 136.2500 Du        
  13720 ****       106.7500 158.5000 136.5000 Du        
  13721 ****       106.7500 158.5000 136.7500 Du        
  13722 ****       106.7500 158.5000 137.0000 Du        
  13723 ****       106.7500 158.5000 137.2500 Du        
  13724 ****       106.7500 158.5000 137.5000 Du        
  13725 ****       106.7500 158.5000 137.7500 Du        
  13726 ****       106.7500 158.7500 129.0000 Du        
  13727 ****       106.7500 158.7500 129.2500 Du        
  13728 ****       106.7500 158.7500 129.5000 Du        
  13729 ****       106.7500 158.7500 129.7500 Du        
  13730 ****       106.7500 158.7500 130.0000 Du        
  13731 ****       106.7500 158.7500 130.2500 Du        
  13732 ****       106.7500 158.7500 130.5000 Du        
  13733 ****       106.7500 158.7500 130.7500 Du        
  13734 ****       106.7500 158.7500 131.0000 Du        
  13735 ****       106.7500 158.7500 131.2500 Du        
  13736 ****       106.7500 158.7500 131.5000 Du        
  13737 ****       106.7500 158.7500 135.7500 Du        
  13738 ****       106.7500 158.7500 136.0000 Du        
  13739 ****       106.7500 158.7500 136.2500 Du        
  13740 ****       106.7500 158.7500 136.5000 Du        
  13741 ****       106.7500 158.7500 136.7500 Du        
  13742 ****       106.7500 158.7500 137.0000 Du        
  13743 ****       106.7500 158.7500 137.2500 Du        
  13744 ****       106.7500 158.7500 137.5000 Du        
  13745 ****       106.7500 158.7500 137.7500 Du        
  13746 ****       106.7500 158.7500 138.0000 Du        
  13747 ****       106.7500 159.0000 129.2500 Du        
  13748 ****       106.7500 159.0000 129.5000 Du        
  13749 ****       106.7500 159.0000 129.7500 Du        
  13750 ****       106.7500 159.0000 130.0000 Du        
  13751 ****       106.7500 159.0000 130.2500 Du        
  13752 ****       106.7500 159.0000 130.5000 Du        
  13753 ****       106.7500 159.0000 130.7500 Du        
  13754 ****       106.7500 159.0000 131.0000 Du        
  13755 ****       106.7500 159.0000 131.2500 Du        
  13756 ****       106.7500 159.0000 131.5000 Du        
  13757 ****       106.7500 159.0000 135.7500 Du        
  13758 ****       106.7500 159.0000 136.0000 Du        
  13759 ****       106.7500 159.0000 136.2500 Du        
  13760 ****       106.7500 159.0000 136.5000 Du        
  13761 ****       106.7500 159.0000 136.7500 Du        
  13762 ****       106.7500 159.0000 137.0000 Du        
  13763 ****       106.7500 159.0000 137.2500 Du        
  13764 ****       106.7500 159.0000 137.5000 Du        
  13765 ****       106.7500 159.0000 137.7500 Du        
  13766 ****       106.7500 159.2500 129.7500 Du        
  13767 ****       106.7500 159.2500 130.0000 Du        
  13768 ****       106.7500 159.2500 130.2500 Du        
  13769 ****       106.7500 159.2500 130.5000 Du        
  13770 ****       106.7500 159.2500 130.7500 Du        
  13771 ****       106.7500 159.2500 131.0000 Du        
  13772 ****       106.7500 159.2500 131.2500 Du        
  13773 ****       106.7500 159.2500 136.0000 Du        
  13774 ****       106.7500 159.2500 136.2500 Du        
  13775 ****       106.7500 159.2500 136.5000 Du        
  13776 ****       106.7500 159.2500 136.7500 Du        
  13777 ****       106.7500 159.2500 137.0000 Du        
  13778 ****       106.7500 159.2500 137.2500 Du        
  13779 ****       106.7500 159.2500 137.5000 Du        
  13780 ****       106.7500 159.2500 137.7500 Du        
  13781 ****       106.7500 159.5000 130.0000 Du        
  13782 ****       106.7500 159.5000 130.2500 Du        
  13783 ****       106.7500 159.5000 130.5000 Du        
  13784 ****       106.7500 159.5000 130.7500 Du        
  13785 ****       106.7500 159.5000 131.0000 Du        
  13786 ****       106.7500 159.5000 136.7500 Du        
  13787 ****       106.7500 159.5000 137.0000 Du        
  13788 ****       106.7500 159.5000 137.2500 Du        
  13789 ****       106.7500 159.7500 137.0000 Du        
  13790 ****       106.7500 159.7500 137.2500 Du        
  13791 ****       106.7500 160.5000 137.2500 Du        
  13792 ****       106.7500 160.5000 137.5000 Du        
  13793 ****       106.7500 160.5000 137.7500 Du        
  13794 ****       106.7500 160.7500 137.2500 Du        
  13795 ****       106.7500 160.7500 137.5000 Du        
  13796 ****       106.7500 160.7500 137.7500 Du        
  13797 ****       106.7500 160.7500 138.0000 Du        
  13798 ****       106.7500 160.7500 138.2500 Du        
  13799 ****       106.7500 161.0000 137.2500 Du        
  13800 ****       106.7500 161.0000 137.5000 Du        
  13801 ****       106.7500 161.0000 137.7500 Du        
  13802 ****       106.7500 161.0000 138.0000 Du        
  13803 ****       106.7500 161.0000 138.2500 Du        
  13804 ****       106.7500 161.2500 137.2500 Du        
  13805 ****       106.7500 161.2500 137.5000 Du        
  13806 ****       106.7500 161.2500 137.7500 Du        
  13807 ****       106.7500 161.2500 138.0000 Du        
  13808 ****       106.7500 161.2500 138.2500 Du        
  13809 ****       106.7500 161.5000 137.2500 Du        
  13810 ****       106.7500 161.5000 137.5000 Du        
  13811 ****       106.7500 161.5000 137.7500 Du        
  13812 ****       106.7500 161.5000 138.0000 Du        
  13813 ****       106.7500 161.5000 138.2500 Du        
  13814 ****       106.7500 161.5000 138.5000 Du        
  13815 ****       106.7500 161.7500 137.2500 Du        
  13816 ****       106.7500 161.7500 137.5000 Du        
  13817 ****       106.7500 161.7500 137.7500 Du        
  13818 ****       106.7500 161.7500 138.0000 Du        
  13819 ****       106.7500 161.7500 138.2500 Du        
  13820 ****       106.7500 161.7500 138.5000 Du        
  13821 ****       106.7500 161.7500 138.7500 Du        
  13822 ****       106.7500 162.0000 137.5000 Du        
  13823 ****       106.7500 162.0000 137.7500 Du        
  13824 ****       106.7500 162.0000 138.0000 Du        
  13825 ****       106.7500 162.0000 138.2500 Du        
  13826 ****       106.7500 162.0000 138.5000 Du        
  13827 ****       106.7500 162.0000 138.7500 Du        
  13828 ****       106.7500 162.2500 137.5000 Du        
  13829 ****       106.7500 162.2500 137.7500 Du        
  13830 ****       106.7500 162.2500 138.0000 Du        
  13831 ****       106.7500 162.2500 138.2500 Du        
  13832 ****       106.7500 162.2500 138.5000 Du        
  13833 ****       106.7500 162.2500 138.7500 Du        
  13834 ****       106.7500 162.2500 139.0000 Du        
  13835 ****       106.7500 162.5000 137.7500 Du        
  13836 ****       106.7500 162.5000 138.0000 Du        
  13837 ****       106.7500 162.5000 138.2500 Du        
  13838 ****       106.7500 162.5000 138.5000 Du        
  13839 ****       107.0000 148.0000 146.0000 Du        
  13840 ****       107.0000 148.2500 146.0000 Du        
  13841 ****       107.0000 148.5000 145.7500 Du        
  13842 ****       107.0000 155.2500 129.2500 Du        
  13843 ****       107.0000 155.2500 129.5000 Du        
  13844 ****       107.0000 155.2500 129.7500 Du        
  13845 ****       107.0000 155.2500 130.0000 Du        
  13846 ****       107.0000 155.2500 130.2500 Du        
  13847 ****       107.0000 155.2500 130.5000 Du        
  13848 ****       107.0000 155.5000 128.7500 Du        
  13849 ****       107.0000 155.5000 129.0000 Du        
  13850 ****       107.0000 155.5000 129.2500 Du        
  13851 ****       107.0000 155.5000 129.5000 Du        
  13852 ****       107.0000 155.5000 129.7500 Du        
  13853 ****       107.0000 155.5000 130.0000 Du        
  13854 ****       107.0000 155.5000 130.2500 Du        
  13855 ****       107.0000 155.5000 130.5000 Du        
  13856 ****       107.0000 155.7500 128.5000 Du        
  13857 ****       107.0000 155.7500 128.7500 Du        
  13858 ****       107.0000 155.7500 129.0000 Du        
  13859 ****       107.0000 155.7500 129.2500 Du        
  13860 ****       107.0000 155.7500 129.5000 Du        
  13861 ****       107.0000 155.7500 129.7500 Du        
  13862 ****       107.0000 155.7500 130.0000 Du        
  13863 ****       107.0000 155.7500 130.2500 Du        
  13864 ****       107.0000 155.7500 130.5000 Du        
  13865 ****       107.0000 156.0000 128.2500 Du        
  13866 ****       107.0000 156.0000 128.5000 Du        
  13867 ****       107.0000 156.0000 128.7500 Du        
  13868 ****       107.0000 156.0000 129.0000 Du        
  13869 ****       107.0000 156.0000 129.2500 Du        
  13870 ****       107.0000 156.0000 129.5000 Du        
  13871 ****       107.0000 156.0000 129.7500 Du        
  13872 ****       107.0000 156.0000 130.0000 Du        
  13873 ****       107.0000 156.0000 130.2500 Du        
  13874 ****       107.0000 156.0000 130.5000 Du        
  13875 ****       107.0000 156.0000 130.7500 Du        
  13876 ****       107.0000 156.2500 128.0000 Du        
  13877 ****       107.0000 156.2500 128.2500 Du        
  13878 ****       107.0000 156.2500 128.5000 Du        
  13879 ****       107.0000 156.2500 128.7500 Du        
  13880 ****       107.0000 156.2500 129.0000 Du        
  13881 ****       107.0000 156.2500 129.2500 Du        
  13882 ****       107.0000 156.2500 129.5000 Du        
  13883 ****       107.0000 156.2500 129.7500 Du        
  13884 ****       107.0000 156.2500 130.0000 Du        
  13885 ****       107.0000 156.2500 130.2500 Du        
  13886 ****       107.0000 156.2500 130.5000 Du        
  13887 ****       107.0000 156.2500 130.7500 Du        
  13888 ****       107.0000 156.5000 128.0000 Du        
  13889 ****       107.0000 156.5000 128.2500 Du        
  13890 ****       107.0000 156.5000 128.5000 Du        
  13891 ****       107.0000 156.5000 128.7500 Du        
  13892 ****       107.0000 156.5000 129.0000 Du        
  13893 ****       107.0000 156.5000 129.2500 Du        
  13894 ****       107.0000 156.5000 129.5000 Du        
  13895 ****       107.0000 156.5000 129.7500 Du        
  13896 ****       107.0000 156.5000 130.0000 Du        
  13897 ****       107.0000 156.5000 130.2500 Du        
  13898 ****       107.0000 156.5000 130.5000 Du        
  13899 ****       107.0000 156.5000 130.7500 Du        
  13900 ****       107.0000 156.5000 131.0000 Du        
  13901 ****       107.0000 156.5000 139.5000 Du        
  13902 ****       107.0000 156.5000 139.7500 Du        
  13903 ****       107.0000 156.7500 127.7500 Du        
  13904 ****       107.0000 156.7500 128.0000 Du        
  13905 ****       107.0000 156.7500 128.2500 Du        
  13906 ****       107.0000 156.7500 128.5000 Du        
  13907 ****       107.0000 156.7500 128.7500 Du        
  13908 ****       107.0000 156.7500 129.0000 Du        
  13909 ****       107.0000 156.7500 129.2500 Du        
  13910 ****       107.0000 156.7500 129.5000 Du        
  13911 ****       107.0000 156.7500 129.7500 Du        
  13912 ****       107.0000 156.7500 130.0000 Du        
  13913 ****       107.0000 156.7500 130.2500 Du        
  13914 ****       107.0000 156.7500 130.5000 Du        
  13915 ****       107.0000 156.7500 130.7500 Du        
  13916 ****       107.0000 156.7500 131.0000 Du        
  13917 ****       107.0000 156.7500 138.2500 Du        
  13918 ****       107.0000 156.7500 138.5000 Du        
  13919 ****       107.0000 156.7500 138.7500 Du        
  13920 ****       107.0000 156.7500 139.0000 Du        
  13921 ****       107.0000 156.7500 139.2500 Du        
  13922 ****       107.0000 156.7500 139.5000 Du        
  13923 ****       107.0000 156.7500 139.7500 Du        
  13924 ****       107.0000 156.7500 140.0000 Du        
  13925 ****       107.0000 156.7500 140.2500 Du        
  13926 ****       107.0000 157.0000 127.5000 Du        
  13927 ****       107.0000 157.0000 127.7500 Du        
  13928 ****       107.0000 157.0000 128.0000 Du        
  13929 ****       107.0000 157.0000 128.2500 Du        
  13930 ****       107.0000 157.0000 128.5000 Du        
  13931 ****       107.0000 157.0000 128.7500 Du        
  13932 ****       107.0000 157.0000 129.0000 Du        
  13933 ****       107.0000 157.0000 129.2500 Du        
  13934 ****       107.0000 157.0000 129.5000 Du        
  13935 ****       107.0000 157.0000 129.7500 Du        
  13936 ****       107.0000 157.0000 130.0000 Du        
  13937 ****       107.0000 157.0000 130.2500 Du        
  13938 ****       107.0000 157.0000 130.5000 Du        
  13939 ****       107.0000 157.0000 130.7500 Du        
  13940 ****       107.0000 157.0000 131.0000 Du        
  13941 ****       107.0000 157.0000 131.2500 Du        
  13942 ****       107.0000 157.0000 137.5000 Du        
  13943 ****       107.0000 157.0000 137.7500 Du        
  13944 ****       107.0000 157.0000 138.0000 Du        
  13945 ****       107.0000 157.0000 138.2500 Du        
  13946 ****       107.0000 157.0000 138.5000 Du        
  13947 ****       107.0000 157.0000 138.7500 Du        
  13948 ****       107.0000 157.0000 139.0000 Du        
  13949 ****       107.0000 157.0000 139.2500 Du        
  13950 ****       107.0000 157.0000 139.5000 Du        
  13951 ****       107.0000 157.0000 139.7500 Du        
  13952 ****       107.0000 157.0000 140.0000 Du        
  13953 ****       107.0000 157.0000 140.2500 Du        
  13954 ****       107.0000 157.0000 140.5000 Du        
  13955 ****       107.0000 157.0000 140.7500 Du        
  13956 ****       107.0000 157.0000 141.0000 Du        
  13957 ****       107.0000 157.2500 127.5000 Du        
  13958 ****       107.0000 157.2500 127.7500 Du        
  13959 ****       107.0000 157.2500 128.0000 Du        
  13960 ****       107.0000 157.2500 128.2500 Du        
  13961 ****       107.0000 157.2500 128.5000 Du        
  13962 ****       107.0000 157.2500 128.7500 Du        
  13963 ****       107.0000 157.2500 129.0000 Du        
  13964 ****       107.0000 157.2500 129.2500 Du        
  13965 ****       107.0000 157.2500 129.5000 Du        
  13966 ****       107.0000 157.2500 129.7500 Du        
  13967 ****       107.0000 157.2500 130.0000 Du        
  13968 ****       107.0000 157.2500 130.2500 Du        
  13969 ****       107.0000 157.2500 130.5000 Du        
  13970 ****       107.0000 157.2500 130.7500 Du        
  13971 ****       107.0000 157.2500 131.0000 Du        
  13972 ****       107.0000 157.2500 131.2500 Du        
  13973 ****       107.0000 157.2500 131.5000 Du        
  13974 ****       107.0000 157.2500 137.0000 Du        
  13975 ****       107.0000 157.2500 137.2500 Du        
  13976 ****       107.0000 157.2500 137.5000 Du        
  13977 ****       107.0000 157.2500 137.7500 Du        
  13978 ****       107.0000 157.2500 138.0000 Du        
  13979 ****       107.0000 157.2500 138.2500 Du        
  13980 ****       107.0000 157.2500 138.5000 Du        
  13981 ****       107.0000 157.2500 138.7500 Du        
  13982 ****       107.0000 157.2500 139.0000 Du        
  13983 ****       107.0000 157.2500 139.2500 Du        
  13984 ****       107.0000 157.2500 139.5000 Du        
  13985 ****       107.0000 157.2500 139.7500 Du        
  13986 ****       107.0000 157.2500 140.0000 Du        
  13987 ****       107.0000 157.2500 140.2500 Du        
  13988 ****       107.0000 157.2500 140.5000 Du        
  13989 ****       107.0000 157.2500 140.7500 Du        
  13990 ****       107.0000 157.2500 141.0000 Du        
  13991 ****       107.0000 157.2500 141.2500 Du        
  13992 ****       107.0000 157.5000 127.5000 Du        
  13993 ****       107.0000 157.5000 127.7500 Du        
  13994 ****       107.0000 157.5000 128.0000 Du        
  13995 ****       107.0000 157.5000 128.2500 Du        
  13996 ****       107.0000 157.5000 128.5000 Du        
  13997 ****       107.0000 157.5000 128.7500 Du        
  13998 ****       107.0000 157.5000 129.0000 Du        
  13999 ****       107.0000 157.5000 129.2500 Du        
  14000 ****       107.0000 157.5000 129.5000 Du        
  14001 ****       107.0000 157.5000 129.7500 Du        
  14002 ****       107.0000 157.5000 130.0000 Du        
  14003 ****       107.0000 157.5000 130.2500 Du        
  14004 ****       107.0000 157.5000 130.5000 Du        
  14005 ****       107.0000 157.5000 130.7500 Du        
  14006 ****       107.0000 157.5000 131.0000 Du        
  14007 ****       107.0000 157.5000 131.2500 Du        
  14008 ****       107.0000 157.5000 131.5000 Du        
  14009 ****       107.0000 157.5000 137.0000 Du        
  14010 ****       107.0000 157.5000 137.2500 Du        
  14011 ****       107.0000 157.5000 137.5000 Du        
  14012 ****       107.0000 157.5000 137.7500 Du        
  14013 ****       107.0000 157.5000 138.0000 Du        
  14014 ****       107.0000 157.5000 138.2500 Du        
  14015 ****       107.0000 157.5000 138.5000 Du        
  14016 ****       107.0000 157.5000 138.7500 Du        
  14017 ****       107.0000 157.5000 139.0000 Du        
  14018 ****       107.0000 157.5000 139.2500 Du        
  14019 ****       107.0000 157.5000 139.5000 Du        
  14020 ****       107.0000 157.5000 139.7500 Du        
  14021 ****       107.0000 157.5000 140.0000 Du        
  14022 ****       107.0000 157.5000 140.2500 Du        
  14023 ****       107.0000 157.5000 140.5000 Du        
  14024 ****       107.0000 157.5000 140.7500 Du        
  14025 ****       107.0000 157.5000 141.0000 Du        
  14026 ****       107.0000 157.7500 127.5000 Du        
  14027 ****       107.0000 157.7500 127.7500 Du        
  14028 ****       107.0000 157.7500 128.0000 Du        
  14029 ****       107.0000 157.7500 128.2500 Du        
  14030 ****       107.0000 157.7500 128.5000 Du        
  14031 ****       107.0000 157.7500 128.7500 Du        
  14032 ****       107.0000 157.7500 129.0000 Du        
  14033 ****       107.0000 157.7500 129.2500 Du        
  14034 ****       107.0000 157.7500 129.5000 Du        
  14035 ****       107.0000 157.7500 129.7500 Du        
  14036 ****       107.0000 157.7500 130.0000 Du        
  14037 ****       107.0000 157.7500 130.2500 Du        
  14038 ****       107.0000 157.7500 130.5000 Du        
  14039 ****       107.0000 157.7500 130.7500 Du        
  14040 ****       107.0000 157.7500 131.0000 Du        
  14041 ****       107.0000 157.7500 131.2500 Du        
  14042 ****       107.0000 157.7500 131.5000 Du        
  14043 ****       107.0000 157.7500 131.7500 Du        
  14044 ****       107.0000 157.7500 132.0000 Du        
  14045 ****       107.0000 157.7500 136.7500 Du        
  14046 ****       107.0000 157.7500 137.0000 Du        
  14047 ****       107.0000 157.7500 137.2500 Du        
  14048 ****       107.0000 157.7500 137.5000 Du        
  14049 ****       107.0000 157.7500 137.7500 Du        
  14050 ****       107.0000 157.7500 138.0000 Du        
  14051 ****       107.0000 157.7500 138.2500 Du        
  14052 ****       107.0000 157.7500 138.5000 Du        
  14053 ****       107.0000 157.7500 138.7500 Du        
  14054 ****       107.0000 157.7500 139.0000 Du        
  14055 ****       107.0000 157.7500 139.2500 Du        
  14056 ****       107.0000 157.7500 139.5000 Du        
  14057 ****       107.0000 157.7500 139.7500 Du        
  14058 ****       107.0000 157.7500 140.0000 Du        
  14059 ****       107.0000 157.7500 140.2500 Du        
  14060 ****       107.0000 157.7500 140.5000 Du        
  14061 ****       107.0000 157.7500 140.7500 Du        
  14062 ****       107.0000 157.7500 141.0000 Du        
  14063 ****       107.0000 158.0000 127.5000 Du        
  14064 ****       107.0000 158.0000 127.7500 Du        
  14065 ****       107.0000 158.0000 128.0000 Du        
  14066 ****       107.0000 158.0000 128.2500 Du        
  14067 ****       107.0000 158.0000 128.5000 Du        
  14068 ****       107.0000 158.0000 128.7500 Du        
  14069 ****       107.0000 158.0000 129.0000 Du        
  14070 ****       107.0000 158.0000 129.2500 Du        
  14071 ****       107.0000 158.0000 129.5000 Du        
  14072 ****       107.0000 158.0000 129.7500 Du        
  14073 ****       107.0000 158.0000 130.0000 Du        
  14074 ****       107.0000 158.0000 130.2500 Du        
  14075 ****       107.0000 158.0000 130.5000 Du        
  14076 ****       107.0000 158.0000 130.7500 Du        
  14077 ****       107.0000 158.0000 131.0000 Du        
  14078 ****       107.0000 158.0000 131.2500 Du        
  14079 ****       107.0000 158.0000 131.5000 Du        
  14080 ****       107.0000 158.0000 131.7500 Du        
  14081 ****       107.0000 158.0000 132.0000 Du        
  14082 ****       107.0000 158.0000 132.2500 Du        
  14083 ****       107.0000 158.0000 136.2500 Du        
  14084 ****       107.0000 158.0000 136.5000 Du        
  14085 ****       107.0000 158.0000 136.7500 Du        
  14086 ****       107.0000 158.0000 137.0000 Du        
  14087 ****       107.0000 158.0000 137.2500 Du        
  14088 ****       107.0000 158.0000 137.5000 Du        
  14089 ****       107.0000 158.0000 137.7500 Du        
  14090 ****       107.0000 158.0000 138.0000 Du        
  14091 ****       107.0000 158.0000 138.2500 Du        
  14092 ****       107.0000 158.0000 138.5000 Du        
  14093 ****       107.0000 158.0000 138.7500 Du        
  14094 ****       107.0000 158.0000 139.0000 Du        
  14095 ****       107.0000 158.0000 139.2500 Du        
  14096 ****       107.0000 158.0000 139.5000 Du        
  14097 ****       107.0000 158.0000 139.7500 Du        
  14098 ****       107.0000 158.0000 140.0000 Du        
  14099 ****       107.0000 158.0000 140.2500 Du        
  14100 ****       107.0000 158.0000 140.5000 Du        
  14101 ****       107.0000 158.2500 128.0000 Du        
  14102 ****       107.0000 158.2500 128.2500 Du        
  14103 ****       107.0000 158.2500 128.5000 Du        
  14104 ****       107.0000 158.2500 128.7500 Du        
  14105 ****       107.0000 158.2500 129.0000 Du        
  14106 ****       107.0000 158.2500 129.2500 Du        
  14107 ****       107.0000 158.2500 129.5000 Du        
  14108 ****       107.0000 158.2500 129.7500 Du        
  14109 ****       107.0000 158.2500 130.0000 Du        
  14110 ****       107.0000 158.2500 130.2500 Du        
  14111 ****       107.0000 158.2500 130.5000 Du        
  14112 ****       107.0000 158.2500 130.7500 Du        
  14113 ****       107.0000 158.2500 131.0000 Du        
  14114 ****       107.0000 158.2500 131.2500 Du        
  14115 ****       107.0000 158.2500 131.5000 Du        
  14116 ****       107.0000 158.2500 131.7500 Du        
  14117 ****       107.0000 158.2500 136.0000 Du        
  14118 ****       107.0000 158.2500 136.2500 Du        
  14119 ****       107.0000 158.2500 136.5000 Du        
  14120 ****       107.0000 158.2500 136.7500 Du        
  14121 ****       107.0000 158.2500 137.0000 Du        
  14122 ****       107.0000 158.2500 137.2500 Du        
  14123 ****       107.0000 158.2500 137.5000 Du        
  14124 ****       107.0000 158.2500 137.7500 Du        
  14125 ****       107.0000 158.2500 138.0000 Du        
  14126 ****       107.0000 158.2500 138.2500 Du        
  14127 ****       107.0000 158.2500 138.5000 Du        
  14128 ****       107.0000 158.2500 138.7500 Du        
  14129 ****       107.0000 158.2500 139.0000 Du        
  14130 ****       107.0000 158.2500 139.2500 Du        
  14131 ****       107.0000 158.2500 139.5000 Du        
  14132 ****       107.0000 158.2500 139.7500 Du        
  14133 ****       107.0000 158.2500 140.0000 Du        
  14134 ****       107.0000 158.2500 140.2500 Du        
  14135 ****       107.0000 158.5000 128.7500 Du        
  14136 ****       107.0000 158.5000 129.0000 Du        
  14137 ****       107.0000 158.5000 129.2500 Du        
  14138 ****       107.0000 158.5000 129.5000 Du        
  14139 ****       107.0000 158.5000 129.7500 Du        
  14140 ****       107.0000 158.5000 130.0000 Du        
  14141 ****       107.0000 158.5000 130.2500 Du        
  14142 ****       107.0000 158.5000 130.5000 Du        
  14143 ****       107.0000 158.5000 130.7500 Du        
  14144 ****       107.0000 158.5000 131.0000 Du        
  14145 ****       107.0000 158.5000 131.2500 Du        
  14146 ****       107.0000 158.5000 131.5000 Du        
  14147 ****       107.0000 158.5000 135.7500 Du        
  14148 ****       107.0000 158.5000 136.0000 Du        
  14149 ****       107.0000 158.5000 136.2500 Du        
  14150 ****       107.0000 158.5000 136.5000 Du        
  14151 ****       107.0000 158.5000 136.7500 Du        
  14152 ****       107.0000 158.5000 137.0000 Du        
  14153 ****       107.0000 158.5000 137.2500 Du        
  14154 ****       107.0000 158.5000 137.5000 Du        
  14155 ****       107.0000 158.5000 137.7500 Du        
  14156 ****       107.0000 158.5000 138.0000 Du        
  14157 ****       107.0000 158.7500 129.0000 Du        
  14158 ****       107.0000 158.7500 129.2500 Du        
  14159 ****       107.0000 158.7500 129.5000 Du        
  14160 ****       107.0000 158.7500 129.7500 Du        
  14161 ****       107.0000 158.7500 130.0000 Du        
  14162 ****       107.0000 158.7500 130.2500 Du        
  14163 ****       107.0000 158.7500 130.5000 Du        
  14164 ****       107.0000 158.7500 130.7500 Du        
  14165 ****       107.0000 158.7500 131.0000 Du        
  14166 ****       107.0000 158.7500 131.2500 Du        
  14167 ****       107.0000 158.7500 135.2500 Du        
  14168 ****       107.0000 158.7500 135.5000 Du        
  14169 ****       107.0000 158.7500 135.7500 Du        
  14170 ****       107.0000 158.7500 136.0000 Du        
  14171 ****       107.0000 158.7500 136.2500 Du        
  14172 ****       107.0000 158.7500 136.5000 Du        
  14173 ****       107.0000 158.7500 136.7500 Du        
  14174 ****       107.0000 158.7500 137.0000 Du        
  14175 ****       107.0000 158.7500 137.2500 Du        
  14176 ****       107.0000 158.7500 137.5000 Du        
  14177 ****       107.0000 158.7500 137.7500 Du        
  14178 ****       107.0000 158.7500 138.0000 Du        
  14179 ****       107.0000 159.0000 129.5000 Du        
  14180 ****       107.0000 159.0000 129.7500 Du        
  14181 ****       107.0000 159.0000 130.0000 Du        
  14182 ****       107.0000 159.0000 130.2500 Du        
  14183 ****       107.0000 159.0000 130.5000 Du        
  14184 ****       107.0000 159.0000 130.7500 Du        
  14185 ****       107.0000 159.0000 131.0000 Du        
  14186 ****       107.0000 159.0000 135.0000 Du        
  14187 ****       107.0000 159.0000 135.2500 Du        
  14188 ****       107.0000 159.0000 135.5000 Du        
  14189 ****       107.0000 159.0000 135.7500 Du        
  14190 ****       107.0000 159.0000 136.0000 Du        
  14191 ****       107.0000 159.0000 136.2500 Du        
  14192 ****       107.0000 159.0000 136.5000 Du        
  14193 ****       107.0000 159.0000 136.7500 Du        
  14194 ****       107.0000 159.0000 137.0000 Du        
  14195 ****       107.0000 159.0000 137.2500 Du        
  14196 ****       107.0000 159.0000 137.5000 Du        
  14197 ****       107.0000 159.0000 137.7500 Du        
  14198 ****       107.0000 159.0000 138.0000 Du        
  14199 ****       107.0000 159.2500 129.7500 Du        
  14200 ****       107.0000 159.2500 130.0000 Du        
  14201 ****       107.0000 159.2500 130.2500 Du        
  14202 ****       107.0000 159.2500 130.5000 Du        
  14203 ****       107.0000 159.2500 130.7500 Du        
  14204 ****       107.0000 159.2500 135.2500 Du        
  14205 ****       107.0000 159.2500 135.5000 Du        
  14206 ****       107.0000 159.2500 135.7500 Du        
  14207 ****       107.0000 159.2500 136.0000 Du        
  14208 ****       107.0000 159.2500 136.2500 Du        
  14209 ****       107.0000 159.2500 136.5000 Du        
  14210 ****       107.0000 159.2500 136.7500 Du        
  14211 ****       107.0000 159.2500 137.0000 Du        
  14212 ****       107.0000 159.2500 137.2500 Du        
  14213 ****       107.0000 159.2500 137.5000 Du        
  14214 ****       107.0000 159.2500 137.7500 Du        
  14215 ****       107.0000 159.2500 138.0000 Du        
  14216 ****       107.0000 159.5000 130.0000 Du        
  14217 ****       107.0000 159.5000 130.2500 Du        
  14218 ****       107.0000 159.5000 130.5000 Du        
  14219 ****       107.0000 159.5000 135.5000 Du        
  14220 ****       107.0000 159.5000 135.7500 Du        
  14221 ****       107.0000 159.5000 136.0000 Du        
  14222 ****       107.0000 159.5000 136.2500 Du        
  14223 ****       107.0000 159.5000 136.5000 Du        
  14224 ****       107.0000 159.5000 136.7500 Du        
  14225 ****       107.0000 159.5000 137.0000 Du        
  14226 ****       107.0000 159.5000 137.2500 Du        
  14227 ****       107.0000 159.5000 137.5000 Du        
  14228 ****       107.0000 159.7500 136.0000 Du        
  14229 ****       107.0000 159.7500 136.2500 Du        
  14230 ****       107.0000 159.7500 136.5000 Du        
  14231 ****       107.0000 159.7500 136.7500 Du        
  14232 ****       107.0000 159.7500 137.0000 Du        
  14233 ****       107.0000 159.7500 137.2500 Du        
  14234 ****       107.0000 159.7500 137.5000 Du        
  14235 ****       107.0000 160.0000 136.7500 Du        
  14236 ****       107.0000 160.0000 137.0000 Du        
  14237 ****       107.0000 160.0000 137.2500 Du        
  14238 ****       107.0000 160.0000 137.5000 Du        
  14239 ****       107.0000 160.0000 137.7500 Du        
  14240 ****       107.0000 160.2500 137.0000 Du        
  14241 ****       107.0000 160.2500 137.2500 Du        
  14242 ****       107.0000 160.2500 137.7500 Du        
  14243 ****       107.0000 160.5000 137.0000 Du        
  14244 ****       107.0000 160.5000 137.2500 Du        
  14245 ****       107.0000 160.5000 137.5000 Du        
  14246 ****       107.0000 160.5000 137.7500 Du        
  14247 ****       107.0000 160.5000 138.0000 Du        
  14248 ****       107.0000 160.7500 137.0000 Du        
  14249 ****       107.0000 160.7500 137.2500 Du        
  14250 ****       107.0000 160.7500 137.5000 Du        
  14251 ****       107.0000 160.7500 137.7500 Du        
  14252 ****       107.0000 160.7500 138.0000 Du        
  14253 ****       107.0000 160.7500 138.2500 Du        
  14254 ****       107.0000 161.0000 137.0000 Du        
  14255 ****       107.0000 161.0000 137.2500 Du        
  14256 ****       107.0000 161.0000 137.5000 Du        
  14257 ****       107.0000 161.0000 137.7500 Du        
  14258 ****       107.0000 161.0000 138.0000 Du        
  14259 ****       107.0000 161.0000 138.2500 Du        
  14260 ****       107.0000 161.2500 137.0000 Du        
  14261 ****       107.0000 161.2500 137.2500 Du        
  14262 ****       107.0000 161.2500 137.5000 Du        
  14263 ****       107.0000 161.2500 137.7500 Du        
  14264 ****       107.0000 161.2500 138.0000 Du        
  14265 ****       107.0000 161.2500 138.2500 Du        
  14266 ****       107.0000 161.5000 137.2500 Du        
  14267 ****       107.0000 161.5000 137.5000 Du        
  14268 ****       107.0000 161.5000 137.7500 Du        
  14269 ****       107.0000 161.5000 138.0000 Du        
  14270 ****       107.0000 161.5000 138.2500 Du        
  14271 ****       107.0000 161.5000 138.5000 Du        
  14272 ****       107.0000 161.5000 138.7500 Du        
  14273 ****       107.0000 161.7500 137.2500 Du        
  14274 ****       107.0000 161.7500 137.5000 Du        
  14275 ****       107.0000 161.7500 137.7500 Du        
  14276 ****       107.0000 161.7500 138.0000 Du        
  14277 ****       107.0000 161.7500 138.2500 Du        
  14278 ****       107.0000 161.7500 138.5000 Du        
  14279 ****       107.0000 161.7500 138.7500 Du        
  14280 ****       107.0000 162.0000 137.2500 Du        
  14281 ****       107.0000 162.0000 137.5000 Du        
  14282 ****       107.0000 162.0000 137.7500 Du        
  14283 ****       107.0000 162.0000 138.0000 Du        
  14284 ****       107.0000 162.0000 138.2500 Du        
  14285 ****       107.0000 162.0000 138.5000 Du        
  14286 ****       107.0000 162.0000 138.7500 Du        
  14287 ****       107.0000 162.2500 137.5000 Du        
  14288 ****       107.0000 162.2500 137.7500 Du        
  14289 ****       107.0000 162.2500 138.0000 Du        
  14290 ****       107.0000 162.2500 138.2500 Du        
  14291 ****       107.0000 162.2500 138.5000 Du        
  14292 ****       107.0000 162.2500 138.7500 Du        
  14293 ****       107.0000 162.2500 139.0000 Du        
  14294 ****       107.0000 162.5000 137.7500 Du        
  14295 ****       107.0000 162.5000 138.0000 Du        
  14296 ****       107.0000 162.5000 138.2500 Du        
  14297 ****       107.0000 162.5000 138.5000 Du        
  14298 ****       107.2500 155.2500 129.7500 Du        
  14299 ****       107.2500 155.2500 130.0000 Du        
  14300 ****       107.2500 155.2500 130.2500 Du        
  14301 ****       107.2500 155.5000 128.7500 Du        
  14302 ****       107.2500 155.5000 129.0000 Du        
  14303 ****       107.2500 155.5000 129.2500 Du        
  14304 ****       107.2500 155.5000 129.5000 Du        
  14305 ****       107.2500 155.5000 129.7500 Du        
  14306 ****       107.2500 155.5000 130.0000 Du        
  14307 ****       107.2500 155.5000 130.2500 Du        
  14308 ****       107.2500 155.5000 130.5000 Du        
  14309 ****       107.2500 155.7500 128.5000 Du        
  14310 ****       107.2500 155.7500 128.7500 Du        
  14311 ****       107.2500 155.7500 129.0000 Du        
  14312 ****       107.2500 155.7500 129.2500 Du        
  14313 ****       107.2500 155.7500 129.5000 Du        
  14314 ****       107.2500 155.7500 129.7500 Du        
  14315 ****       107.2500 155.7500 130.0000 Du        
  14316 ****       107.2500 155.7500 130.2500 Du        
  14317 ****       107.2500 155.7500 130.5000 Du        
  14318 ****       107.2500 156.0000 128.2500 Du        
  14319 ****       107.2500 156.0000 128.5000 Du        
  14320 ****       107.2500 156.0000 128.7500 Du        
  14321 ****       107.2500 156.0000 129.0000 Du        
  14322 ****       107.2500 156.0000 129.2500 Du        
  14323 ****       107.2500 156.0000 129.5000 Du        
  14324 ****       107.2500 156.0000 129.7500 Du        
  14325 ****       107.2500 156.0000 130.0000 Du        
  14326 ****       107.2500 156.0000 130.2500 Du        
  14327 ****       107.2500 156.0000 130.5000 Du        
  14328 ****       107.2500 156.0000 130.7500 Du        
  14329 ****       107.2500 156.2500 128.2500 Du        
  14330 ****       107.2500 156.2500 128.5000 Du        
  14331 ****       107.2500 156.2500 128.7500 Du        
  14332 ****       107.2500 156.2500 129.0000 Du        
  14333 ****       107.2500 156.2500 129.2500 Du        
  14334 ****       107.2500 156.2500 129.5000 Du        
  14335 ****       107.2500 156.2500 129.7500 Du        
  14336 ****       107.2500 156.2500 130.0000 Du        
  14337 ****       107.2500 156.2500 130.2500 Du        
  14338 ****       107.2500 156.2500 130.5000 Du        
  14339 ****       107.2500 156.2500 130.7500 Du        
  14340 ****       107.2500 156.2500 139.7500 Du        
  14341 ****       107.2500 156.2500 140.0000 Du        
  14342 ****       107.2500 156.5000 128.0000 Du        
  14343 ****       107.2500 156.5000 128.2500 Du        
  14344 ****       107.2500 156.5000 128.5000 Du        
  14345 ****       107.2500 156.5000 128.7500 Du        
  14346 ****       107.2500 156.5000 129.0000 Du        
  14347 ****       107.2500 156.5000 129.2500 Du        
  14348 ****       107.2500 156.5000 129.5000 Du        
  14349 ****       107.2500 156.5000 129.7500 Du        
  14350 ****       107.2500 156.5000 130.0000 Du        
  14351 ****       107.2500 156.5000 130.2500 Du        
  14352 ****       107.2500 156.5000 130.5000 Du        
  14353 ****       107.2500 156.5000 130.7500 Du        
  14354 ****       107.2500 156.5000 131.0000 Du        
  14355 ****       107.2500 156.5000 139.2500 Du        
  14356 ****       107.2500 156.5000 139.5000 Du        
  14357 ****       107.2500 156.5000 139.7500 Du        
  14358 ****       107.2500 156.5000 140.0000 Du        
  14359 ****       107.2500 156.5000 140.2500 Du        
  14360 ****       107.2500 156.7500 128.0000 Du        
  14361 ****       107.2500 156.7500 128.2500 Du        
  14362 ****       107.2500 156.7500 128.5000 Du        
  14363 ****       107.2500 156.7500 128.7500 Du        
  14364 ****       107.2500 156.7500 129.0000 Du        
  14365 ****       107.2500 156.7500 129.2500 Du        
  14366 ****       107.2500 156.7500 129.5000 Du        
  14367 ****       107.2500 156.7500 129.7500 Du        
  14368 ****       107.2500 156.7500 130.0000 Du        
  14369 ****       107.2500 156.7500 130.2500 Du        
  14370 ****       107.2500 156.7500 130.5000 Du        
  14371 ****       107.2500 156.7500 130.7500 Du        
  14372 ****       107.2500 156.7500 131.0000 Du        
  14373 ****       107.2500 156.7500 138.2500 Du        
  14374 ****       107.2500 156.7500 138.5000 Du        
  14375 ****       107.2500 156.7500 138.7500 Du        
  14376 ****       107.2500 156.7500 139.0000 Du        
  14377 ****       107.2500 156.7500 139.2500 Du        
  14378 ****       107.2500 156.7500 139.5000 Du        
  14379 ****       107.2500 156.7500 139.7500 Du        
  14380 ****       107.2500 156.7500 140.0000 Du        
  14381 ****       107.2500 156.7500 140.2500 Du        
  14382 ****       107.2500 156.7500 140.5000 Du        
  14383 ****       107.2500 156.7500 140.7500 Du        
  14384 ****       107.2500 156.7500 141.2500 Du        
  14385 ****       107.2500 157.0000 127.7500 Du        
  14386 ****       107.2500 157.0000 128.0000 Du        
  14387 ****       107.2500 157.0000 128.2500 Du        
  14388 ****       107.2500 157.0000 128.5000 Du        
  14389 ****       107.2500 157.0000 128.7500 Du        
  14390 ****       107.2500 157.0000 129.0000 Du        
  14391 ****       107.2500 157.0000 129.2500 Du        
  14392 ****       107.2500 157.0000 129.5000 Du        
  14393 ****       107.2500 157.0000 129.7500 Du        
  14394 ****       107.2500 157.0000 130.0000 Du        
  14395 ****       107.2500 157.0000 130.2500 Du        
  14396 ****       107.2500 157.0000 130.5000 Du        
  14397 ****       107.2500 157.0000 130.7500 Du        
  14398 ****       107.2500 157.0000 131.0000 Du        
  14399 ****       107.2500 157.0000 131.2500 Du        
  14400 ****       107.2500 157.0000 137.7500 Du        
  14401 ****       107.2500 157.0000 138.0000 Du        
  14402 ****       107.2500 157.0000 138.2500 Du        
  14403 ****       107.2500 157.0000 138.5000 Du        
  14404 ****       107.2500 157.0000 138.7500 Du        
  14405 ****       107.2500 157.0000 139.0000 Du        
  14406 ****       107.2500 157.0000 139.2500 Du        
  14407 ****       107.2500 157.0000 139.5000 Du        
  14408 ****       107.2500 157.0000 139.7500 Du        
  14409 ****       107.2500 157.0000 140.0000 Du        
  14410 ****       107.2500 157.0000 140.2500 Du        
  14411 ****       107.2500 157.0000 140.5000 Du        
  14412 ****       107.2500 157.0000 140.7500 Du        
  14413 ****       107.2500 157.0000 141.0000 Du        
  14414 ****       107.2500 157.0000 141.2500 Du        
  14415 ****       107.2500 157.2500 127.5000 Du        
  14416 ****       107.2500 157.2500 127.7500 Du        
  14417 ****       107.2500 157.2500 128.0000 Du        
  14418 ****       107.2500 157.2500 128.2500 Du        
  14419 ****       107.2500 157.2500 128.5000 Du        
  14420 ****       107.2500 157.2500 128.7500 Du        
  14421 ****       107.2500 157.2500 129.0000 Du        
  14422 ****       107.2500 157.2500 129.2500 Du        
  14423 ****       107.2500 157.2500 129.5000 Du        
  14424 ****       107.2500 157.2500 129.7500 Du        
  14425 ****       107.2500 157.2500 130.0000 Du        
  14426 ****       107.2500 157.2500 130.2500 Du        
  14427 ****       107.2500 157.2500 130.5000 Du        
  14428 ****       107.2500 157.2500 130.7500 Du        
  14429 ****       107.2500 157.2500 131.0000 Du        
  14430 ****       107.2500 157.2500 131.2500 Du        
  14431 ****       107.2500 157.2500 137.5000 Du        
  14432 ****       107.2500 157.2500 137.7500 Du        
  14433 ****       107.2500 157.2500 138.0000 Du        
  14434 ****       107.2500 157.2500 138.2500 Du        
  14435 ****       107.2500 157.2500 138.5000 Du        
  14436 ****       107.2500 157.2500 138.7500 Du        
  14437 ****       107.2500 157.2500 139.0000 Du        
  14438 ****       107.2500 157.2500 139.2500 Du        
  14439 ****       107.2500 157.2500 139.5000 Du        
  14440 ****       107.2500 157.2500 139.7500 Du        
  14441 ****       107.2500 157.2500 140.0000 Du        
  14442 ****       107.2500 157.2500 140.2500 Du        
  14443 ****       107.2500 157.2500 140.5000 Du        
  14444 ****       107.2500 157.2500 140.7500 Du        
  14445 ****       107.2500 157.2500 141.0000 Du        
  14446 ****       107.2500 157.5000 127.5000 Du        
  14447 ****       107.2500 157.5000 127.7500 Du        
  14448 ****       107.2500 157.5000 128.0000 Du        
  14449 ****       107.2500 157.5000 128.2500 Du        
  14450 ****       107.2500 157.5000 128.5000 Du        
  14451 ****       107.2500 157.5000 128.7500 Du        
  14452 ****       107.2500 157.5000 129.0000 Du        
  14453 ****       107.2500 157.5000 129.2500 Du        
  14454 ****       107.2500 157.5000 129.5000 Du        
  14455 ****       107.2500 157.5000 129.7500 Du        
  14456 ****       107.2500 157.5000 130.0000 Du        
  14457 ****       107.2500 157.5000 130.2500 Du        
  14458 ****       107.2500 157.5000 130.5000 Du        
  14459 ****       107.2500 157.5000 130.7500 Du        
  14460 ****       107.2500 157.5000 131.0000 Du        
  14461 ****       107.2500 157.5000 131.2500 Du        
  14462 ****       107.2500 157.5000 131.5000 Du        
  14463 ****       107.2500 157.5000 137.2500 Du        
  14464 ****       107.2500 157.5000 137.5000 Du        
  14465 ****       107.2500 157.5000 137.7500 Du        
  14466 ****       107.2500 157.5000 138.0000 Du        
  14467 ****       107.2500 157.5000 138.2500 Du        
  14468 ****       107.2500 157.5000 138.5000 Du        
  14469 ****       107.2500 157.5000 138.7500 Du        
  14470 ****       107.2500 157.5000 139.0000 Du        
  14471 ****       107.2500 157.5000 139.2500 Du        
  14472 ****       107.2500 157.5000 139.5000 Du        
  14473 ****       107.2500 157.5000 139.7500 Du        
  14474 ****       107.2500 157.5000 140.0000 Du        
  14475 ****       107.2500 157.5000 140.2500 Du        
  14476 ****       107.2500 157.5000 140.5000 Du        
  14477 ****       107.2500 157.7500 127.5000 Du        
  14478 ****       107.2500 157.7500 127.7500 Du        
  14479 ****       107.2500 157.7500 128.0000 Du        
  14480 ****       107.2500 157.7500 128.2500 Du        
  14481 ****       107.2500 157.7500 128.5000 Du        
  14482 ****       107.2500 157.7500 128.7500 Du        
  14483 ****       107.2500 157.7500 129.0000 Du        
  14484 ****       107.2500 157.7500 129.2500 Du        
  14485 ****       107.2500 157.7500 129.5000 Du        
  14486 ****       107.2500 157.7500 129.7500 Du        
  14487 ****       107.2500 157.7500 130.0000 Du        
  14488 ****       107.2500 157.7500 130.2500 Du        
  14489 ****       107.2500 157.7500 130.5000 Du        
  14490 ****       107.2500 157.7500 130.7500 Du        
  14491 ****       107.2500 157.7500 131.0000 Du        
  14492 ****       107.2500 157.7500 131.2500 Du        
  14493 ****       107.2500 157.7500 131.5000 Du        
  14494 ****       107.2500 157.7500 131.7500 Du        
  14495 ****       107.2500 157.7500 137.0000 Du        
  14496 ****       107.2500 157.7500 137.2500 Du        
  14497 ****       107.2500 157.7500 137.5000 Du        
  14498 ****       107.2500 157.7500 137.7500 Du        
  14499 ****       107.2500 157.7500 138.0000 Du        
  14500 ****       107.2500 157.7500 138.2500 Du        
  14501 ****       107.2500 157.7500 138.5000 Du        
  14502 ****       107.2500 157.7500 138.7500 Du        
  14503 ****       107.2500 157.7500 139.0000 Du        
  14504 ****       107.2500 157.7500 139.2500 Du        
  14505 ****       107.2500 157.7500 139.5000 Du        
  14506 ****       107.2500 157.7500 139.7500 Du        
  14507 ****       107.2500 157.7500 140.0000 Du        
  14508 ****       107.2500 157.7500 140.2500 Du        
  14509 ****       107.2500 158.0000 127.7500 Du        
  14510 ****       107.2500 158.0000 128.0000 Du        
  14511 ****       107.2500 158.0000 128.2500 Du        
  14512 ****       107.2500 158.0000 128.5000 Du        
  14513 ****       107.2500 158.0000 128.7500 Du        
  14514 ****       107.2500 158.0000 129.0000 Du        
  14515 ****       107.2500 158.0000 129.2500 Du        
  14516 ****       107.2500 158.0000 129.5000 Du        
  14517 ****       107.2500 158.0000 129.7500 Du        
  14518 ****       107.2500 158.0000 130.0000 Du        
  14519 ****       107.2500 158.0000 130.2500 Du        
  14520 ****       107.2500 158.0000 130.5000 Du        
  14521 ****       107.2500 158.0000 130.7500 Du        
  14522 ****       107.2500 158.0000 131.0000 Du        
  14523 ****       107.2500 158.0000 131.2500 Du        
  14524 ****       107.2500 158.0000 131.5000 Du        
  14525 ****       107.2500 158.0000 131.7500 Du        
  14526 ****       107.2500 158.0000 136.7500 Du        
  14527 ****       107.2500 158.0000 137.0000 Du        
  14528 ****       107.2500 158.0000 137.2500 Du        
  14529 ****       107.2500 158.0000 137.5000 Du        
  14530 ****       107.2500 158.0000 137.7500 Du        
  14531 ****       107.2500 158.0000 138.0000 Du        
  14532 ****       107.2500 158.0000 138.2500 Du        
  14533 ****       107.2500 158.0000 138.5000 Du        
  14534 ****       107.2500 158.0000 138.7500 Du        
  14535 ****       107.2500 158.0000 139.0000 Du        
  14536 ****       107.2500 158.0000 139.2500 Du        
  14537 ****       107.2500 158.0000 139.5000 Du        
  14538 ****       107.2500 158.0000 139.7500 Du        
  14539 ****       107.2500 158.0000 140.0000 Du        
  14540 ****       107.2500 158.0000 140.2500 Du        
  14541 ****       107.2500 158.2500 128.2500 Du        
  14542 ****       107.2500 158.2500 128.5000 Du        
  14543 ****       107.2500 158.2500 128.7500 Du        
  14544 ****       107.2500 158.2500 129.0000 Du        
  14545 ****       107.2500 158.2500 129.2500 Du        
  14546 ****       107.2500 158.2500 129.5000 Du        
  14547 ****       107.2500 158.2500 129.7500 Du        
  14548 ****       107.2500 158.2500 130.0000 Du        
  14549 ****       107.2500 158.2500 130.2500 Du        
  14550 ****       107.2500 158.2500 130.5000 Du        
  14551 ****       107.2500 158.2500 130.7500 Du        
  14552 ****       107.2500 158.2500 131.0000 Du        
  14553 ****       107.2500 158.2500 131.2500 Du        
  14554 ****       107.2500 158.2500 136.2500 Du        
  14555 ****       107.2500 158.2500 136.5000 Du        
  14556 ****       107.2500 158.2500 136.7500 Du        
  14557 ****       107.2500 158.2500 137.0000 Du        
  14558 ****       107.2500 158.2500 137.2500 Du        
  14559 ****       107.2500 158.2500 137.5000 Du        
  14560 ****       107.2500 158.2500 137.7500 Du        
  14561 ****       107.2500 158.2500 138.0000 Du        
  14562 ****       107.2500 158.2500 138.2500 Du        
  14563 ****       107.2500 158.2500 138.5000 Du        
  14564 ****       107.2500 158.2500 138.7500 Du        
  14565 ****       107.2500 158.2500 139.7500 Du        
  14566 ****       107.2500 158.5000 129.0000 Du        
  14567 ****       107.2500 158.5000 129.2500 Du        
  14568 ****       107.2500 158.5000 129.5000 Du        
  14569 ****       107.2500 158.5000 129.7500 Du        
  14570 ****       107.2500 158.5000 130.0000 Du        
  14571 ****       107.2500 158.5000 130.2500 Du        
  14572 ****       107.2500 158.5000 130.5000 Du        
  14573 ****       107.2500 158.5000 130.7500 Du        
  14574 ****       107.2500 158.5000 136.0000 Du        
  14575 ****       107.2500 158.5000 136.2500 Du        
  14576 ****       107.2500 158.5000 136.5000 Du        
  14577 ****       107.2500 158.5000 136.7500 Du        
  14578 ****       107.2500 158.5000 137.0000 Du        
  14579 ****       107.2500 158.5000 137.2500 Du        
  14580 ****       107.2500 158.5000 137.5000 Du        
  14581 ****       107.2500 158.5000 137.7500 Du        
  14582 ****       107.2500 158.5000 138.0000 Du        
  14583 ****       107.2500 158.5000 138.2500 Du        
  14584 ****       107.2500 158.7500 129.2500 Du        
  14585 ****       107.2500 158.7500 129.5000 Du        
  14586 ****       107.2500 158.7500 129.7500 Du        
  14587 ****       107.2500 158.7500 130.0000 Du        
  14588 ****       107.2500 158.7500 130.2500 Du        
  14589 ****       107.2500 158.7500 130.5000 Du        
  14590 ****       107.2500 158.7500 134.7500 Du        
  14591 ****       107.2500 158.7500 135.0000 Du        
  14592 ****       107.2500 158.7500 135.2500 Du        
  14593 ****       107.2500 158.7500 135.5000 Du        
  14594 ****       107.2500 158.7500 135.7500 Du        
  14595 ****       107.2500 158.7500 136.0000 Du        
  14596 ****       107.2500 158.7500 136.2500 Du        
  14597 ****       107.2500 158.7500 136.5000 Du        
  14598 ****       107.2500 158.7500 136.7500 Du        
  14599 ****       107.2500 158.7500 137.0000 Du        
  14600 ****       107.2500 158.7500 137.2500 Du        
  14601 ****       107.2500 158.7500 137.5000 Du        
  14602 ****       107.2500 158.7500 137.7500 Du        
  14603 ****       107.2500 158.7500 138.0000 Du        
  14604 ****       107.2500 159.0000 129.7500 Du        
  14605 ****       107.2500 159.0000 130.0000 Du        
  14606 ****       107.2500 159.0000 130.2500 Du        
  14607 ****       107.2500 159.0000 130.5000 Du        
  14608 ****       107.2500 159.0000 134.7500 Du        
  14609 ****       107.2500 159.0000 135.0000 Du        
  14610 ****       107.2500 159.0000 135.2500 Du        
  14611 ****       107.2500 159.0000 135.5000 Du        
  14612 ****       107.2500 159.0000 135.7500 Du        
  14613 ****       107.2500 159.0000 136.0000 Du        
  14614 ****       107.2500 159.0000 136.2500 Du        
  14615 ****       107.2500 159.0000 136.5000 Du        
  14616 ****       107.2500 159.0000 136.7500 Du        
  14617 ****       107.2500 159.0000 137.0000 Du        
  14618 ****       107.2500 159.0000 137.2500 Du        
  14619 ****       107.2500 159.0000 137.5000 Du        
  14620 ****       107.2500 159.0000 137.7500 Du        
  14621 ****       107.2500 159.2500 130.0000 Du        
  14622 ****       107.2500 159.2500 130.2500 Du        
  14623 ****       107.2500 159.2500 134.7500 Du        
  14624 ****       107.2500 159.2500 135.0000 Du        
  14625 ****       107.2500 159.2500 135.2500 Du        
  14626 ****       107.2500 159.2500 135.5000 Du        
  14627 ****       107.2500 159.2500 135.7500 Du        
  14628 ****       107.2500 159.2500 136.0000 Du        
  14629 ****       107.2500 159.2500 136.2500 Du        
  14630 ****       107.2500 159.2500 136.5000 Du        
  14631 ****       107.2500 159.2500 136.7500 Du        
  14632 ****       107.2500 159.2500 137.0000 Du        
  14633 ****       107.2500 159.2500 137.2500 Du        
  14634 ****       107.2500 159.2500 137.5000 Du        
  14635 ****       107.2500 159.2500 137.7500 Du        
  14636 ****       107.2500 159.2500 138.0000 Du        
  14637 ****       107.2500 159.5000 134.7500 Du        
  14638 ****       107.2500 159.5000 135.0000 Du        
  14639 ****       107.2500 159.5000 135.2500 Du        
  14640 ****       107.2500 159.5000 135.5000 Du        
  14641 ****       107.2500 159.5000 135.7500 Du        
  14642 ****       107.2500 159.5000 136.0000 Du        
  14643 ****       107.2500 159.5000 136.2500 Du        
  14644 ****       107.2500 159.5000 136.5000 Du        
  14645 ****       107.2500 159.5000 136.7500 Du        
  14646 ****       107.2500 159.5000 137.0000 Du        
  14647 ****       107.2500 159.5000 137.2500 Du        
  14648 ****       107.2500 159.5000 137.5000 Du        
  14649 ****       107.2500 159.5000 137.7500 Du        
  14650 ****       107.2500 159.7500 135.0000 Du        
  14651 ****       107.2500 159.7500 135.2500 Du        
  14652 ****       107.2500 159.7500 135.5000 Du        
  14653 ****       107.2500 159.7500 135.7500 Du        
  14654 ****       107.2500 159.7500 136.0000 Du        
  14655 ****       107.2500 159.7500 136.2500 Du        
  14656 ****       107.2500 159.7500 136.5000 Du        
  14657 ****       107.2500 159.7500 136.7500 Du        
  14658 ****       107.2500 159.7500 137.0000 Du        
  14659 ****       107.2500 159.7500 137.2500 Du        
  14660 ****       107.2500 159.7500 137.5000 Du        
  14661 ****       107.2500 159.7500 137.7500 Du        
  14662 ****       107.2500 160.0000 135.7500 Du        
  14663 ****       107.2500 160.0000 136.0000 Du        
  14664 ****       107.2500 160.0000 136.2500 Du        
  14665 ****       107.2500 160.0000 136.5000 Du        
  14666 ****       107.2500 160.0000 136.7500 Du        
  14667 ****       107.2500 160.0000 137.0000 Du        
  14668 ****       107.2500 160.0000 137.2500 Du        
  14669 ****       107.2500 160.0000 137.5000 Du        
  14670 ****       107.2500 160.0000 137.7500 Du        
  14671 ****       107.2500 160.0000 138.0000 Du        
  14672 ****       107.2500 160.2500 136.2500 Du        
  14673 ****       107.2500 160.2500 136.5000 Du        
  14674 ****       107.2500 160.2500 136.7500 Du        
  14675 ****       107.2500 160.2500 137.0000 Du        
  14676 ****       107.2500 160.2500 137.2500 Du        
  14677 ****       107.2500 160.2500 137.5000 Du        
  14678 ****       107.2500 160.2500 137.7500 Du        
  14679 ****       107.2500 160.2500 138.0000 Du        
  14680 ****       107.2500 160.5000 136.5000 Du        
  14681 ****       107.2500 160.5000 136.7500 Du        
  14682 ****       107.2500 160.5000 137.0000 Du        
  14683 ****       107.2500 160.5000 137.2500 Du        
  14684 ****       107.2500 160.5000 137.5000 Du        
  14685 ****       107.2500 160.5000 137.7500 Du        
  14686 ****       107.2500 160.5000 138.0000 Du        
  14687 ****       107.2500 160.7500 136.7500 Du        
  14688 ****       107.2500 160.7500 137.0000 Du        
  14689 ****       107.2500 160.7500 137.2500 Du        
  14690 ****       107.2500 160.7500 137.5000 Du        
  14691 ****       107.2500 160.7500 137.7500 Du        
  14692 ****       107.2500 160.7500 138.0000 Du        
  14693 ****       107.2500 161.0000 136.7500 Du        
  14694 ****       107.2500 161.0000 137.0000 Du        
  14695 ****       107.2500 161.0000 137.2500 Du        
  14696 ****       107.2500 161.0000 137.5000 Du        
  14697 ****       107.2500 161.0000 137.7500 Du        
  14698 ****       107.2500 161.0000 138.0000 Du        
  14699 ****       107.2500 161.0000 138.2500 Du        
  14700 ****       107.2500 161.2500 136.7500 Du        
  14701 ****       107.2500 161.2500 137.0000 Du        
  14702 ****       107.2500 161.2500 137.2500 Du        
  14703 ****       107.2500 161.2500 137.5000 Du        
  14704 ****       107.2500 161.2500 137.7500 Du        
  14705 ****       107.2500 161.2500 138.0000 Du        
  14706 ****       107.2500 161.2500 138.2500 Du        
  14707 ****       107.2500 161.5000 137.0000 Du        
  14708 ****       107.2500 161.5000 137.2500 Du        
  14709 ****       107.2500 161.5000 137.5000 Du        
  14710 ****       107.2500 161.5000 137.7500 Du        
  14711 ****       107.2500 161.5000 138.0000 Du        
  14712 ****       107.2500 161.5000 138.2500 Du        
  14713 ****       107.2500 161.5000 138.5000 Du        
  14714 ****       107.2500 161.7500 137.2500 Du        
  14715 ****       107.2500 161.7500 137.5000 Du        
  14716 ****       107.2500 161.7500 137.7500 Du        
  14717 ****       107.2500 161.7500 138.0000 Du        
  14718 ****       107.2500 161.7500 138.2500 Du        
  14719 ****       107.2500 161.7500 138.5000 Du        
  14720 ****       107.2500 161.7500 138.7500 Du        
  14721 ****       107.2500 162.0000 137.2500 Du        
  14722 ****       107.2500 162.0000 137.5000 Du        
  14723 ****       107.2500 162.0000 137.7500 Du        
  14724 ****       107.2500 162.0000 138.0000 Du        
  14725 ****       107.2500 162.0000 138.2500 Du        
  14726 ****       107.2500 162.0000 138.5000 Du        
  14727 ****       107.2500 162.0000 138.7500 Du        
  14728 ****       107.2500 162.0000 139.0000 Du        
  14729 ****       107.2500 162.2500 137.5000 Du        
  14730 ****       107.2500 162.2500 137.7500 Du        
  14731 ****       107.2500 162.2500 138.0000 Du        
  14732 ****       107.2500 162.2500 138.2500 Du        
  14733 ****       107.2500 162.2500 138.5000 Du        
  14734 ****       107.2500 162.2500 138.7500 Du        
  14735 ****       107.2500 162.2500 139.0000 Du        
  14736 ****       107.2500 162.5000 138.0000 Du        
  14737 ****       107.2500 162.5000 138.2500 Du        
  14738 ****       107.5000 155.2500 130.0000 Du        
  14739 ****       107.5000 155.2500 130.2500 Du        
  14740 ****       107.5000 155.5000 129.0000 Du        
  14741 ****       107.5000 155.5000 129.2500 Du        
  14742 ****       107.5000 155.5000 129.5000 Du        
  14743 ****       107.5000 155.5000 129.7500 Du        
  14744 ****       107.5000 155.5000 130.0000 Du        
  14745 ****       107.5000 155.5000 130.2500 Du        
  14746 ****       107.5000 155.5000 130.5000 Du        
  14747 ****       107.5000 155.7500 128.5000 Du        
  14748 ****       107.5000 155.7500 128.7500 Du        
  14749 ****       107.5000 155.7500 129.0000 Du        
  14750 ****       107.5000 155.7500 129.2500 Du        
  14751 ****       107.5000 155.7500 129.5000 Du        
  14752 ****       107.5000 155.7500 129.7500 Du        
  14753 ****       107.5000 155.7500 130.0000 Du        
  14754 ****       107.5000 155.7500 130.2500 Du        
  14755 ****       107.5000 155.7500 130.5000 Du        
  14756 ****       107.5000 156.0000 128.5000 Du        
  14757 ****       107.5000 156.0000 128.7500 Du        
  14758 ****       107.5000 156.0000 129.0000 Du        
  14759 ****       107.5000 156.0000 129.2500 Du        
  14760 ****       107.5000 156.0000 129.5000 Du        
  14761 ****       107.5000 156.0000 129.7500 Du        
  14762 ****       107.5000 156.0000 130.0000 Du        
  14763 ****       107.5000 156.0000 130.2500 Du        
  14764 ****       107.5000 156.0000 130.5000 Du        
  14765 ****       107.5000 156.0000 130.7500 Du        
  14766 ****       107.5000 156.2500 128.2500 Du        
  14767 ****       107.5000 156.2500 128.5000 Du        
  14768 ****       107.5000 156.2500 128.7500 Du        
  14769 ****       107.5000 156.2500 129.0000 Du        
  14770 ****       107.5000 156.2500 129.2500 Du        
  14771 ****       107.5000 156.2500 129.5000 Du        
  14772 ****       107.5000 156.2500 129.7500 Du        
  14773 ****       107.5000 156.2500 130.0000 Du        
  14774 ****       107.5000 156.2500 130.2500 Du        
  14775 ****       107.5000 156.2500 130.5000 Du        
  14776 ****       107.5000 156.2500 130.7500 Du        
  14777 ****       107.5000 156.2500 139.5000 Du        
  14778 ****       107.5000 156.2500 139.7500 Du        
  14779 ****       107.5000 156.2500 140.0000 Du        
  14780 ****       107.5000 156.2500 140.2500 Du        
  14781 ****       107.5000 156.2500 140.5000 Du        
  14782 ****       107.5000 156.2500 140.7500 Du        
  14783 ****       107.5000 156.5000 128.2500 Du        
  14784 ****       107.5000 156.5000 128.5000 Du        
  14785 ****       107.5000 156.5000 128.7500 Du        
  14786 ****       107.5000 156.5000 129.0000 Du        
  14787 ****       107.5000 156.5000 129.2500 Du        
  14788 ****       107.5000 156.5000 129.5000 Du        
  14789 ****       107.5000 156.5000 129.7500 Du        
  14790 ****       107.5000 156.5000 130.0000 Du        
  14791 ****       107.5000 156.5000 130.2500 Du        
  14792 ****       107.5000 156.5000 130.5000 Du        
  14793 ****       107.5000 156.5000 130.7500 Du        
  14794 ****       107.5000 156.5000 131.0000 Du        
  14795 ****       107.5000 156.5000 139.0000 Du        
  14796 ****       107.5000 156.5000 139.2500 Du        
  14797 ****       107.5000 156.5000 139.5000 Du        
  14798 ****       107.5000 156.5000 139.7500 Du        
  14799 ****       107.5000 156.5000 140.0000 Du        
  14800 ****       107.5000 156.5000 140.2500 Du        
  14801 ****       107.5000 156.5000 140.5000 Du        
  14802 ****       107.5000 156.5000 140.7500 Du        
  14803 ****       107.5000 156.7500 128.0000 Du        
  14804 ****       107.5000 156.7500 128.2500 Du        
  14805 ****       107.5000 156.7500 128.5000 Du        
  14806 ****       107.5000 156.7500 128.7500 Du        
  14807 ****       107.5000 156.7500 129.0000 Du        
  14808 ****       107.5000 156.7500 129.2500 Du        
  14809 ****       107.5000 156.7500 129.5000 Du        
  14810 ****       107.5000 156.7500 129.7500 Du        
  14811 ****       107.5000 156.7500 130.0000 Du        
  14812 ****       107.5000 156.7500 130.2500 Du        
  14813 ****       107.5000 156.7500 130.5000 Du        
  14814 ****       107.5000 156.7500 130.7500 Du        
  14815 ****       107.5000 156.7500 131.0000 Du        
  14816 ****       107.5000 156.7500 138.5000 Du        
  14817 ****       107.5000 156.7500 138.7500 Du        
  14818 ****       107.5000 156.7500 139.0000 Du        
  14819 ****       107.5000 156.7500 139.2500 Du        
  14820 ****       107.5000 156.7500 139.5000 Du        
  14821 ****       107.5000 156.7500 139.7500 Du        
  14822 ****       107.5000 156.7500 140.0000 Du        
  14823 ****       107.5000 156.7500 140.2500 Du        
  14824 ****       107.5000 156.7500 140.5000 Du        
  14825 ****       107.5000 156.7500 140.7500 Du        
  14826 ****       107.5000 157.0000 127.7500 Du        
  14827 ****       107.5000 157.0000 128.0000 Du        
  14828 ****       107.5000 157.0000 128.2500 Du        
  14829 ****       107.5000 157.0000 128.5000 Du        
  14830 ****       107.5000 157.0000 128.7500 Du        
  14831 ****       107.5000 157.0000 129.0000 Du        
  14832 ****       107.5000 157.0000 129.2500 Du        
  14833 ****       107.5000 157.0000 129.5000 Du        
  14834 ****       107.5000 157.0000 129.7500 Du        
  14835 ****       107.5000 157.0000 130.0000 Du        
  14836 ****       107.5000 157.0000 130.2500 Du        
  14837 ****       107.5000 157.0000 130.5000 Du        
  14838 ****       107.5000 157.0000 130.7500 Du        
  14839 ****       107.5000 157.0000 131.0000 Du        
  14840 ****       107.5000 157.0000 131.2500 Du        
  14841 ****       107.5000 157.0000 138.2500 Du        
  14842 ****       107.5000 157.0000 138.5000 Du        
  14843 ****       107.5000 157.0000 138.7500 Du        
  14844 ****       107.5000 157.0000 139.0000 Du        
  14845 ****       107.5000 157.0000 139.2500 Du        
  14846 ****       107.5000 157.0000 139.5000 Du        
  14847 ****       107.5000 157.0000 139.7500 Du        
  14848 ****       107.5000 157.0000 140.0000 Du        
  14849 ****       107.5000 157.0000 140.2500 Du        
  14850 ****       107.5000 157.0000 140.5000 Du        
  14851 ****       107.5000 157.0000 140.7500 Du        
  14852 ****       107.5000 157.2500 127.7500 Du        
  14853 ****       107.5000 157.2500 128.0000 Du        
  14854 ****       107.5000 157.2500 128.2500 Du        
  14855 ****       107.5000 157.2500 128.5000 Du        
  14856 ****       107.5000 157.2500 128.7500 Du        
  14857 ****       107.5000 157.2500 129.0000 Du        
  14858 ****       107.5000 157.2500 129.2500 Du        
  14859 ****       107.5000 157.2500 129.5000 Du        
  14860 ****       107.5000 157.2500 129.7500 Du        
  14861 ****       107.5000 157.2500 130.0000 Du        
  14862 ****       107.5000 157.2500 130.2500 Du        
  14863 ****       107.5000 157.2500 130.5000 Du        
  14864 ****       107.5000 157.2500 130.7500 Du        
  14865 ****       107.5000 157.2500 131.0000 Du        
  14866 ****       107.5000 157.2500 131.2500 Du        
  14867 ****       107.5000 157.2500 137.7500 Du        
  14868 ****       107.5000 157.2500 138.0000 Du        
  14869 ****       107.5000 157.2500 138.2500 Du        
  14870 ****       107.5000 157.2500 138.5000 Du        
  14871 ****       107.5000 157.2500 138.7500 Du        
  14872 ****       107.5000 157.2500 139.0000 Du        
  14873 ****       107.5000 157.2500 139.2500 Du        
  14874 ****       107.5000 157.2500 139.5000 Du        
  14875 ****       107.5000 157.2500 139.7500 Du        
  14876 ****       107.5000 157.2500 140.0000 Du        
  14877 ****       107.5000 157.2500 140.2500 Du        
  14878 ****       107.5000 157.2500 140.5000 Du        
  14879 ****       107.5000 157.5000 127.7500 Du        
  14880 ****       107.5000 157.5000 128.0000 Du        
  14881 ****       107.5000 157.5000 128.2500 Du        
  14882 ****       107.5000 157.5000 128.5000 Du        
  14883 ****       107.5000 157.5000 128.7500 Du        
  14884 ****       107.5000 157.5000 129.0000 Du        
  14885 ****       107.5000 157.5000 129.2500 Du        
  14886 ****       107.5000 157.5000 129.5000 Du        
  14887 ****       107.5000 157.5000 129.7500 Du        
  14888 ****       107.5000 157.5000 130.0000 Du        
  14889 ****       107.5000 157.5000 130.2500 Du        
  14890 ****       107.5000 157.5000 130.5000 Du        
  14891 ****       107.5000 157.5000 130.7500 Du        
  14892 ****       107.5000 157.5000 131.0000 Du        
  14893 ****       107.5000 157.5000 131.2500 Du        
  14894 ****       107.5000 157.5000 137.5000 Du        
  14895 ****       107.5000 157.5000 137.7500 Du        
  14896 ****       107.5000 157.5000 138.0000 Du        
  14897 ****       107.5000 157.5000 138.2500 Du        
  14898 ****       107.5000 157.5000 138.5000 Du        
  14899 ****       107.5000 157.5000 138.7500 Du        
  14900 ****       107.5000 157.5000 139.0000 Du        
  14901 ****       107.5000 157.5000 139.2500 Du        
  14902 ****       107.5000 157.5000 139.5000 Du        
  14903 ****       107.5000 157.5000 139.7500 Du        
  14904 ****       107.5000 157.5000 140.0000 Du        
  14905 ****       107.5000 157.5000 140.2500 Du        
  14906 ****       107.5000 157.7500 127.7500 Du        
  14907 ****       107.5000 157.7500 128.0000 Du        
  14908 ****       107.5000 157.7500 128.2500 Du        
  14909 ****       107.5000 157.7500 128.5000 Du        
  14910 ****       107.5000 157.7500 128.7500 Du        
  14911 ****       107.5000 157.7500 129.0000 Du        
  14912 ****       107.5000 157.7500 129.2500 Du        
  14913 ****       107.5000 157.7500 129.5000 Du        
  14914 ****       107.5000 157.7500 129.7500 Du        
  14915 ****       107.5000 157.7500 130.0000 Du        
  14916 ****       107.5000 157.7500 130.2500 Du        
  14917 ****       107.5000 157.7500 130.5000 Du        
  14918 ****       107.5000 157.7500 130.7500 Du        
  14919 ****       107.5000 157.7500 131.0000 Du        
  14920 ****       107.5000 157.7500 131.2500 Du        
  14921 ****       107.5000 157.7500 137.2500 Du        
  14922 ****       107.5000 157.7500 137.5000 Du        
  14923 ****       107.5000 157.7500 137.7500 Du        
  14924 ****       107.5000 157.7500 138.0000 Du        
  14925 ****       107.5000 157.7500 138.2500 Du        
  14926 ****       107.5000 157.7500 138.5000 Du        
  14927 ****       107.5000 157.7500 138.7500 Du        
  14928 ****       107.5000 157.7500 139.0000 Du        
  14929 ****       107.5000 157.7500 139.2500 Du        
  14930 ****       107.5000 157.7500 139.5000 Du        
  14931 ****       107.5000 157.7500 139.7500 Du        
  14932 ****       107.5000 157.7500 140.0000 Du        
  14933 ****       107.5000 158.0000 128.0000 Du        
  14934 ****       107.5000 158.0000 128.2500 Du        
  14935 ****       107.5000 158.0000 128.5000 Du        
  14936 ****       107.5000 158.0000 128.7500 Du        
  14937 ****       107.5000 158.0000 129.0000 Du        
  14938 ****       107.5000 158.0000 129.2500 Du        
  14939 ****       107.5000 158.0000 129.5000 Du        
  14940 ****       107.5000 158.0000 129.7500 Du        
  14941 ****       107.5000 158.0000 130.0000 Du        
  14942 ****       107.5000 158.0000 130.2500 Du        
  14943 ****       107.5000 158.0000 130.5000 Du        
  14944 ****       107.5000 158.0000 130.7500 Du        
  14945 ****       107.5000 158.0000 131.0000 Du        
  14946 ****       107.5000 158.0000 137.0000 Du        
  14947 ****       107.5000 158.0000 137.2500 Du        
  14948 ****       107.5000 158.0000 137.5000 Du        
  14949 ****       107.5000 158.0000 137.7500 Du        
  14950 ****       107.5000 158.0000 138.0000 Du        
  14951 ****       107.5000 158.0000 138.2500 Du        
  14952 ****       107.5000 158.0000 138.5000 Du        
  14953 ****       107.5000 158.0000 138.7500 Du        
  14954 ****       107.5000 158.0000 139.0000 Du        
  14955 ****       107.5000 158.0000 139.2500 Du        
  14956 ****       107.5000 158.0000 139.5000 Du        
  14957 ****       107.5000 158.0000 139.7500 Du        
  14958 ****       107.5000 158.2500 128.5000 Du        
  14959 ****       107.5000 158.2500 128.7500 Du        
  14960 ****       107.5000 158.2500 129.0000 Du        
  14961 ****       107.5000 158.2500 129.2500 Du        
  14962 ****       107.5000 158.2500 129.5000 Du        
  14963 ****       107.5000 158.2500 129.7500 Du        
  14964 ****       107.5000 158.2500 130.0000 Du        
  14965 ****       107.5000 158.2500 130.2500 Du        
  14966 ****       107.5000 158.2500 130.5000 Du        
  14967 ****       107.5000 158.2500 136.7500 Du        
  14968 ****       107.5000 158.2500 137.0000 Du        
  14969 ****       107.5000 158.2500 137.2500 Du        
  14970 ****       107.5000 158.2500 137.5000 Du        
  14971 ****       107.5000 158.2500 137.7500 Du        
  14972 ****       107.5000 158.2500 138.0000 Du        
  14973 ****       107.5000 158.2500 138.2500 Du        
  14974 ****       107.5000 158.2500 138.7500 Du        
  14975 ****       107.5000 158.5000 129.0000 Du        
  14976 ****       107.5000 158.5000 129.2500 Du        
  14977 ****       107.5000 158.5000 129.5000 Du        
  14978 ****       107.5000 158.5000 129.7500 Du        
  14979 ****       107.5000 158.5000 130.0000 Du        
  14980 ****       107.5000 158.5000 130.2500 Du        
  14981 ****       107.5000 158.5000 136.2500 Du        
  14982 ****       107.5000 158.5000 136.5000 Du        
  14983 ****       107.5000 158.5000 136.7500 Du        
  14984 ****       107.5000 158.5000 137.0000 Du        
  14985 ****       107.5000 158.5000 137.2500 Du        
  14986 ****       107.5000 158.5000 137.5000 Du        
  14987 ****       107.5000 158.5000 137.7500 Du        
  14988 ****       107.5000 158.5000 138.0000 Du        
  14989 ****       107.5000 158.7500 129.5000 Du        
  14990 ****       107.5000 158.7500 129.7500 Du        
  14991 ****       107.5000 158.7500 130.0000 Du        
  14992 ****       107.5000 158.7500 130.2500 Du        
  14993 ****       107.5000 158.7500 134.7500 Du        
  14994 ****       107.5000 158.7500 135.0000 Du        
  14995 ****       107.5000 158.7500 135.2500 Du        
  14996 ****       107.5000 158.7500 135.5000 Du        
  14997 ****       107.5000 158.7500 135.7500 Du        
  14998 ****       107.5000 158.7500 136.0000 Du        
  14999 ****       107.5000 158.7500 136.2500 Du        
  15000 ****       107.5000 158.7500 136.5000 Du        
  15001 ****       107.5000 158.7500 136.7500 Du        
  15002 ****       107.5000 158.7500 137.0000 Du        
  15003 ****       107.5000 158.7500 137.2500 Du        
  15004 ****       107.5000 158.7500 137.5000 Du        
  15005 ****       107.5000 158.7500 137.7500 Du        
  15006 ****       107.5000 158.7500 138.0000 Du        
  15007 ****       107.5000 159.0000 129.7500 Du        
  15008 ****       107.5000 159.0000 130.0000 Du        
  15009 ****       107.5000 159.0000 134.7500 Du        
  15010 ****       107.5000 159.0000 135.0000 Du        
  15011 ****       107.5000 159.0000 135.2500 Du        
  15012 ****       107.5000 159.0000 135.5000 Du        
  15013 ****       107.5000 159.0000 135.7500 Du        
  15014 ****       107.5000 159.0000 136.0000 Du        
  15015 ****       107.5000 159.0000 136.2500 Du        
  15016 ****       107.5000 159.0000 136.5000 Du        
  15017 ****       107.5000 159.0000 136.7500 Du        
  15018 ****       107.5000 159.0000 137.0000 Du        
  15019 ****       107.5000 159.0000 137.2500 Du        
  15020 ****       107.5000 159.0000 137.5000 Du        
  15021 ****       107.5000 159.0000 137.7500 Du        
  15022 ****       107.5000 159.2500 134.7500 Du        
  15023 ****       107.5000 159.2500 135.0000 Du        
  15024 ****       107.5000 159.2500 135.2500 Du        
  15025 ****       107.5000 159.2500 135.5000 Du        
  15026 ****       107.5000 159.2500 135.7500 Du        
  15027 ****       107.5000 159.2500 136.0000 Du        
  15028 ****       107.5000 159.2500 136.2500 Du        
  15029 ****       107.5000 159.2500 136.5000 Du        
  15030 ****       107.5000 159.2500 136.7500 Du        
  15031 ****       107.5000 159.2500 137.0000 Du        
  15032 ****       107.5000 159.2500 137.2500 Du        
  15033 ****       107.5000 159.2500 137.5000 Du        
  15034 ****       107.5000 159.5000 135.0000 Du        
  15035 ****       107.5000 159.5000 135.2500 Du        
  15036 ****       107.5000 159.5000 135.5000 Du        
  15037 ****       107.5000 159.5000 135.7500 Du        
  15038 ****       107.5000 159.5000 136.0000 Du        
  15039 ****       107.5000 159.5000 136.2500 Du        
  15040 ****       107.5000 159.5000 136.5000 Du        
  15041 ****       107.5000 159.5000 136.7500 Du        
  15042 ****       107.5000 159.5000 137.0000 Du        
  15043 ****       107.5000 159.5000 137.2500 Du        
  15044 ****       107.5000 159.5000 137.5000 Du        
  15045 ****       107.5000 159.7500 135.0000 Du        
  15046 ****       107.5000 159.7500 135.2500 Du        
  15047 ****       107.5000 159.7500 135.5000 Du        
  15048 ****       107.5000 159.7500 135.7500 Du        
  15049 ****       107.5000 159.7500 136.0000 Du        
  15050 ****       107.5000 159.7500 136.2500 Du        
  15051 ****       107.5000 159.7500 136.5000 Du        
  15052 ****       107.5000 159.7500 136.7500 Du        
  15053 ****       107.5000 159.7500 137.0000 Du        
  15054 ****       107.5000 159.7500 137.2500 Du        
  15055 ****       107.5000 159.7500 137.5000 Du        
  15056 ****       107.5000 160.0000 135.2500 Du        
  15057 ****       107.5000 160.0000 135.5000 Du        
  15058 ****       107.5000 160.0000 135.7500 Du        
  15059 ****       107.5000 160.0000 136.0000 Du        
  15060 ****       107.5000 160.0000 136.2500 Du        
  15061 ****       107.5000 160.0000 136.5000 Du        
  15062 ****       107.5000 160.0000 136.7500 Du        
  15063 ****       107.5000 160.0000 137.0000 Du        
  15064 ****       107.5000 160.0000 137.2500 Du        
  15065 ****       107.5000 160.0000 137.5000 Du        
  15066 ****       107.5000 160.0000 137.7500 Du        
  15067 ****       107.5000 160.2500 135.2500 Du        
  15068 ****       107.5000 160.2500 135.5000 Du        
  15069 ****       107.5000 160.2500 135.7500 Du        
  15070 ****       107.5000 160.2500 136.0000 Du        
  15071 ****       107.5000 160.2500 136.2500 Du        
  15072 ****       107.5000 160.2500 136.5000 Du        
  15073 ****       107.5000 160.2500 136.7500 Du        
  15074 ****       107.5000 160.2500 137.0000 Du        
  15075 ****       107.5000 160.2500 137.2500 Du        
  15076 ****       107.5000 160.2500 137.5000 Du        
  15077 ****       107.5000 160.2500 137.7500 Du        
  15078 ****       107.5000 160.2500 138.0000 Du        
  15079 ****       107.5000 160.5000 135.7500 Du        
  15080 ****       107.5000 160.5000 136.0000 Du        
  15081 ****       107.5000 160.5000 136.2500 Du        
  15082 ****       107.5000 160.5000 136.5000 Du        
  15083 ****       107.5000 160.5000 136.7500 Du        
  15084 ****       107.5000 160.5000 137.0000 Du        
  15085 ****       107.5000 160.5000 137.2500 Du        
  15086 ****       107.5000 160.5000 137.5000 Du        
  15087 ****       107.5000 160.5000 137.7500 Du        
  15088 ****       107.5000 160.5000 138.0000 Du        
  15089 ****       107.5000 160.7500 136.0000 Du        
  15090 ****       107.5000 160.7500 136.2500 Du        
  15091 ****       107.5000 160.7500 136.5000 Du        
  15092 ****       107.5000 160.7500 136.7500 Du        
  15093 ****       107.5000 160.7500 137.0000 Du        
  15094 ****       107.5000 160.7500 137.2500 Du        
  15095 ****       107.5000 160.7500 137.5000 Du        
  15096 ****       107.5000 160.7500 137.7500 Du        
  15097 ****       107.5000 160.7500 138.0000 Du        
  15098 ****       107.5000 160.7500 138.2500 Du        
  15099 ****       107.5000 161.0000 136.2500 Du        
  15100 ****       107.5000 161.0000 136.5000 Du        
  15101 ****       107.5000 161.0000 136.7500 Du        
  15102 ****       107.5000 161.0000 137.0000 Du        
  15103 ****       107.5000 161.0000 137.2500 Du        
  15104 ****       107.5000 161.0000 137.5000 Du        
  15105 ****       107.5000 161.0000 137.7500 Du        
  15106 ****       107.5000 161.0000 138.0000 Du        
  15107 ****       107.5000 161.0000 138.2500 Du        
  15108 ****       107.5000 161.2500 136.7500 Du        
  15109 ****       107.5000 161.2500 137.0000 Du        
  15110 ****       107.5000 161.2500 137.2500 Du        
  15111 ****       107.5000 161.2500 137.5000 Du        
  15112 ****       107.5000 161.2500 137.7500 Du        
  15113 ****       107.5000 161.2500 138.0000 Du        
  15114 ****       107.5000 161.2500 138.2500 Du        
  15115 ****       107.5000 161.5000 137.0000 Du        
  15116 ****       107.5000 161.5000 137.2500 Du        
  15117 ****       107.5000 161.5000 137.5000 Du        
  15118 ****       107.5000 161.5000 137.7500 Du        
  15119 ****       107.5000 161.5000 138.0000 Du        
  15120 ****       107.5000 161.5000 138.2500 Du        
  15121 ****       107.5000 161.5000 138.5000 Du        
  15122 ****       107.5000 161.7500 137.2500 Du        
  15123 ****       107.5000 161.7500 137.5000 Du        
  15124 ****       107.5000 161.7500 137.7500 Du        
  15125 ****       107.5000 161.7500 138.0000 Du        
  15126 ****       107.5000 161.7500 138.2500 Du        
  15127 ****       107.5000 161.7500 138.5000 Du        
  15128 ****       107.5000 161.7500 138.7500 Du        
  15129 ****       107.5000 162.0000 137.5000 Du        
  15130 ****       107.5000 162.0000 137.7500 Du        
  15131 ****       107.5000 162.0000 138.0000 Du        
  15132 ****       107.5000 162.0000 138.2500 Du        
  15133 ****       107.5000 162.0000 138.5000 Du        
  15134 ****       107.5000 162.2500 137.7500 Du        
  15135 ****       107.5000 162.2500 138.0000 Du        
  15136 ****       107.5000 162.2500 138.2500 Du        
  15137 ****       107.7500 149.5000 145.2500 Du        
  15138 ****       107.7500 149.7500 145.0000 Du        
  15139 ****       107.7500 150.0000 144.7500 Du        
  15140 ****       107.7500 150.0000 145.0000 Du        
  15141 ****       107.7500 155.2500 130.0000 Du        
  15142 ****       107.7500 155.2500 130.2500 Du        
  15143 ****       107.7500 155.5000 129.0000 Du        
  15144 ****       107.7500 155.5000 129.2500 Du        
  15145 ****       107.7500 155.5000 129.5000 Du        
  15146 ****       107.7500 155.5000 129.7500 Du        
  15147 ****       107.7500 155.5000 130.0000 Du        
  15148 ****       107.7500 155.5000 130.2500 Du        
  15149 ****       107.7500 155.5000 130.5000 Du        
  15150 ****       107.7500 155.7500 128.7500 Du        
  15151 ****       107.7500 155.7500 129.0000 Du        
  15152 ****       107.7500 155.7500 129.2500 Du        
  15153 ****       107.7500 155.7500 129.5000 Du        
  15154 ****       107.7500 155.7500 129.7500 Du        
  15155 ****       107.7500 155.7500 130.0000 Du        
  15156 ****       107.7500 155.7500 130.2500 Du        
  15157 ****       107.7500 155.7500 130.5000 Du        
  15158 ****       107.7500 155.7500 140.2500 Du        
  15159 ****       107.7500 156.0000 128.5000 Du        
  15160 ****       107.7500 156.0000 128.7500 Du        
  15161 ****       107.7500 156.0000 129.0000 Du        
  15162 ****       107.7500 156.0000 129.2500 Du        
  15163 ****       107.7500 156.0000 129.5000 Du        
  15164 ****       107.7500 156.0000 129.7500 Du        
  15165 ****       107.7500 156.0000 130.0000 Du        
  15166 ****       107.7500 156.0000 130.2500 Du        
  15167 ****       107.7500 156.0000 130.5000 Du        
  15168 ****       107.7500 156.0000 130.7500 Du        
  15169 ****       107.7500 156.0000 139.7500 Du        
  15170 ****       107.7500 156.0000 140.0000 Du        
  15171 ****       107.7500 156.0000 140.2500 Du        
  15172 ****       107.7500 156.0000 140.5000 Du        
  15173 ****       107.7500 156.0000 140.7500 Du        
  15174 ****       107.7500 156.0000 141.0000 Du        
  15175 ****       107.7500 156.2500 128.5000 Du        
  15176 ****       107.7500 156.2500 128.7500 Du        
  15177 ****       107.7500 156.2500 129.0000 Du        
  15178 ****       107.7500 156.2500 129.2500 Du        
  15179 ****       107.7500 156.2500 129.5000 Du        
  15180 ****       107.7500 156.2500 129.7500 Du        
  15181 ****       107.7500 156.2500 130.0000 Du        
  15182 ****       107.7500 156.2500 130.2500 Du        
  15183 ****       107.7500 156.2500 130.5000 Du        
  15184 ****       107.7500 156.2500 130.7500 Du        
  15185 ****       107.7500 156.2500 139.2500 Du        
  15186 ****       107.7500 156.2500 139.5000 Du        
  15187 ****       107.7500 156.2500 139.7500 Du        
  15188 ****       107.7500 156.2500 140.0000 Du        
  15189 ****       107.7500 156.2500 140.2500 Du        
  15190 ****       107.7500 156.2500 140.5000 Du        
  15191 ****       107.7500 156.2500 140.7500 Du        
  15192 ****       107.7500 156.2500 141.0000 Du        
  15193 ****       107.7500 156.2500 141.2500 Du        
  15194 ****       107.7500 156.5000 128.2500 Du        
  15195 ****       107.7500 156.5000 128.5000 Du        
  15196 ****       107.7500 156.5000 128.7500 Du        
  15197 ****       107.7500 156.5000 129.0000 Du        
  15198 ****       107.7500 156.5000 129.2500 Du        
  15199 ****       107.7500 156.5000 129.5000 Du        
  15200 ****       107.7500 156.5000 129.7500 Du        
  15201 ****       107.7500 156.5000 130.0000 Du        
  15202 ****       107.7500 156.5000 130.2500 Du        
  15203 ****       107.7500 156.5000 130.5000 Du        
  15204 ****       107.7500 156.5000 130.7500 Du        
  15205 ****       107.7500 156.5000 131.0000 Du        
  15206 ****       107.7500 156.5000 139.0000 Du        
  15207 ****       107.7500 156.5000 139.2500 Du        
  15208 ****       107.7500 156.5000 139.5000 Du        
  15209 ****       107.7500 156.5000 139.7500 Du        
  15210 ****       107.7500 156.5000 140.0000 Du        
  15211 ****       107.7500 156.5000 140.2500 Du        
  15212 ****       107.7500 156.5000 140.5000 Du        
  15213 ****       107.7500 156.5000 140.7500 Du        
  15214 ****       107.7500 156.5000 141.0000 Du        
  15215 ****       107.7500 156.7500 128.0000 Du        
  15216 ****       107.7500 156.7500 128.2500 Du        
  15217 ****       107.7500 156.7500 128.5000 Du        
  15218 ****       107.7500 156.7500 128.7500 Du        
  15219 ****       107.7500 156.7500 129.0000 Du        
  15220 ****       107.7500 156.7500 129.2500 Du        
  15221 ****       107.7500 156.7500 129.5000 Du        
  15222 ****       107.7500 156.7500 129.7500 Du        
  15223 ****       107.7500 156.7500 130.0000 Du        
  15224 ****       107.7500 156.7500 130.2500 Du        
  15225 ****       107.7500 156.7500 130.5000 Du        
  15226 ****       107.7500 156.7500 130.7500 Du        
  15227 ****       107.7500 156.7500 131.0000 Du        
  15228 ****       107.7500 156.7500 138.5000 Du        
  15229 ****       107.7500 156.7500 138.7500 Du        
  15230 ****       107.7500 156.7500 139.0000 Du        
  15231 ****       107.7500 156.7500 139.2500 Du        
  15232 ****       107.7500 156.7500 139.5000 Du        
  15233 ****       107.7500 156.7500 139.7500 Du        
  15234 ****       107.7500 156.7500 140.0000 Du        
  15235 ****       107.7500 156.7500 140.2500 Du        
  15236 ****       107.7500 156.7500 140.5000 Du        
  15237 ****       107.7500 156.7500 140.7500 Du        
  15238 ****       107.7500 157.0000 128.0000 Du        
  15239 ****       107.7500 157.0000 128.2500 Du        
  15240 ****       107.7500 157.0000 128.5000 Du        
  15241 ****       107.7500 157.0000 128.7500 Du        
  15242 ****       107.7500 157.0000 129.0000 Du        
  15243 ****       107.7500 157.0000 129.2500 Du        
  15244 ****       107.7500 157.0000 129.5000 Du        
  15245 ****       107.7500 157.0000 129.7500 Du        
  15246 ****       107.7500 157.0000 130.0000 Du        
  15247 ****       107.7500 157.0000 130.2500 Du        
  15248 ****       107.7500 157.0000 130.5000 Du        
  15249 ****       107.7500 157.0000 130.7500 Du        
  15250 ****       107.7500 157.0000 131.0000 Du        
  15251 ****       107.7500 157.0000 131.2500 Du        
  15252 ****       107.7500 157.0000 138.2500 Du        
  15253 ****       107.7500 157.0000 138.5000 Du        
  15254 ****       107.7500 157.0000 138.7500 Du        
  15255 ****       107.7500 157.0000 139.0000 Du        
  15256 ****       107.7500 157.0000 139.2500 Du        
  15257 ****       107.7500 157.0000 139.5000 Du        
  15258 ****       107.7500 157.0000 139.7500 Du        
  15259 ****       107.7500 157.0000 140.0000 Du        
  15260 ****       107.7500 157.0000 140.2500 Du        
  15261 ****       107.7500 157.0000 140.5000 Du        
  15262 ****       107.7500 157.0000 140.7500 Du        
  15263 ****       107.7500 157.2500 127.7500 Du        
  15264 ****       107.7500 157.2500 128.0000 Du        
  15265 ****       107.7500 157.2500 128.2500 Du        
  15266 ****       107.7500 157.2500 128.5000 Du        
  15267 ****       107.7500 157.2500 128.7500 Du        
  15268 ****       107.7500 157.2500 129.0000 Du        
  15269 ****       107.7500 157.2500 129.2500 Du        
  15270 ****       107.7500 157.2500 129.5000 Du        
  15271 ****       107.7500 157.2500 129.7500 Du        
  15272 ****       107.7500 157.2500 130.0000 Du        
  15273 ****       107.7500 157.2500 130.2500 Du        
  15274 ****       107.7500 157.2500 130.5000 Du        
  15275 ****       107.7500 157.2500 130.7500 Du        
  15276 ****       107.7500 157.2500 131.0000 Du        
  15277 ****       107.7500 157.2500 131.2500 Du        
  15278 ****       107.7500 157.2500 138.0000 Du        
  15279 ****       107.7500 157.2500 138.2500 Du        
  15280 ****       107.7500 157.2500 138.5000 Du        
  15281 ****       107.7500 157.2500 138.7500 Du        
  15282 ****       107.7500 157.2500 139.0000 Du        
  15283 ****       107.7500 157.2500 139.2500 Du        
  15284 ****       107.7500 157.2500 139.5000 Du        
  15285 ****       107.7500 157.2500 139.7500 Du        
  15286 ****       107.7500 157.2500 140.0000 Du        
  15287 ****       107.7500 157.2500 140.2500 Du        
  15288 ****       107.7500 157.5000 127.7500 Du        
  15289 ****       107.7500 157.5000 128.0000 Du        
  15290 ****       107.7500 157.5000 128.2500 Du        
  15291 ****       107.7500 157.5000 128.5000 Du        
  15292 ****       107.7500 157.5000 128.7500 Du        
  15293 ****       107.7500 157.5000 129.0000 Du        
  15294 ****       107.7500 157.5000 129.2500 Du        
  15295 ****       107.7500 157.5000 129.5000 Du        
  15296 ****       107.7500 157.5000 129.7500 Du        
  15297 ****       107.7500 157.5000 130.0000 Du        
  15298 ****       107.7500 157.5000 130.2500 Du        
  15299 ****       107.7500 157.5000 130.5000 Du        
  15300 ****       107.7500 157.5000 130.7500 Du        
  15301 ****       107.7500 157.5000 131.0000 Du        
  15302 ****       107.7500 157.5000 131.2500 Du        
  15303 ****       107.7500 157.5000 137.7500 Du        
  15304 ****       107.7500 157.5000 138.0000 Du        
  15305 ****       107.7500 157.5000 138.2500 Du        
  15306 ****       107.7500 157.5000 138.5000 Du        
  15307 ****       107.7500 157.5000 138.7500 Du        
  15308 ****       107.7500 157.5000 139.0000 Du        
  15309 ****       107.7500 157.5000 139.2500 Du        
  15310 ****       107.7500 157.5000 139.5000 Du        
  15311 ****       107.7500 157.5000 139.7500 Du        
  15312 ****       107.7500 157.5000 140.0000 Du        
  15313 ****       107.7500 157.5000 140.2500 Du        
  15314 ****       107.7500 157.7500 127.7500 Du        
  15315 ****       107.7500 157.7500 128.0000 Du        
  15316 ****       107.7500 157.7500 128.2500 Du        
  15317 ****       107.7500 157.7500 128.5000 Du        
  15318 ****       107.7500 157.7500 128.7500 Du        
  15319 ****       107.7500 157.7500 129.0000 Du        
  15320 ****       107.7500 157.7500 129.2500 Du        
  15321 ****       107.7500 157.7500 129.5000 Du        
  15322 ****       107.7500 157.7500 129.7500 Du        
  15323 ****       107.7500 157.7500 130.0000 Du        
  15324 ****       107.7500 157.7500 130.2500 Du        
  15325 ****       107.7500 157.7500 130.5000 Du        
  15326 ****       107.7500 157.7500 130.7500 Du        
  15327 ****       107.7500 157.7500 137.5000 Du        
  15328 ****       107.7500 157.7500 137.7500 Du        
  15329 ****       107.7500 157.7500 138.0000 Du        
  15330 ****       107.7500 157.7500 138.2500 Du        
  15331 ****       107.7500 157.7500 138.5000 Du        
  15332 ****       107.7500 157.7500 138.7500 Du        
  15333 ****       107.7500 157.7500 139.0000 Du        
  15334 ****       107.7500 157.7500 139.2500 Du        
  15335 ****       107.7500 157.7500 139.5000 Du        
  15336 ****       107.7500 157.7500 139.7500 Du        
  15337 ****       107.7500 157.7500 140.0000 Du        
  15338 ****       107.7500 158.0000 128.0000 Du        
  15339 ****       107.7500 158.0000 128.2500 Du        
  15340 ****       107.7500 158.0000 128.5000 Du        
  15341 ****       107.7500 158.0000 128.7500 Du        
  15342 ****       107.7500 158.0000 129.0000 Du        
  15343 ****       107.7500 158.0000 129.2500 Du        
  15344 ****       107.7500 158.0000 129.5000 Du        
  15345 ****       107.7500 158.0000 129.7500 Du        
  15346 ****       107.7500 158.0000 130.0000 Du        
  15347 ****       107.7500 158.0000 130.2500 Du        
  15348 ****       107.7500 158.0000 130.5000 Du        
  15349 ****       107.7500 158.0000 137.2500 Du        
  15350 ****       107.7500 158.0000 137.5000 Du        
  15351 ****       107.7500 158.0000 137.7500 Du        
  15352 ****       107.7500 158.0000 138.0000 Du        
  15353 ****       107.7500 158.0000 138.2500 Du        
  15354 ****       107.7500 158.0000 138.5000 Du        
  15355 ****       107.7500 158.0000 138.7500 Du        
  15356 ****       107.7500 158.0000 139.0000 Du        
  15357 ****       107.7500 158.0000 139.2500 Du        
  15358 ****       107.7500 158.0000 139.5000 Du        
  15359 ****       107.7500 158.0000 139.7500 Du        
  15360 ****       107.7500 158.2500 128.7500 Du        
  15361 ****       107.7500 158.2500 129.0000 Du        
  15362 ****       107.7500 158.2500 129.2500 Du        
  15363 ****       107.7500 158.2500 129.5000 Du        
  15364 ****       107.7500 158.2500 129.7500 Du        
  15365 ****       107.7500 158.2500 130.0000 Du        
  15366 ****       107.7500 158.2500 130.2500 Du        
  15367 ****       107.7500 158.2500 137.0000 Du        
  15368 ****       107.7500 158.2500 137.2500 Du        
  15369 ****       107.7500 158.2500 137.5000 Du        
  15370 ****       107.7500 158.2500 137.7500 Du        
  15371 ****       107.7500 158.2500 138.0000 Du        
  15372 ****       107.7500 158.2500 138.2500 Du        
  15373 ****       107.7500 158.2500 138.5000 Du        
  15374 ****       107.7500 158.2500 138.7500 Du        
  15375 ****       107.7500 158.5000 129.5000 Du        
  15376 ****       107.7500 158.5000 129.7500 Du        
  15377 ****       107.7500 158.5000 130.0000 Du        
  15378 ****       107.7500 158.5000 136.5000 Du        
  15379 ****       107.7500 158.5000 136.7500 Du        
  15380 ****       107.7500 158.5000 137.0000 Du        
  15381 ****       107.7500 158.5000 137.2500 Du        
  15382 ****       107.7500 158.5000 137.5000 Du        
  15383 ****       107.7500 158.5000 137.7500 Du        
  15384 ****       107.7500 158.5000 138.0000 Du        
  15385 ****       107.7500 158.7500 135.2500 Du        
  15386 ****       107.7500 158.7500 135.5000 Du        
  15387 ****       107.7500 158.7500 135.7500 Du        
  15388 ****       107.7500 158.7500 136.0000 Du        
  15389 ****       107.7500 158.7500 136.2500 Du        
  15390 ****       107.7500 158.7500 136.5000 Du        
  15391 ****       107.7500 158.7500 136.7500 Du        
  15392 ****       107.7500 158.7500 137.0000 Du        
  15393 ****       107.7500 158.7500 137.2500 Du        
  15394 ****       107.7500 158.7500 137.5000 Du        
  15395 ****       107.7500 158.7500 137.7500 Du        
  15396 ****       107.7500 158.7500 138.0000 Du        
  15397 ****       107.7500 159.0000 134.7500 Du        
  15398 ****       107.7500 159.0000 135.0000 Du        
  15399 ****       107.7500 159.0000 135.2500 Du        
  15400 ****       107.7500 159.0000 135.5000 Du        
  15401 ****       107.7500 159.0000 135.7500 Du        
  15402 ****       107.7500 159.0000 136.0000 Du        
  15403 ****       107.7500 159.0000 136.2500 Du        
  15404 ****       107.7500 159.0000 136.5000 Du        
  15405 ****       107.7500 159.0000 136.7500 Du        
  15406 ****       107.7500 159.0000 137.0000 Du        
  15407 ****       107.7500 159.0000 137.2500 Du        
  15408 ****       107.7500 159.0000 137.5000 Du        
  15409 ****       107.7500 159.0000 137.7500 Du        
  15410 ****       107.7500 159.0000 138.0000 Du        
  15411 ****       107.7500 159.2500 135.0000 Du        
  15412 ****       107.7500 159.2500 135.2500 Du        
  15413 ****       107.7500 159.2500 135.5000 Du        
  15414 ****       107.7500 159.2500 135.7500 Du        
  15415 ****       107.7500 159.2500 136.0000 Du        
  15416 ****       107.7500 159.2500 136.2500 Du        
  15417 ****       107.7500 159.2500 136.5000 Du        
  15418 ****       107.7500 159.2500 136.7500 Du        
  15419 ****       107.7500 159.2500 137.0000 Du        
  15420 ****       107.7500 159.2500 137.2500 Du        
  15421 ****       107.7500 159.2500 137.5000 Du        
  15422 ****       107.7500 159.5000 135.0000 Du        
  15423 ****       107.7500 159.5000 135.2500 Du        
  15424 ****       107.7500 159.5000 135.5000 Du        
  15425 ****       107.7500 159.5000 135.7500 Du        
  15426 ****       107.7500 159.5000 136.0000 Du        
  15427 ****       107.7500 159.5000 136.2500 Du        
  15428 ****       107.7500 159.5000 136.5000 Du        
  15429 ****       107.7500 159.5000 136.7500 Du        
  15430 ****       107.7500 159.5000 137.0000 Du        
  15431 ****       107.7500 159.5000 137.2500 Du        
  15432 ****       107.7500 159.5000 137.5000 Du        
  15433 ****       107.7500 159.7500 135.0000 Du        
  15434 ****       107.7500 159.7500 135.2500 Du        
  15435 ****       107.7500 159.7500 135.5000 Du        
  15436 ****       107.7500 159.7500 135.7500 Du        
  15437 ****       107.7500 159.7500 136.0000 Du        
  15438 ****       107.7500 159.7500 136.2500 Du        
  15439 ****       107.7500 159.7500 136.5000 Du        
  15440 ****       107.7500 159.7500 136.7500 Du        
  15441 ****       107.7500 159.7500 137.0000 Du        
  15442 ****       107.7500 159.7500 137.2500 Du        
  15443 ****       107.7500 159.7500 137.5000 Du        
  15444 ****       107.7500 160.0000 135.2500 Du        
  15445 ****       107.7500 160.0000 135.5000 Du        
  15446 ****       107.7500 160.0000 135.7500 Du        
  15447 ****       107.7500 160.0000 136.0000 Du        
  15448 ****       107.7500 160.0000 136.2500 Du        
  15449 ****       107.7500 160.0000 136.5000 Du        
  15450 ****       107.7500 160.0000 136.7500 Du        
  15451 ****       107.7500 160.0000 137.0000 Du        
  15452 ****       107.7500 160.0000 137.2500 Du        
  15453 ****       107.7500 160.0000 137.5000 Du        
  15454 ****       107.7500 160.0000 137.7500 Du        
  15455 ****       107.7500 160.2500 135.2500 Du        
  15456 ****       107.7500 160.2500 135.5000 Du        
  15457 ****       107.7500 160.2500 135.7500 Du        
  15458 ****       107.7500 160.2500 136.0000 Du        
  15459 ****       107.7500 160.2500 136.2500 Du        
  15460 ****       107.7500 160.2500 136.5000 Du        
  15461 ****       107.7500 160.2500 136.7500 Du        
  15462 ****       107.7500 160.2500 137.0000 Du        
  15463 ****       107.7500 160.2500 137.2500 Du        
  15464 ****       107.7500 160.2500 137.5000 Du        
  15465 ****       107.7500 160.2500 137.7500 Du        
  15466 ****       107.7500 160.5000 135.2500 Du        
  15467 ****       107.7500 160.5000 135.5000 Du        
  15468 ****       107.7500 160.5000 135.7500 Du        
  15469 ****       107.7500 160.5000 136.0000 Du        
  15470 ****       107.7500 160.5000 136.2500 Du        
  15471 ****       107.7500 160.5000 136.5000 Du        
  15472 ****       107.7500 160.5000 136.7500 Du        
  15473 ****       107.7500 160.5000 137.0000 Du        
  15474 ****       107.7500 160.5000 137.2500 Du        
  15475 ****       107.7500 160.5000 137.5000 Du        
  15476 ****       107.7500 160.5000 137.7500 Du        
  15477 ****       107.7500 160.5000 138.0000 Du        
  15478 ****       107.7500 160.5000 138.2500 Du        
  15479 ****       107.7500 160.7500 135.5000 Du        
  15480 ****       107.7500 160.7500 135.7500 Du        
  15481 ****       107.7500 160.7500 136.0000 Du        
  15482 ****       107.7500 160.7500 136.2500 Du        
  15483 ****       107.7500 160.7500 136.5000 Du        
  15484 ****       107.7500 160.7500 136.7500 Du        
  15485 ****       107.7500 160.7500 137.0000 Du        
  15486 ****       107.7500 160.7500 137.2500 Du        
  15487 ****       107.7500 160.7500 137.5000 Du        
  15488 ****       107.7500 160.7500 137.7500 Du        
  15489 ****       107.7500 160.7500 138.0000 Du        
  15490 ****       107.7500 160.7500 138.2500 Du        
  15491 ****       107.7500 161.0000 136.0000 Du        
  15492 ****       107.7500 161.0000 136.2500 Du        
  15493 ****       107.7500 161.0000 136.5000 Du        
  15494 ****       107.7500 161.0000 136.7500 Du        
  15495 ****       107.7500 161.0000 137.0000 Du        
  15496 ****       107.7500 161.0000 137.2500 Du        
  15497 ****       107.7500 161.0000 137.5000 Du        
  15498 ****       107.7500 161.0000 137.7500 Du        
  15499 ****       107.7500 161.0000 138.0000 Du        
  15500 ****       107.7500 161.0000 138.2500 Du        
  15501 ****       107.7500 161.2500 136.5000 Du        
  15502 ****       107.7500 161.2500 136.7500 Du        
  15503 ****       107.7500 161.2500 137.0000 Du        
  15504 ****       107.7500 161.2500 137.2500 Du        
  15505 ****       107.7500 161.2500 137.5000 Du        
  15506 ****       107.7500 161.2500 137.7500 Du        
  15507 ****       107.7500 161.2500 138.0000 Du        
  15508 ****       107.7500 161.2500 138.2500 Du        
  15509 ****       107.7500 161.5000 137.0000 Du        
  15510 ****       107.7500 161.5000 137.2500 Du        
  15511 ****       107.7500 161.5000 137.5000 Du        
  15512 ****       107.7500 161.5000 137.7500 Du        
  15513 ****       107.7500 161.5000 138.0000 Du        
  15514 ****       107.7500 161.5000 138.2500 Du        
  15515 ****       107.7500 161.5000 138.5000 Du        
  15516 ****       107.7500 161.5000 138.7500 Du        
  15517 ****       107.7500 161.7500 137.2500 Du        
  15518 ****       107.7500 161.7500 137.5000 Du        
  15519 ****       107.7500 161.7500 137.7500 Du        
  15520 ****       107.7500 161.7500 138.0000 Du        
  15521 ****       107.7500 161.7500 138.2500 Du        
  15522 ****       107.7500 161.7500 138.5000 Du        
  15523 ****       107.7500 161.7500 138.7500 Du        
  15524 ****       107.7500 162.0000 137.5000 Du        
  15525 ****       107.7500 162.0000 137.7500 Du        
  15526 ****       107.7500 162.0000 138.0000 Du        
  15527 ****       107.7500 162.0000 138.2500 Du        
  15528 ****       107.7500 162.0000 138.5000 Du        
  15529 ****       107.7500 162.0000 138.7500 Du        
  15530 ****       107.7500 162.2500 138.0000 Du        
  15531 ****       107.7500 162.2500 138.2500 Du        
  15532 ****       108.0000 149.5000 145.2500 Du        
  15533 ****       108.0000 149.7500 145.0000 Du        
  15534 ****       108.0000 149.7500 145.2500 Du        
  15535 ****       108.0000 150.0000 144.7500 Du        
  15536 ****       108.0000 150.0000 145.0000 Du        
  15537 ****       108.0000 150.2500 144.7500 Du        
  15538 ****       108.0000 150.2500 145.0000 Du        
  15539 ****       108.0000 155.5000 129.2500 Du        
  15540 ****       108.0000 155.5000 129.5000 Du        
  15541 ****       108.0000 155.5000 129.7500 Du        
  15542 ****       108.0000 155.5000 130.0000 Du        
  15543 ****       108.0000 155.5000 130.2500 Du        
  15544 ****       108.0000 155.5000 130.5000 Du        
  15545 ****       108.0000 155.7500 128.7500 Du        
  15546 ****       108.0000 155.7500 129.0000 Du        
  15547 ****       108.0000 155.7500 129.2500 Du        
  15548 ****       108.0000 155.7500 129.5000 Du        
  15549 ****       108.0000 155.7500 129.7500 Du        
  15550 ****       108.0000 155.7500 130.0000 Du        
  15551 ****       108.0000 155.7500 130.2500 Du        
  15552 ****       108.0000 155.7500 130.5000 Du        
  15553 ****       108.0000 155.7500 140.0000 Du        
  15554 ****       108.0000 155.7500 140.2500 Du        
  15555 ****       108.0000 155.7500 140.5000 Du        
  15556 ****       108.0000 155.7500 140.7500 Du        
  15557 ****       108.0000 155.7500 141.0000 Du        
  15558 ****       108.0000 155.7500 141.2500 Du        
  15559 ****       108.0000 156.0000 128.7500 Du        
  15560 ****       108.0000 156.0000 129.0000 Du        
  15561 ****       108.0000 156.0000 129.2500 Du        
  15562 ****       108.0000 156.0000 129.5000 Du        
  15563 ****       108.0000 156.0000 129.7500 Du        
  15564 ****       108.0000 156.0000 130.0000 Du        
  15565 ****       108.0000 156.0000 130.2500 Du        
  15566 ****       108.0000 156.0000 130.5000 Du        
  15567 ****       108.0000 156.0000 130.7500 Du        
  15568 ****       108.0000 156.0000 139.5000 Du        
  15569 ****       108.0000 156.0000 139.7500 Du        
  15570 ****       108.0000 156.0000 140.0000 Du        
  15571 ****       108.0000 156.0000 140.2500 Du        
  15572 ****       108.0000 156.0000 140.5000 Du        
  15573 ****       108.0000 156.0000 140.7500 Du        
  15574 ****       108.0000 156.0000 141.0000 Du        
  15575 ****       108.0000 156.2500 128.5000 Du        
  15576 ****       108.0000 156.2500 128.7500 Du        
  15577 ****       108.0000 156.2500 129.0000 Du        
  15578 ****       108.0000 156.2500 129.2500 Du        
  15579 ****       108.0000 156.2500 129.5000 Du        
  15580 ****       108.0000 156.2500 129.7500 Du        
  15581 ****       108.0000 156.2500 130.0000 Du        
  15582 ****       108.0000 156.2500 130.2500 Du        
  15583 ****       108.0000 156.2500 130.5000 Du        
  15584 ****       108.0000 156.2500 130.7500 Du        
  15585 ****       108.0000 156.2500 139.2500 Du        
  15586 ****       108.0000 156.2500 139.5000 Du        
  15587 ****       108.0000 156.2500 139.7500 Du        
  15588 ****       108.0000 156.2500 140.0000 Du        
  15589 ****       108.0000 156.2500 140.2500 Du        
  15590 ****       108.0000 156.2500 140.5000 Du        
  15591 ****       108.0000 156.2500 140.7500 Du        
  15592 ****       108.0000 156.2500 141.0000 Du        
  15593 ****       108.0000 156.5000 128.5000 Du        
  15594 ****       108.0000 156.5000 128.7500 Du        
  15595 ****       108.0000 156.5000 129.0000 Du        
  15596 ****       108.0000 156.5000 129.2500 Du        
  15597 ****       108.0000 156.5000 129.5000 Du        
  15598 ****       108.0000 156.5000 129.7500 Du        
  15599 ****       108.0000 156.5000 130.0000 Du        
  15600 ****       108.0000 156.5000 130.2500 Du        
  15601 ****       108.0000 156.5000 130.5000 Du        
  15602 ****       108.0000 156.5000 130.7500 Du        
  15603 ****       108.0000 156.5000 139.0000 Du        
  15604 ****       108.0000 156.5000 139.2500 Du        
  15605 ****       108.0000 156.5000 139.5000 Du        
  15606 ****       108.0000 156.5000 139.7500 Du        
  15607 ****       108.0000 156.5000 140.0000 Du        
  15608 ****       108.0000 156.5000 140.2500 Du        
  15609 ****       108.0000 156.5000 140.5000 Du        
  15610 ****       108.0000 156.5000 140.7500 Du        
  15611 ****       108.0000 156.7500 128.2500 Du        
  15612 ****       108.0000 156.7500 128.5000 Du        
  15613 ****       108.0000 156.7500 128.7500 Du        
  15614 ****       108.0000 156.7500 129.0000 Du        
  15615 ****       108.0000 156.7500 129.2500 Du        
  15616 ****       108.0000 156.7500 129.5000 Du        
  15617 ****       108.0000 156.7500 129.7500 Du        
  15618 ****       108.0000 156.7500 130.0000 Du        
  15619 ****       108.0000 156.7500 130.2500 Du        
  15620 ****       108.0000 156.7500 130.5000 Du        
  15621 ****       108.0000 156.7500 130.7500 Du        
  15622 ****       108.0000 156.7500 131.0000 Du        
  15623 ****       108.0000 156.7500 138.7500 Du        
  15624 ****       108.0000 156.7500 139.0000 Du        
  15625 ****       108.0000 156.7500 139.2500 Du        
  15626 ****       108.0000 156.7500 139.5000 Du        
  15627 ****       108.0000 156.7500 139.7500 Du        
  15628 ****       108.0000 156.7500 140.0000 Du        
  15629 ****       108.0000 156.7500 140.2500 Du        
  15630 ****       108.0000 156.7500 140.5000 Du        
  15631 ****       108.0000 157.0000 128.0000 Du        
  15632 ****       108.0000 157.0000 128.2500 Du        
  15633 ****       108.0000 157.0000 128.5000 Du        
  15634 ****       108.0000 157.0000 128.7500 Du        
  15635 ****       108.0000 157.0000 129.0000 Du        
  15636 ****       108.0000 157.0000 129.2500 Du        
  15637 ****       108.0000 157.0000 129.5000 Du        
  15638 ****       108.0000 157.0000 129.7500 Du        
  15639 ****       108.0000 157.0000 130.0000 Du        
  15640 ****       108.0000 157.0000 130.2500 Du        
  15641 ****       108.0000 157.0000 130.5000 Du        
  15642 ****       108.0000 157.0000 130.7500 Du        
  15643 ****       108.0000 157.0000 131.0000 Du        
  15644 ****       108.0000 157.0000 138.5000 Du        
  15645 ****       108.0000 157.0000 138.7500 Du        
  15646 ****       108.0000 157.0000 139.0000 Du        
  15647 ****       108.0000 157.0000 139.2500 Du        
  15648 ****       108.0000 157.0000 139.5000 Du        
  15649 ****       108.0000 157.0000 139.7500 Du        
  15650 ****       108.0000 157.0000 140.0000 Du        
  15651 ****       108.0000 157.0000 140.2500 Du        
  15652 ****       108.0000 157.2500 128.0000 Du        
  15653 ****       108.0000 157.2500 128.2500 Du        
  15654 ****       108.0000 157.2500 128.5000 Du        
  15655 ****       108.0000 157.2500 128.7500 Du        
  15656 ****       108.0000 157.2500 129.0000 Du        
  15657 ****       108.0000 157.2500 129.2500 Du        
  15658 ****       108.0000 157.2500 129.5000 Du        
  15659 ****       108.0000 157.2500 129.7500 Du        
  15660 ****       108.0000 157.2500 130.0000 Du        
  15661 ****       108.0000 157.2500 130.2500 Du        
  15662 ****       108.0000 157.2500 130.5000 Du        
  15663 ****       108.0000 157.2500 130.7500 Du        
  15664 ****       108.0000 157.2500 131.0000 Du        
  15665 ****       108.0000 157.2500 138.2500 Du        
  15666 ****       108.0000 157.2500 138.5000 Du        
  15667 ****       108.0000 157.2500 138.7500 Du        
  15668 ****       108.0000 157.2500 139.0000 Du        
  15669 ****       108.0000 157.2500 139.2500 Du        
  15670 ****       108.0000 157.2500 139.5000 Du        
  15671 ****       108.0000 157.2500 139.7500 Du        
  15672 ****       108.0000 157.2500 140.0000 Du        
  15673 ****       108.0000 157.2500 140.2500 Du        
  15674 ****       108.0000 157.5000 127.7500 Du        
  15675 ****       108.0000 157.5000 128.0000 Du        
  15676 ****       108.0000 157.5000 128.2500 Du        
  15677 ****       108.0000 157.5000 128.5000 Du        
  15678 ****       108.0000 157.5000 128.7500 Du        
  15679 ****       108.0000 157.5000 129.0000 Du        
  15680 ****       108.0000 157.5000 129.2500 Du        
  15681 ****       108.0000 157.5000 129.5000 Du        
  15682 ****       108.0000 157.5000 129.7500 Du        
  15683 ****       108.0000 157.5000 130.0000 Du        
  15684 ****       108.0000 157.5000 130.2500 Du        
  15685 ****       108.0000 157.5000 130.5000 Du        
  15686 ****       108.0000 157.5000 138.0000 Du        
  15687 ****       108.0000 157.5000 138.2500 Du        
  15688 ****       108.0000 157.5000 138.5000 Du        
  15689 ****       108.0000 157.5000 138.7500 Du        
  15690 ****       108.0000 157.5000 139.0000 Du        
  15691 ****       108.0000 157.5000 139.2500 Du        
  15692 ****       108.0000 157.5000 139.5000 Du        
  15693 ****       108.0000 157.5000 139.7500 Du        
  15694 ****       108.0000 157.5000 140.0000 Du        
  15695 ****       108.0000 157.7500 127.7500 Du        
  15696 ****       108.0000 157.7500 128.0000 Du        
  15697 ****       108.0000 157.7500 128.2500 Du        
  15698 ****       108.0000 157.7500 128.5000 Du        
  15699 ****       108.0000 157.7500 128.7500 Du        
  15700 ****       108.0000 157.7500 129.0000 Du        
  15701 ****       108.0000 157.7500 129.2500 Du        
  15702 ****       108.0000 157.7500 129.5000 Du        
  15703 ****       108.0000 157.7500 129.7500 Du        
  15704 ****       108.0000 157.7500 130.0000 Du        
  15705 ****       108.0000 157.7500 130.2500 Du        
  15706 ****       108.0000 157.7500 137.7500 Du        
  15707 ****       108.0000 157.7500 138.0000 Du        
  15708 ****       108.0000 157.7500 138.2500 Du        
  15709 ****       108.0000 157.7500 138.5000 Du        
  15710 ****       108.0000 157.7500 138.7500 Du        
  15711 ****       108.0000 157.7500 139.0000 Du        
  15712 ****       108.0000 157.7500 139.2500 Du        
  15713 ****       108.0000 157.7500 139.5000 Du        
  15714 ****       108.0000 157.7500 139.7500 Du        
  15715 ****       108.0000 158.0000 128.0000 Du        
  15716 ****       108.0000 158.0000 128.2500 Du        
  15717 ****       108.0000 158.0000 128.5000 Du        
  15718 ****       108.0000 158.0000 128.7500 Du        
  15719 ****       108.0000 158.0000 129.0000 Du        
  15720 ****       108.0000 158.0000 129.2500 Du        
  15721 ****       108.0000 158.0000 129.5000 Du        
  15722 ****       108.0000 158.0000 129.7500 Du        
  15723 ****       108.0000 158.0000 130.0000 Du        
  15724 ****       108.0000 158.0000 137.7500 Du        
  15725 ****       108.0000 158.0000 138.0000 Du        
  15726 ****       108.0000 158.0000 138.2500 Du        
  15727 ****       108.0000 158.0000 138.5000 Du        
  15728 ****       108.0000 158.0000 138.7500 Du        
  15729 ****       108.0000 158.0000 139.0000 Du        
  15730 ****       108.0000 158.2500 128.7500 Du        
  15731 ****       108.0000 158.2500 129.0000 Du        
  15732 ****       108.0000 158.2500 129.2500 Du        
  15733 ****       108.0000 158.2500 129.5000 Du        
  15734 ****       108.0000 158.2500 129.7500 Du        
  15735 ****       108.0000 158.2500 137.0000 Du        
  15736 ****       108.0000 158.2500 137.2500 Du        
  15737 ****       108.0000 158.2500 137.5000 Du        
  15738 ****       108.0000 158.2500 137.7500 Du        
  15739 ****       108.0000 158.2500 138.0000 Du        
  15740 ****       108.0000 158.2500 138.2500 Du        
  15741 ****       108.0000 158.5000 136.7500 Du        
  15742 ****       108.0000 158.5000 137.0000 Du        
  15743 ****       108.0000 158.5000 137.2500 Du        
  15744 ****       108.0000 158.7500 135.7500 Du        
  15745 ****       108.0000 158.7500 136.0000 Du        
  15746 ****       108.0000 158.7500 136.2500 Du        
  15747 ****       108.0000 158.7500 136.5000 Du        
  15748 ****       108.0000 158.7500 136.7500 Du        
  15749 ****       108.0000 158.7500 137.0000 Du        
  15750 ****       108.0000 158.7500 137.2500 Du        
  15751 ****       108.0000 159.0000 135.0000 Du        
  15752 ****       108.0000 159.0000 135.2500 Du        
  15753 ****       108.0000 159.0000 135.5000 Du        
  15754 ****       108.0000 159.0000 135.7500 Du        
  15755 ****       108.0000 159.0000 136.0000 Du        
  15756 ****       108.0000 159.0000 136.2500 Du        
  15757 ****       108.0000 159.0000 136.5000 Du        
  15758 ****       108.0000 159.0000 136.7500 Du        
  15759 ****       108.0000 159.0000 137.0000 Du        
  15760 ****       108.0000 159.0000 137.2500 Du        
  15761 ****       108.0000 159.2500 135.0000 Du        
  15762 ****       108.0000 159.2500 135.2500 Du        
  15763 ****       108.0000 159.2500 135.5000 Du        
  15764 ****       108.0000 159.2500 135.7500 Du        
  15765 ****       108.0000 159.2500 136.0000 Du        
  15766 ****       108.0000 159.2500 136.2500 Du        
  15767 ****       108.0000 159.2500 136.5000 Du        
  15768 ****       108.0000 159.2500 136.7500 Du        
  15769 ****       108.0000 159.2500 137.0000 Du        
  15770 ****       108.0000 159.2500 137.2500 Du        
  15771 ****       108.0000 159.5000 135.2500 Du        
  15772 ****       108.0000 159.5000 135.5000 Du        
  15773 ****       108.0000 159.5000 135.7500 Du        
  15774 ****       108.0000 159.5000 136.0000 Du        
  15775 ****       108.0000 159.5000 136.2500 Du        
  15776 ****       108.0000 159.5000 136.5000 Du        
  15777 ****       108.0000 159.5000 136.7500 Du        
  15778 ****       108.0000 159.5000 137.0000 Du        
  15779 ****       108.0000 159.5000 137.2500 Du        
  15780 ****       108.0000 159.7500 135.2500 Du        
  15781 ****       108.0000 159.7500 135.5000 Du        
  15782 ****       108.0000 159.7500 135.7500 Du        
  15783 ****       108.0000 159.7500 136.0000 Du        
  15784 ****       108.0000 159.7500 136.2500 Du        
  15785 ****       108.0000 159.7500 136.5000 Du        
  15786 ****       108.0000 159.7500 136.7500 Du        
  15787 ****       108.0000 159.7500 137.0000 Du        
  15788 ****       108.0000 159.7500 137.2500 Du        
  15789 ****       108.0000 160.0000 135.2500 Du        
  15790 ****       108.0000 160.0000 135.5000 Du        
  15791 ****       108.0000 160.0000 135.7500 Du        
  15792 ****       108.0000 160.0000 136.0000 Du        
  15793 ****       108.0000 160.0000 136.2500 Du        
  15794 ****       108.0000 160.0000 136.5000 Du        
  15795 ****       108.0000 160.0000 136.7500 Du        
  15796 ****       108.0000 160.0000 137.0000 Du        
  15797 ****       108.0000 160.0000 137.2500 Du        
  15798 ****       108.0000 160.0000 137.5000 Du        
  15799 ****       108.0000 160.0000 137.7500 Du        
  15800 ****       108.0000 160.2500 135.2500 Du        
  15801 ****       108.0000 160.2500 135.5000 Du        
  15802 ****       108.0000 160.2500 135.7500 Du        
  15803 ****       108.0000 160.2500 136.0000 Du        
  15804 ****       108.0000 160.2500 136.2500 Du        
  15805 ****       108.0000 160.2500 136.5000 Du        
  15806 ****       108.0000 160.2500 136.7500 Du        
  15807 ****       108.0000 160.2500 137.0000 Du        
  15808 ****       108.0000 160.2500 137.2500 Du        
  15809 ****       108.0000 160.2500 137.5000 Du        
  15810 ****       108.0000 160.2500 137.7500 Du        
  15811 ****       108.0000 160.2500 138.0000 Du        
  15812 ****       108.0000 160.5000 135.2500 Du        
  15813 ****       108.0000 160.5000 135.5000 Du        
  15814 ****       108.0000 160.5000 135.7500 Du        
  15815 ****       108.0000 160.5000 136.0000 Du        
  15816 ****       108.0000 160.5000 136.2500 Du        
  15817 ****       108.0000 160.5000 136.5000 Du        
  15818 ****       108.0000 160.5000 136.7500 Du        
  15819 ****       108.0000 160.5000 137.0000 Du        
  15820 ****       108.0000 160.5000 137.2500 Du        
  15821 ****       108.0000 160.5000 137.5000 Du        
  15822 ****       108.0000 160.5000 137.7500 Du        
  15823 ****       108.0000 160.5000 138.0000 Du        
  15824 ****       108.0000 160.7500 135.5000 Du        
  15825 ****       108.0000 160.7500 135.7500 Du        
  15826 ****       108.0000 160.7500 136.0000 Du        
  15827 ****       108.0000 160.7500 136.2500 Du        
  15828 ****       108.0000 160.7500 136.5000 Du        
  15829 ****       108.0000 160.7500 136.7500 Du        
  15830 ****       108.0000 160.7500 137.0000 Du        
  15831 ****       108.0000 160.7500 137.2500 Du        
  15832 ****       108.0000 160.7500 137.5000 Du        
  15833 ****       108.0000 160.7500 137.7500 Du        
  15834 ****       108.0000 160.7500 138.0000 Du        
  15835 ****       108.0000 160.7500 138.2500 Du        
  15836 ****       108.0000 161.0000 136.0000 Du        
  15837 ****       108.0000 161.0000 136.2500 Du        
  15838 ****       108.0000 161.0000 136.5000 Du        
  15839 ****       108.0000 161.0000 136.7500 Du        
  15840 ****       108.0000 161.0000 137.0000 Du        
  15841 ****       108.0000 161.0000 137.2500 Du        
  15842 ****       108.0000 161.0000 137.5000 Du        
  15843 ****       108.0000 161.0000 137.7500 Du        
  15844 ****       108.0000 161.0000 138.0000 Du        
  15845 ****       108.0000 161.0000 138.2500 Du        
  15846 ****       108.0000 161.2500 136.7500 Du        
  15847 ****       108.0000 161.2500 137.0000 Du        
  15848 ****       108.0000 161.2500 137.2500 Du        
  15849 ****       108.0000 161.2500 137.5000 Du        
  15850 ****       108.0000 161.2500 137.7500 Du        
  15851 ****       108.0000 161.2500 138.0000 Du        
  15852 ****       108.0000 161.2500 138.2500 Du        
  15853 ****       108.0000 161.5000 137.2500 Du        
  15854 ****       108.0000 161.5000 137.5000 Du        
  15855 ****       108.0000 161.5000 137.7500 Du        
  15856 ****       108.0000 161.5000 138.0000 Du        
  15857 ****       108.0000 161.5000 138.2500 Du        
  15858 ****       108.0000 161.5000 138.5000 Du        
  15859 ****       108.0000 161.5000 138.7500 Du        
  15860 ****       108.0000 161.7500 137.5000 Du        
  15861 ****       108.0000 161.7500 137.7500 Du        
  15862 ****       108.0000 161.7500 138.0000 Du        
  15863 ****       108.0000 161.7500 138.2500 Du        
  15864 ****       108.0000 161.7500 138.5000 Du        
  15865 ****       108.0000 161.7500 138.7500 Du        
  15866 ****       108.0000 162.0000 137.7500 Du        
  15867 ****       108.0000 162.0000 138.0000 Du        
  15868 ****       108.0000 162.0000 138.2500 Du        
  15869 ****       108.0000 162.0000 138.5000 Du        
  15870 ****       108.0000 162.0000 138.7500 Du        
  15871 ****       108.0000 162.0000 139.0000 Du        
  15872 ****       108.2500 150.0000 144.7500 Du        
  15873 ****       108.2500 150.0000 145.0000 Du        
  15874 ****       108.2500 150.2500 144.2500 Du        
  15875 ****       108.2500 150.2500 144.5000 Du        
  15876 ****       108.2500 150.2500 144.7500 Du        
  15877 ****       108.2500 150.2500 145.0000 Du        
  15878 ****       108.2500 150.5000 144.2500 Du        
  15879 ****       108.2500 155.5000 129.5000 Du        
  15880 ****       108.2500 155.5000 129.7500 Du        
  15881 ****       108.2500 155.5000 130.0000 Du        
  15882 ****       108.2500 155.5000 130.2500 Du        
  15883 ****       108.2500 155.5000 130.5000 Du        
  15884 ****       108.2500 155.5000 140.2500 Du        
  15885 ****       108.2500 155.5000 140.5000 Du        
  15886 ****       108.2500 155.5000 140.7500 Du        
  15887 ****       108.2500 155.5000 141.0000 Du        
  15888 ****       108.2500 155.7500 129.0000 Du        
  15889 ****       108.2500 155.7500 129.2500 Du        
  15890 ****       108.2500 155.7500 129.5000 Du        
  15891 ****       108.2500 155.7500 129.7500 Du        
  15892 ****       108.2500 155.7500 130.0000 Du        
  15893 ****       108.2500 155.7500 130.2500 Du        
  15894 ****       108.2500 155.7500 130.5000 Du        
  15895 ****       108.2500 155.7500 139.7500 Du        
  15896 ****       108.2500 155.7500 140.0000 Du        
  15897 ****       108.2500 155.7500 140.2500 Du        
  15898 ****       108.2500 155.7500 140.5000 Du        
  15899 ****       108.2500 155.7500 140.7500 Du        
  15900 ****       108.2500 155.7500 141.0000 Du        
  15901 ****       108.2500 156.0000 128.7500 Du        
  15902 ****       108.2500 156.0000 129.0000 Du        
  15903 ****       108.2500 156.0000 129.2500 Du        
  15904 ****       108.2500 156.0000 129.5000 Du        
  15905 ****       108.2500 156.0000 129.7500 Du        
  15906 ****       108.2500 156.0000 130.0000 Du        
  15907 ****       108.2500 156.0000 130.2500 Du        
  15908 ****       108.2500 156.0000 130.5000 Du        
  15909 ****       108.2500 156.0000 139.5000 Du        
  15910 ****       108.2500 156.0000 139.7500 Du        
  15911 ****       108.2500 156.0000 140.0000 Du        
  15912 ****       108.2500 156.0000 140.2500 Du        
  15913 ****       108.2500 156.0000 140.5000 Du        
  15914 ****       108.2500 156.0000 140.7500 Du        
  15915 ****       108.2500 156.2500 128.7500 Du        
  15916 ****       108.2500 156.2500 129.0000 Du        
  15917 ****       108.2500 156.2500 129.2500 Du        
  15918 ****       108.2500 156.2500 129.5000 Du        
  15919 ****       108.2500 156.2500 129.7500 Du        
  15920 ****       108.2500 156.2500 130.0000 Du        
  15921 ****       108.2500 156.2500 130.2500 Du        
  15922 ****       108.2500 156.2500 130.5000 Du        
  15923 ****       108.2500 156.2500 130.7500 Du        
  15924 ****       108.2500 156.2500 139.2500 Du        
  15925 ****       108.2500 156.2500 139.5000 Du        
  15926 ****       108.2500 156.2500 139.7500 Du        
  15927 ****       108.2500 156.2500 140.0000 Du        
  15928 ****       108.2500 156.2500 140.2500 Du        
  15929 ****       108.2500 156.5000 128.5000 Du        
  15930 ****       108.2500 156.5000 128.7500 Du        
  15931 ****       108.2500 156.5000 129.0000 Du        
  15932 ****       108.2500 156.5000 129.2500 Du        
  15933 ****       108.2500 156.5000 129.5000 Du        
  15934 ****       108.2500 156.5000 129.7500 Du        
  15935 ****       108.2500 156.5000 130.0000 Du        
  15936 ****       108.2500 156.5000 130.2500 Du        
  15937 ****       108.2500 156.5000 130.5000 Du        
  15938 ****       108.2500 156.5000 130.7500 Du        
  15939 ****       108.2500 156.5000 139.0000 Du        
  15940 ****       108.2500 156.5000 139.2500 Du        
  15941 ****       108.2500 156.5000 139.5000 Du        
  15942 ****       108.2500 156.5000 139.7500 Du        
  15943 ****       108.2500 156.5000 140.0000 Du        
  15944 ****       108.2500 156.5000 140.2500 Du        
  15945 ****       108.2500 156.7500 128.5000 Du        
  15946 ****       108.2500 156.7500 128.7500 Du        
  15947 ****       108.2500 156.7500 129.0000 Du        
  15948 ****       108.2500 156.7500 129.2500 Du        
  15949 ****       108.2500 156.7500 129.5000 Du        
  15950 ****       108.2500 156.7500 129.7500 Du        
  15951 ****       108.2500 156.7500 130.0000 Du        
  15952 ****       108.2500 156.7500 130.2500 Du        
  15953 ****       108.2500 156.7500 130.5000 Du        
  15954 ****       108.2500 156.7500 130.7500 Du        
  15955 ****       108.2500 156.7500 131.0000 Du        
  15956 ****       108.2500 156.7500 138.7500 Du        
  15957 ****       108.2500 156.7500 139.0000 Du        
  15958 ****       108.2500 156.7500 139.2500 Du        
  15959 ****       108.2500 156.7500 139.5000 Du        
  15960 ****       108.2500 156.7500 139.7500 Du        
  15961 ****       108.2500 156.7500 140.0000 Du        
  15962 ****       108.2500 156.7500 140.2500 Du        
  15963 ****       108.2500 157.0000 128.2500 Du        
  15964 ****       108.2500 157.0000 128.5000 Du        
  15965 ****       108.2500 157.0000 128.7500 Du        
  15966 ****       108.2500 157.0000 129.0000 Du        
  15967 ****       108.2500 157.0000 129.2500 Du        
  15968 ****       108.2500 157.0000 129.5000 Du        
  15969 ****       108.2500 157.0000 129.7500 Du        
  15970 ****       108.2500 157.0000 130.0000 Du        
  15971 ****       108.2500 157.0000 130.2500 Du        
  15972 ****       108.2500 157.0000 130.5000 Du        
  15973 ****       108.2500 157.0000 130.7500 Du        
  15974 ****       108.2500 157.0000 138.7500 Du        
  15975 ****       108.2500 157.0000 139.0000 Du        
  15976 ****       108.2500 157.0000 139.2500 Du        
  15977 ****       108.2500 157.0000 139.5000 Du        
  15978 ****       108.2500 157.0000 139.7500 Du        
  15979 ****       108.2500 157.0000 140.0000 Du        
  15980 ****       108.2500 157.2500 128.0000 Du        
  15981 ****       108.2500 157.2500 128.2500 Du        
  15982 ****       108.2500 157.2500 128.5000 Du        
  15983 ****       108.2500 157.2500 128.7500 Du        
  15984 ****       108.2500 157.2500 129.0000 Du        
  15985 ****       108.2500 157.2500 129.2500 Du        
  15986 ****       108.2500 157.2500 129.5000 Du        
  15987 ****       108.2500 157.2500 129.7500 Du        
  15988 ****       108.2500 157.2500 130.0000 Du        
  15989 ****       108.2500 157.2500 130.2500 Du        
  15990 ****       108.2500 157.2500 130.5000 Du        
  15991 ****       108.2500 157.2500 138.7500 Du        
  15992 ****       108.2500 157.2500 139.0000 Du        
  15993 ****       108.2500 157.2500 139.2500 Du        
  15994 ****       108.2500 157.2500 139.5000 Du        
  15995 ****       108.2500 157.2500 139.7500 Du        
  15996 ****       108.2500 157.5000 128.0000 Du        
  15997 ****       108.2500 157.5000 128.2500 Du        
  15998 ****       108.2500 157.5000 128.5000 Du        
  15999 ****       108.2500 157.5000 128.7500 Du        
  16000 ****       108.2500 157.5000 129.0000 Du        
  16001 ****       108.2500 157.5000 129.2500 Du        
  16002 ****       108.2500 157.5000 129.5000 Du        
  16003 ****       108.2500 157.5000 129.7500 Du        
  16004 ****       108.2500 157.5000 130.0000 Du        
  16005 ****       108.2500 157.5000 130.2500 Du        
  16006 ****       108.2500 157.5000 139.0000 Du        
  16007 ****       108.2500 157.5000 139.2500 Du        
  16008 ****       108.2500 157.7500 128.0000 Du        
  16009 ****       108.2500 157.7500 128.2500 Du        
  16010 ****       108.2500 157.7500 128.5000 Du        
  16011 ****       108.2500 157.7500 128.7500 Du        
  16012 ****       108.2500 157.7500 129.0000 Du        
  16013 ****       108.2500 157.7500 129.2500 Du        
  16014 ****       108.2500 157.7500 129.5000 Du        
  16015 ****       108.2500 157.7500 129.7500 Du        
  16016 ****       108.2500 157.7500 130.0000 Du        
  16017 ****       108.2500 158.0000 128.2500 Du        
  16018 ****       108.2500 158.0000 128.5000 Du        
  16019 ****       108.2500 158.0000 128.7500 Du        
  16020 ****       108.2500 158.0000 129.0000 Du        
  16021 ****       108.2500 158.0000 129.2500 Du        
  16022 ****       108.2500 158.0000 129.5000 Du        
  16023 ****       108.2500 158.0000 129.7500 Du        
  16024 ****       108.2500 158.2500 129.0000 Du        
  16025 ****       108.2500 158.2500 129.2500 Du        
  16026 ****       108.2500 158.2500 129.5000 Du        
  16027 ****       108.2500 158.7500 136.0000 Du        
  16028 ****       108.2500 158.7500 136.2500 Du        
  16029 ****       108.2500 158.7500 136.5000 Du        
  16030 ****       108.2500 158.7500 136.7500 Du        
  16031 ****       108.2500 158.7500 137.0000 Du        
  16032 ****       108.2500 159.0000 135.2500 Du        
  16033 ****       108.2500 159.0000 135.5000 Du        
  16034 ****       108.2500 159.0000 135.7500 Du        
  16035 ****       108.2500 159.0000 136.0000 Du        
  16036 ****       108.2500 159.0000 136.2500 Du        
  16037 ****       108.2500 159.0000 136.5000 Du        
  16038 ****       108.2500 159.0000 136.7500 Du        
  16039 ****       108.2500 159.0000 137.0000 Du        
  16040 ****       108.2500 159.0000 137.2500 Du        
  16041 ****       108.2500 159.2500 135.2500 Du        
  16042 ****       108.2500 159.2500 135.5000 Du        
  16043 ****       108.2500 159.2500 135.7500 Du        
  16044 ****       108.2500 159.2500 136.0000 Du        
  16045 ****       108.2500 159.2500 136.2500 Du        
  16046 ****       108.2500 159.2500 136.5000 Du        
  16047 ****       108.2500 159.2500 136.7500 Du        
  16048 ****       108.2500 159.2500 137.0000 Du        
  16049 ****       108.2500 159.2500 137.2500 Du        
  16050 ****       108.2500 159.5000 135.2500 Du        
  16051 ****       108.2500 159.5000 135.5000 Du        
  16052 ****       108.2500 159.5000 135.7500 Du        
  16053 ****       108.2500 159.5000 136.0000 Du        
  16054 ****       108.2500 159.5000 136.2500 Du        
  16055 ****       108.2500 159.5000 136.5000 Du        
  16056 ****       108.2500 159.5000 136.7500 Du        
  16057 ****       108.2500 159.5000 137.0000 Du        
  16058 ****       108.2500 159.5000 137.2500 Du        
  16059 ****       108.2500 159.7500 135.2500 Du        
  16060 ****       108.2500 159.7500 135.5000 Du        
  16061 ****       108.2500 159.7500 135.7500 Du        
  16062 ****       108.2500 159.7500 136.0000 Du        
  16063 ****       108.2500 159.7500 136.2500 Du        
  16064 ****       108.2500 159.7500 136.5000 Du        
  16065 ****       108.2500 159.7500 136.7500 Du        
  16066 ****       108.2500 159.7500 137.0000 Du        
  16067 ****       108.2500 159.7500 137.2500 Du        
  16068 ****       108.2500 160.0000 135.5000 Du        
  16069 ****       108.2500 160.0000 135.7500 Du        
  16070 ****       108.2500 160.0000 136.0000 Du        
  16071 ****       108.2500 160.0000 136.2500 Du        
  16072 ****       108.2500 160.0000 136.5000 Du        
  16073 ****       108.2500 160.0000 136.7500 Du        
  16074 ****       108.2500 160.0000 137.0000 Du        
  16075 ****       108.2500 160.0000 137.2500 Du        
  16076 ****       108.2500 160.2500 135.5000 Du        
  16077 ****       108.2500 160.2500 135.7500 Du        
  16078 ****       108.2500 160.2500 136.0000 Du        
  16079 ****       108.2500 160.2500 136.2500 Du        
  16080 ****       108.2500 160.2500 136.5000 Du        
  16081 ****       108.2500 160.2500 136.7500 Du        
  16082 ****       108.2500 160.2500 137.0000 Du        
  16083 ****       108.2500 160.2500 137.2500 Du        
  16084 ****       108.2500 160.5000 135.5000 Du        
  16085 ****       108.2500 160.5000 135.7500 Du        
  16086 ****       108.2500 160.5000 136.0000 Du        
  16087 ****       108.2500 160.5000 136.2500 Du        
  16088 ****       108.2500 160.5000 136.5000 Du        
  16089 ****       108.2500 160.5000 136.7500 Du        
  16090 ****       108.2500 160.5000 137.0000 Du        
  16091 ****       108.2500 160.5000 137.2500 Du        
  16092 ****       108.2500 160.5000 137.5000 Du        
  16093 ****       108.2500 160.5000 137.7500 Du        
  16094 ****       108.2500 160.7500 135.5000 Du        
  16095 ****       108.2500 160.7500 135.7500 Du        
  16096 ****       108.2500 160.7500 136.0000 Du        
  16097 ****       108.2500 160.7500 136.2500 Du        
  16098 ****       108.2500 160.7500 136.5000 Du        
  16099 ****       108.2500 160.7500 136.7500 Du        
  16100 ****       108.2500 160.7500 137.0000 Du        
  16101 ****       108.2500 160.7500 137.2500 Du        
  16102 ****       108.2500 160.7500 137.5000 Du        
  16103 ****       108.2500 160.7500 137.7500 Du        
  16104 ****       108.2500 160.7500 138.0000 Du        
  16105 ****       108.2500 161.0000 136.0000 Du        
  16106 ****       108.2500 161.0000 136.2500 Du        
  16107 ****       108.2500 161.0000 136.5000 Du        
  16108 ****       108.2500 161.0000 136.7500 Du        
  16109 ****       108.2500 161.0000 137.0000 Du        
  16110 ****       108.2500 161.0000 137.2500 Du        
  16111 ****       108.2500 161.0000 137.5000 Du        
  16112 ****       108.2500 161.0000 137.7500 Du        
  16113 ****       108.2500 161.0000 138.0000 Du        
  16114 ****       108.2500 161.0000 138.2500 Du        
  16115 ****       108.2500 161.2500 137.0000 Du        
  16116 ****       108.2500 161.2500 137.2500 Du        
  16117 ****       108.2500 161.2500 137.5000 Du        
  16118 ****       108.2500 161.2500 137.7500 Du        
  16119 ****       108.2500 161.2500 138.0000 Du        
  16120 ****       108.2500 161.2500 138.2500 Du        
  16121 ****       108.2500 161.5000 137.5000 Du        
  16122 ****       108.2500 161.5000 137.7500 Du        
  16123 ****       108.2500 161.5000 138.0000 Du        
  16124 ****       108.2500 161.5000 138.2500 Du        
  16125 ****       108.2500 161.5000 138.5000 Du        
  16126 ****       108.2500 161.7500 137.7500 Du        
  16127 ****       108.2500 161.7500 138.0000 Du        
  16128 ****       108.2500 161.7500 138.2500 Du        
  16129 ****       108.2500 161.7500 138.5000 Du        
  16130 ****       108.2500 161.7500 138.7500 Du        
  16131 ****       108.2500 162.0000 138.0000 Du        
  16132 ****       108.2500 162.0000 138.2500 Du        
  16133 ****       108.2500 162.0000 138.5000 Du        
  16134 ****       108.2500 162.0000 138.7500 Du        
  16135 ****       108.5000 150.5000 144.2500 Du        
  16136 ****       108.5000 155.2500 140.5000 Du        
  16137 ****       108.5000 155.2500 140.7500 Du        
  16138 ****       108.5000 155.2500 141.0000 Du        
  16139 ****       108.5000 155.5000 129.7500 Du        
  16140 ****       108.5000 155.5000 130.0000 Du        
  16141 ****       108.5000 155.5000 140.0000 Du        
  16142 ****       108.5000 155.5000 140.2500 Du        
  16143 ****       108.5000 155.5000 140.5000 Du        
  16144 ****       108.5000 155.5000 140.7500 Du        
  16145 ****       108.5000 155.7500 129.2500 Du        
  16146 ****       108.5000 155.7500 129.5000 Du        
  16147 ****       108.5000 155.7500 129.7500 Du        
  16148 ****       108.5000 155.7500 130.0000 Du        
  16149 ****       108.5000 155.7500 130.2500 Du        
  16150 ****       108.5000 155.7500 139.7500 Du        
  16151 ****       108.5000 155.7500 140.0000 Du        
  16152 ****       108.5000 155.7500 140.2500 Du        
  16153 ****       108.5000 155.7500 140.5000 Du        
  16154 ****       108.5000 156.0000 129.0000 Du        
  16155 ****       108.5000 156.0000 129.2500 Du        
  16156 ****       108.5000 156.0000 129.5000 Du        
  16157 ****       108.5000 156.0000 129.7500 Du        
  16158 ****       108.5000 156.0000 130.0000 Du        
  16159 ****       108.5000 156.0000 130.2500 Du        
  16160 ****       108.5000 156.0000 130.5000 Du        
  16161 ****       108.5000 156.0000 139.5000 Du        
  16162 ****       108.5000 156.0000 139.7500 Du        
  16163 ****       108.5000 156.0000 140.0000 Du        
  16164 ****       108.5000 156.0000 140.2500 Du        
  16165 ****       108.5000 156.2500 129.0000 Du        
  16166 ****       108.5000 156.2500 129.2500 Du        
  16167 ****       108.5000 156.2500 129.5000 Du        
  16168 ****       108.5000 156.2500 129.7500 Du        
  16169 ****       108.5000 156.2500 130.0000 Du        
  16170 ****       108.5000 156.2500 130.2500 Du        
  16171 ****       108.5000 156.2500 130.5000 Du        
  16172 ****       108.5000 156.2500 139.2500 Du        
  16173 ****       108.5000 156.2500 139.5000 Du        
  16174 ****       108.5000 156.2500 139.7500 Du        
  16175 ****       108.5000 156.2500 140.0000 Du        
  16176 ****       108.5000 156.5000 128.7500 Du        
  16177 ****       108.5000 156.5000 129.0000 Du        
  16178 ****       108.5000 156.5000 129.2500 Du        
  16179 ****       108.5000 156.5000 129.5000 Du        
  16180 ****       108.5000 156.5000 129.7500 Du        
  16181 ****       108.5000 156.5000 130.0000 Du        
  16182 ****       108.5000 156.5000 130.2500 Du        
  16183 ****       108.5000 156.5000 130.5000 Du        
  16184 ****       108.5000 156.5000 139.2500 Du        
  16185 ****       108.5000 156.5000 139.5000 Du        
  16186 ****       108.5000 156.5000 139.7500 Du        
  16187 ****       108.5000 156.7500 128.5000 Du        
  16188 ****       108.5000 156.7500 128.7500 Du        
  16189 ****       108.5000 156.7500 129.0000 Du        
  16190 ****       108.5000 156.7500 129.2500 Du        
  16191 ****       108.5000 156.7500 129.5000 Du        
  16192 ****       108.5000 156.7500 129.7500 Du        
  16193 ****       108.5000 156.7500 130.0000 Du        
  16194 ****       108.5000 156.7500 130.2500 Du        
  16195 ****       108.5000 156.7500 130.5000 Du        
  16196 ****       108.5000 156.7500 139.2500 Du        
  16197 ****       108.5000 156.7500 139.5000 Du        
  16198 ****       108.5000 157.0000 128.5000 Du        
  16199 ****       108.5000 157.0000 128.7500 Du        
  16200 ****       108.5000 157.0000 129.0000 Du        
  16201 ****       108.5000 157.0000 129.2500 Du        
  16202 ****       108.5000 157.0000 129.5000 Du        
  16203 ****       108.5000 157.0000 129.7500 Du        
  16204 ****       108.5000 157.0000 130.0000 Du        
  16205 ****       108.5000 157.0000 130.2500 Du        
  16206 ****       108.5000 157.0000 130.5000 Du        
  16207 ****       108.5000 157.0000 139.2500 Du        
  16208 ****       108.5000 157.2500 128.2500 Du        
  16209 ****       108.5000 157.2500 128.5000 Du        
  16210 ****       108.5000 157.2500 128.7500 Du        
  16211 ****       108.5000 157.2500 129.0000 Du        
  16212 ****       108.5000 157.2500 129.2500 Du        
  16213 ****       108.5000 157.2500 129.5000 Du        
  16214 ****       108.5000 157.2500 129.7500 Du        
  16215 ****       108.5000 157.2500 130.0000 Du        
  16216 ****       108.5000 157.2500 130.2500 Du        
  16217 ****       108.5000 157.5000 128.0000 Du        
  16218 ****       108.5000 157.5000 128.2500 Du        
  16219 ****       108.5000 157.5000 128.5000 Du        
  16220 ****       108.5000 157.5000 128.7500 Du        
  16221 ****       108.5000 157.5000 129.0000 Du        
  16222 ****       108.5000 157.5000 129.2500 Du        
  16223 ****       108.5000 157.5000 129.5000 Du        
  16224 ****       108.5000 157.5000 129.7500 Du        
  16225 ****       108.5000 157.5000 130.0000 Du        
  16226 ****       108.5000 157.7500 128.0000 Du        
  16227 ****       108.5000 157.7500 128.2500 Du        
  16228 ****       108.5000 157.7500 128.5000 Du        
  16229 ****       108.5000 157.7500 128.7500 Du        
  16230 ****       108.5000 157.7500 129.0000 Du        
  16231 ****       108.5000 157.7500 129.2500 Du        
  16232 ****       108.5000 157.7500 129.5000 Du        
  16233 ****       108.5000 157.7500 129.7500 Du        
  16234 ****       108.5000 158.0000 128.2500 Du        
  16235 ****       108.5000 158.0000 128.5000 Du        
  16236 ****       108.5000 158.0000 128.7500 Du        
  16237 ****       108.5000 158.0000 129.0000 Du        
  16238 ****       108.5000 158.0000 129.2500 Du        
  16239 ****       108.5000 158.0000 129.5000 Du        
  16240 ****       108.5000 158.2500 129.2500 Du        
  16241 ****       108.5000 158.7500 136.2500 Du        
  16242 ****       108.5000 159.0000 135.5000 Du        
  16243 ****       108.5000 159.0000 135.7500 Du        
  16244 ****       108.5000 159.0000 136.0000 Du        
  16245 ****       108.5000 159.0000 136.2500 Du        
  16246 ****       108.5000 159.0000 136.5000 Du        
  16247 ****       108.5000 159.2500 135.5000 Du        
  16248 ****       108.5000 159.2500 135.7500 Du        
  16249 ****       108.5000 159.2500 136.0000 Du        
  16250 ****       108.5000 159.2500 136.2500 Du        
  16251 ****       108.5000 159.2500 136.5000 Du        
  16252 ****       108.5000 159.2500 136.7500 Du        
  16253 ****       108.5000 159.5000 135.5000 Du        
  16254 ****       108.5000 159.5000 135.7500 Du        
  16255 ****       108.5000 159.5000 136.0000 Du        
  16256 ****       108.5000 159.5000 136.2500 Du        
  16257 ****       108.5000 159.5000 136.5000 Du        
  16258 ****       108.5000 159.5000 136.7500 Du        
  16259 ****       108.5000 159.7500 135.5000 Du        
  16260 ****       108.5000 159.7500 135.7500 Du        
  16261 ****       108.5000 159.7500 136.0000 Du        
  16262 ****       108.5000 159.7500 136.2500 Du        
  16263 ****       108.5000 159.7500 136.5000 Du        
  16264 ****       108.5000 159.7500 136.7500 Du        
  16265 ****       108.5000 159.7500 137.0000 Du        
  16266 ****       108.5000 160.0000 135.5000 Du        
  16267 ****       108.5000 160.0000 135.7500 Du        
  16268 ****       108.5000 160.0000 136.0000 Du        
  16269 ****       108.5000 160.0000 136.2500 Du        
  16270 ****       108.5000 160.0000 136.5000 Du        
  16271 ****       108.5000 160.0000 136.7500 Du        
  16272 ****       108.5000 160.0000 137.0000 Du        
  16273 ****       108.5000 160.2500 135.5000 Du        
  16274 ****       108.5000 160.2500 135.7500 Du        
  16275 ****       108.5000 160.2500 136.0000 Du        
  16276 ****       108.5000 160.2500 136.2500 Du        
  16277 ****       108.5000 160.2500 136.5000 Du        
  16278 ****       108.5000 160.2500 136.7500 Du        
  16279 ****       108.5000 160.2500 137.0000 Du        
  16280 ****       108.5000 160.2500 137.2500 Du        
  16281 ****       108.5000 160.5000 135.7500 Du        
  16282 ****       108.5000 160.5000 136.0000 Du        
  16283 ****       108.5000 160.5000 136.2500 Du        
  16284 ****       108.5000 160.5000 136.5000 Du        
  16285 ****       108.5000 160.5000 136.7500 Du        
  16286 ****       108.5000 160.5000 137.0000 Du        
  16287 ****       108.5000 160.5000 137.2500 Du        
  16288 ****       108.5000 160.7500 135.7500 Du        
  16289 ****       108.5000 160.7500 136.0000 Du        
  16290 ****       108.5000 160.7500 136.2500 Du        
  16291 ****       108.5000 160.7500 136.5000 Du        
  16292 ****       108.5000 160.7500 136.7500 Du        
  16293 ****       108.5000 160.7500 137.0000 Du        
  16294 ****       108.5000 160.7500 137.2500 Du        
  16295 ****       108.5000 160.7500 137.5000 Du        
  16296 ****       108.5000 160.7500 137.7500 Du        
  16297 ****       108.5000 160.7500 138.0000 Du        
  16298 ****       108.5000 161.0000 136.2500 Du        
  16299 ****       108.5000 161.0000 136.5000 Du        
  16300 ****       108.5000 161.0000 136.7500 Du        
  16301 ****       108.5000 161.0000 137.0000 Du        
  16302 ****       108.5000 161.0000 137.2500 Du        
  16303 ****       108.5000 161.0000 137.5000 Du        
  16304 ****       108.5000 161.0000 137.7500 Du        
  16305 ****       108.5000 161.0000 138.0000 Du        
  16306 ****       108.5000 161.0000 138.2500 Du        
  16307 ****       108.5000 161.2500 137.0000 Du        
  16308 ****       108.5000 161.2500 137.2500 Du        
  16309 ****       108.5000 161.2500 137.5000 Du        
  16310 ****       108.5000 161.2500 137.7500 Du        
  16311 ****       108.5000 161.2500 138.0000 Du        
  16312 ****       108.5000 161.2500 138.2500 Du        
  16313 ****       108.5000 161.5000 137.5000 Du        
  16314 ****       108.5000 161.5000 137.7500 Du        
  16315 ****       108.5000 161.5000 138.0000 Du        
  16316 ****       108.5000 161.5000 138.2500 Du        
  16317 ****       108.5000 161.7500 137.7500 Du        
  16318 ****       108.5000 161.7500 138.0000 Du        
  16319 ****       108.5000 161.7500 138.2500 Du        
  16320 ****       108.5000 162.0000 138.0000 Du        
  16321 ****       108.5000 162.0000 138.2500 Du        
  16322 ****       108.7500 150.0000 144.2500 Du        
  16323 ****       108.7500 150.2500 144.0000 Du        
  16324 ****       108.7500 150.2500 144.2500 Du        
  16325 ****       108.7500 150.5000 144.0000 Du        
  16326 ****       108.7500 150.5000 144.2500 Du        
  16327 ****       108.7500 150.7500 144.0000 Du        
  16328 ****       108.7500 150.7500 144.2500 Du        
  16329 ****       108.7500 155.0000 141.0000 Du        
  16330 ****       108.7500 155.2500 140.0000 Du        
  16331 ****       108.7500 155.2500 140.2500 Du        
  16332 ****       108.7500 155.2500 140.5000 Du        
  16333 ****       108.7500 155.2500 140.7500 Du        
  16334 ****       108.7500 155.5000 139.7500 Du        
  16335 ****       108.7500 155.5000 140.0000 Du        
  16336 ****       108.7500 155.5000 140.2500 Du        
  16337 ****       108.7500 155.7500 129.7500 Du        
  16338 ****       108.7500 155.7500 130.0000 Du        
  16339 ****       108.7500 155.7500 139.5000 Du        
  16340 ****       108.7500 155.7500 139.7500 Du        
  16341 ****       108.7500 155.7500 140.0000 Du        
  16342 ****       108.7500 155.7500 140.2500 Du        
  16343 ****       108.7500 156.0000 129.2500 Du        
  16344 ****       108.7500 156.0000 129.5000 Du        
  16345 ****       108.7500 156.0000 129.7500 Du        
  16346 ****       108.7500 156.0000 130.0000 Du        
  16347 ****       108.7500 156.0000 130.2500 Du        
  16348 ****       108.7500 156.0000 139.2500 Du        
  16349 ****       108.7500 156.0000 139.5000 Du        
  16350 ****       108.7500 156.0000 139.7500 Du        
  16351 ****       108.7500 156.0000 140.0000 Du        
  16352 ****       108.7500 156.2500 129.2500 Du        
  16353 ****       108.7500 156.2500 129.5000 Du        
  16354 ****       108.7500 156.2500 129.7500 Du        
  16355 ****       108.7500 156.2500 130.0000 Du        
  16356 ****       108.7500 156.2500 130.2500 Du        
  16357 ****       108.7500 156.2500 139.2500 Du        
  16358 ****       108.7500 156.2500 139.5000 Du        
  16359 ****       108.7500 156.5000 129.0000 Du        
  16360 ****       108.7500 156.5000 129.2500 Du        
  16361 ****       108.7500 156.5000 129.5000 Du        
  16362 ****       108.7500 156.5000 129.7500 Du        
  16363 ****       108.7500 156.5000 130.0000 Du        
  16364 ****       108.7500 156.5000 130.2500 Du        
  16365 ****       108.7500 156.7500 128.7500 Du        
  16366 ****       108.7500 156.7500 129.0000 Du        
  16367 ****       108.7500 156.7500 129.2500 Du        
  16368 ****       108.7500 156.7500 129.5000 Du        
  16369 ****       108.7500 156.7500 129.7500 Du        
  16370 ****       108.7500 156.7500 130.0000 Du        
  16371 ****       108.7500 156.7500 130.2500 Du        
  16372 ****       108.7500 157.0000 128.7500 Du        
  16373 ****       108.7500 157.0000 129.0000 Du        
  16374 ****       108.7500 157.0000 129.2500 Du        
  16375 ****       108.7500 157.0000 129.5000 Du        
  16376 ****       108.7500 157.0000 129.7500 Du        
  16377 ****       108.7500 157.0000 130.0000 Du        
  16378 ****       108.7500 157.0000 130.2500 Du        
  16379 ****       108.7500 157.2500 128.5000 Du        
  16380 ****       108.7500 157.2500 128.7500 Du        
  16381 ****       108.7500 157.2500 129.0000 Du        
  16382 ****       108.7500 157.2500 129.2500 Du        
  16383 ****       108.7500 157.2500 129.5000 Du        
  16384 ****       108.7500 157.2500 129.7500 Du        
  16385 ****       108.7500 157.2500 130.0000 Du        
  16386 ****       108.7500 157.5000 128.2500 Du        
  16387 ****       108.7500 157.5000 128.5000 Du        
  16388 ****       108.7500 157.5000 128.7500 Du        
  16389 ****       108.7500 157.5000 129.0000 Du        
  16390 ****       108.7500 157.5000 129.2500 Du        
  16391 ****       108.7500 157.5000 129.5000 Du        
  16392 ****       108.7500 157.5000 129.7500 Du        
  16393 ****       108.7500 157.7500 128.2500 Du        
  16394 ****       108.7500 157.7500 128.5000 Du        
  16395 ****       108.7500 157.7500 128.7500 Du        
  16396 ****       108.7500 157.7500 129.0000 Du        
  16397 ****       108.7500 157.7500 129.2500 Du        
  16398 ****       108.7500 157.7500 129.5000 Du        
  16399 ****       108.7500 158.0000 128.5000 Du        
  16400 ****       108.7500 158.0000 128.7500 Du        
  16401 ****       108.7500 158.0000 129.0000 Du        
  16402 ****       108.7500 158.0000 129.2500 Du        
  16403 ****       108.7500 159.0000 135.7500 Du        
  16404 ****       108.7500 159.0000 136.0000 Du        
  16405 ****       108.7500 159.0000 136.2500 Du        
  16406 ****       108.7500 159.2500 135.7500 Du        
  16407 ****       108.7500 159.2500 136.0000 Du        
  16408 ****       108.7500 159.2500 136.2500 Du        
  16409 ****       108.7500 159.5000 135.7500 Du        
  16410 ****       108.7500 159.5000 136.0000 Du        
  16411 ****       108.7500 159.5000 136.2500 Du        
  16412 ****       108.7500 159.5000 136.5000 Du        
  16413 ****       108.7500 159.7500 135.7500 Du        
  16414 ****       108.7500 159.7500 136.0000 Du        
  16415 ****       108.7500 159.7500 136.2500 Du        
  16416 ****       108.7500 159.7500 136.5000 Du        
  16417 ****       108.7500 160.0000 135.7500 Du        
  16418 ****       108.7500 160.0000 136.0000 Du        
  16419 ****       108.7500 160.0000 136.2500 Du        
  16420 ****       108.7500 160.0000 136.5000 Du        
  16421 ****       108.7500 160.0000 136.7500 Du        
  16422 ****       108.7500 160.2500 135.7500 Du        
  16423 ****       108.7500 160.2500 136.0000 Du        
  16424 ****       108.7500 160.2500 136.2500 Du        
  16425 ****       108.7500 160.2500 136.5000 Du        
  16426 ****       108.7500 160.2500 136.7500 Du        
  16427 ****       108.7500 160.2500 137.0000 Du        
  16428 ****       108.7500 160.5000 135.7500 Du        
  16429 ****       108.7500 160.5000 136.0000 Du        
  16430 ****       108.7500 160.5000 136.2500 Du        
  16431 ****       108.7500 160.5000 136.5000 Du        
  16432 ****       108.7500 160.5000 136.7500 Du        
  16433 ****       108.7500 160.5000 137.0000 Du        
  16434 ****       108.7500 160.7500 136.0000 Du        
  16435 ****       108.7500 160.7500 136.2500 Du        
  16436 ****       108.7500 160.7500 136.5000 Du        
  16437 ****       108.7500 160.7500 136.7500 Du        
  16438 ****       108.7500 160.7500 137.0000 Du        
  16439 ****       108.7500 160.7500 137.2500 Du        
  16440 ****       108.7500 161.0000 136.5000 Du        
  16441 ****       108.7500 161.0000 136.7500 Du        
  16442 ****       108.7500 161.0000 137.0000 Du        
  16443 ****       108.7500 161.0000 137.2500 Du        
  16444 ****       108.7500 161.0000 137.5000 Du        
  16445 ****       108.7500 161.0000 137.7500 Du        
  16446 ****       108.7500 161.0000 138.0000 Du        
  16447 ****       108.7500 161.2500 137.2500 Du        
  16448 ****       108.7500 161.2500 137.5000 Du        
  16449 ****       108.7500 161.2500 137.7500 Du        
  16450 ****       108.7500 161.2500 138.0000 Du        
  16451 ****       108.7500 161.2500 138.2500 Du        
  16452 ****       108.7500 161.5000 137.7500 Du        
  16453 ****       108.7500 161.5000 138.0000 Du        
  16454 ****       108.7500 161.5000 138.2500 Du        
  16455 ****       108.7500 161.7500 138.0000 Du        
  16456 ****       108.7500 161.7500 138.2500 Du        
  16457 ****       108.7500 161.7500 138.5000 Du        
  16458 ****       108.7500 162.0000 138.2500 Du        
  16459 ****       108.7500 162.0000 138.7500 Du        
  16460 ****       109.0000 150.0000 144.0000 Du        
  16461 ****       109.0000 150.0000 144.2500 Du        
  16462 ****       109.0000 150.2500 143.7500 Du        
  16463 ****       109.0000 150.2500 144.0000 Du        
  16464 ****       109.0000 150.2500 144.2500 Du        
  16465 ****       109.0000 150.5000 144.0000 Du        
  16466 ****       109.0000 150.5000 144.2500 Du        
  16467 ****       109.0000 150.7500 143.2500 Du        
  16468 ****       109.0000 150.7500 143.7500 Du        
  16469 ****       109.0000 150.7500 144.0000 Du        
  16470 ****       109.0000 150.7500 144.2500 Du        
  16471 ****       109.0000 151.0000 143.0000 Du        
  16472 ****       109.0000 151.0000 143.2500 Du        
  16473 ****       109.0000 151.0000 144.0000 Du        
  16474 ****       109.0000 151.2500 143.2500 Du        
  16475 ****       109.0000 155.0000 140.2500 Du        
  16476 ****       109.0000 155.2500 140.0000 Du        
  16477 ****       109.0000 155.2500 140.2500 Du        
  16478 ****       109.0000 155.5000 139.7500 Du        
  16479 ****       109.0000 155.5000 140.0000 Du        
  16480 ****       109.0000 155.7500 139.5000 Du        
  16481 ****       109.0000 155.7500 139.7500 Du        
  16482 ****       109.0000 156.2500 129.5000 Du        
  16483 ****       109.0000 156.2500 129.7500 Du        
  16484 ****       109.0000 156.2500 130.0000 Du        
  16485 ****       109.0000 156.5000 129.2500 Du        
  16486 ****       109.0000 156.5000 129.5000 Du        
  16487 ****       109.0000 156.5000 129.7500 Du        
  16488 ****       109.0000 156.5000 130.0000 Du        
  16489 ****       109.0000 156.7500 129.0000 Du        
  16490 ****       109.0000 156.7500 129.2500 Du        
  16491 ****       109.0000 156.7500 129.5000 Du        
  16492 ****       109.0000 156.7500 129.7500 Du        
  16493 ****       109.0000 156.7500 130.0000 Du        
  16494 ****       109.0000 157.0000 128.7500 Du        
  16495 ****       109.0000 157.0000 129.0000 Du        
  16496 ****       109.0000 157.0000 129.2500 Du        
  16497 ****       109.0000 157.0000 129.5000 Du        
  16498 ****       109.0000 157.0000 129.7500 Du        
  16499 ****       109.0000 157.0000 130.0000 Du        
  16500 ****       109.0000 157.2500 128.7500 Du        
  16501 ****       109.0000 157.2500 129.0000 Du        
  16502 ****       109.0000 157.2500 129.2500 Du        
  16503 ****       109.0000 157.2500 129.5000 Du        
  16504 ****       109.0000 157.2500 129.7500 Du        
  16505 ****       109.0000 157.5000 128.5000 Du        
  16506 ****       109.0000 157.5000 128.7500 Du        
  16507 ****       109.0000 157.5000 129.0000 Du        
  16508 ****       109.0000 157.5000 129.2500 Du        
  16509 ****       109.0000 157.5000 129.5000 Du        
  16510 ****       109.0000 157.7500 128.2500 Du        
  16511 ****       109.0000 157.7500 128.5000 Du        
  16512 ****       109.0000 157.7500 128.7500 Du        
  16513 ****       109.0000 157.7500 129.0000 Du        
  16514 ****       109.0000 157.7500 129.2500 Du        
  16515 ****       109.0000 158.0000 128.5000 Du        
  16516 ****       109.0000 158.0000 128.7500 Du        
  16517 ****       109.0000 158.0000 129.0000 Du        
  16518 ****       109.0000 158.0000 129.2500 Du        
  16519 ****       109.0000 159.2500 135.7500 Du        
  16520 ****       109.0000 159.2500 136.0000 Du        
  16521 ****       109.0000 159.5000 136.0000 Du        
  16522 ****       109.0000 159.7500 136.0000 Du        
  16523 ****       109.0000 159.7500 136.2500 Du        
  16524 ****       109.0000 160.0000 136.0000 Du        
  16525 ****       109.0000 160.0000 136.2500 Du        
  16526 ****       109.0000 160.2500 136.0000 Du        
  16527 ****       109.0000 160.2500 136.2500 Du        
  16528 ****       109.0000 160.2500 136.5000 Du        
  16529 ****       109.0000 160.5000 136.0000 Du        
  16530 ****       109.0000 160.5000 136.2500 Du        
  16531 ****       109.0000 160.5000 136.5000 Du        
  16532 ****       109.0000 160.5000 136.7500 Du        
  16533 ****       109.0000 160.7500 136.2500 Du        
  16534 ****       109.0000 160.7500 136.5000 Du        
  16535 ****       109.0000 160.7500 136.7500 Du        
  16536 ****       109.0000 160.7500 137.0000 Du        
  16537 ****       109.0000 161.0000 136.7500 Du        
  16538 ****       109.0000 161.0000 137.0000 Du        
  16539 ****       109.0000 161.0000 137.2500 Du        
  16540 ****       109.0000 161.2500 137.7500 Du        
  16541 ****       109.0000 161.5000 137.7500 Du        
  16542 ****       109.0000 161.5000 138.0000 Du        
  16543 ****       109.0000 161.5000 138.2500 Du        
  16544 ****       109.0000 161.7500 138.0000 Du        
  16545 ****       109.0000 161.7500 138.2500 Du        
  16546 ****       109.0000 161.7500 138.5000 Du        
  16547 ****       109.0000 161.7500 138.7500 Du        
  16548 ****       109.0000 162.0000 138.2500 Du        
  16549 ****       109.0000 162.0000 138.7500 Du        
  16550 ****       109.0000 162.0000 139.0000 Du        
  16551 ****       109.2500 149.7500 144.2500 Du        
  16552 ****       109.2500 150.0000 144.0000 Du        
  16553 ****       109.2500 150.0000 144.2500 Du        
  16554 ****       109.2500 150.2500 143.7500 Du        
  16555 ****       109.2500 150.2500 144.0000 Du        
  16556 ****       109.2500 150.2500 144.2500 Du        
  16557 ****       109.2500 150.5000 143.2500 Du        
  16558 ****       109.2500 150.7500 143.0000 Du        
  16559 ****       109.2500 150.7500 143.2500 Du        
  16560 ****       109.2500 151.0000 142.7500 Du        
  16561 ****       109.2500 151.0000 143.0000 Du        
  16562 ****       109.2500 151.0000 143.2500 Du        
  16563 ****       109.2500 151.2500 142.7500 Du        
  16564 ****       109.2500 151.2500 143.0000 Du        
  16565 ****       109.2500 151.2500 143.2500 Du        
  16566 ****       109.2500 151.5000 143.2500 Du        
  16567 ****       109.2500 155.0000 140.0000 Du        
  16568 ****       109.2500 155.0000 140.2500 Du        
  16569 ****       109.2500 155.2500 139.7500 Du        
  16570 ****       109.2500 155.2500 140.0000 Du        
  16571 ****       109.2500 155.5000 139.7500 Du        
  16572 ****       109.2500 156.5000 129.7500 Du        
  16573 ****       109.2500 156.7500 129.2500 Du        
  16574 ****       109.2500 156.7500 129.5000 Du        
  16575 ****       109.2500 156.7500 129.7500 Du        
  16576 ****       109.2500 157.0000 129.0000 Du        
  16577 ****       109.2500 157.0000 129.2500 Du        
  16578 ****       109.2500 157.0000 129.5000 Du        
  16579 ****       109.2500 157.0000 129.7500 Du        
  16580 ****       109.2500 157.2500 129.0000 Du        
  16581 ****       109.2500 157.2500 129.2500 Du        
  16582 ****       109.2500 157.2500 129.5000 Du        
  16583 ****       109.2500 157.5000 128.7500 Du        
  16584 ****       109.2500 157.5000 129.0000 Du        
  16585 ****       109.2500 157.5000 129.2500 Du        
  16586 ****       109.2500 157.5000 129.5000 Du        
  16587 ****       109.2500 157.7500 128.5000 Du        
  16588 ****       109.2500 157.7500 128.7500 Du        
  16589 ****       109.2500 157.7500 129.0000 Du        
  16590 ****       109.2500 157.7500 129.2500 Du        
  16591 ****       109.2500 158.0000 128.7500 Du        
  16592 ****       109.2500 158.0000 129.0000 Du        
  16593 ****       109.2500 161.7500 138.2500 Du        
  16594 ****       109.2500 161.7500 138.7500 Du        
  16595 ****       109.2500 162.0000 138.2500 Du        
  16596 ****       109.2500 162.0000 138.7500 Du        
  16597 ****       109.2500 162.0000 139.0000 Du        
  16598 ****       109.2500 162.2500 139.0000 Du        
  16599 ****       109.5000 150.2500 143.7500 Du        
  16600 ****       109.5000 150.5000 143.2500 Du        
  16601 ****       109.5000 150.7500 143.0000 Du        
  16602 ****       109.5000 150.7500 143.2500 Du        
  16603 ****       109.5000 151.0000 143.0000 Du        
  16604 ****       109.5000 151.0000 143.2500 Du        
  16605 ****       109.5000 151.2500 142.7500 Du        
  16606 ****       109.5000 151.2500 143.0000 Du        
  16607 ****       109.5000 151.2500 143.2500 Du        
  16608 ****       109.5000 154.2500 141.0000 Du        
  16609 ****       109.5000 154.2500 141.2500 Du        
  16610 ****       109.5000 155.0000 140.0000 Du        
  16611 ****       109.5000 155.2500 139.7500 Du        
  16612 ****       109.5000 157.2500 129.2500 Du        
  16613 ****       109.5000 157.5000 129.0000 Du        
  16614 ****       109.5000 157.5000 129.2500 Du        
  16615 ****       109.5000 157.7500 128.7500 Du        
  16616 ****       109.5000 157.7500 129.0000 Du        
  16617 ****       109.5000 162.0000 138.2500 Du        
  16618 ****       109.5000 162.0000 138.7500 Du        
  16619 ****       109.5000 162.0000 139.0000 Du        
  16620 ****       109.5000 162.2500 139.0000 Du        
  16621 ****       109.5000 162.2500 139.2500 Du        
  16622 ****       109.7500 141.2500 140.2500 Du        
  16623 ****       109.7500 141.5000 140.0000 Du        
  16624 ****       109.7500 141.5000 140.2500 Du        
  16625 ****       109.7500 141.5000 140.5000 Du        
  16626 ****       109.7500 141.5000 140.7500 Du        
  16627 ****       109.7500 141.5000 141.0000 Du        
  16628 ****       109.7500 141.7500 140.2500 Du        
  16629 ****       109.7500 141.7500 140.5000 Du        
  16630 ****       109.7500 141.7500 140.7500 Du        
  16631 ****       109.7500 141.7500 141.0000 Du        
  16632 ****       109.7500 141.7500 141.2500 Du        
  16633 ****       109.7500 150.2500 143.5000 Du        
  16634 ****       109.7500 150.2500 143.7500 Du        
  16635 ****       109.7500 150.5000 143.2500 Du        
  16636 ****       109.7500 150.7500 143.0000 Du        
  16637 ****       109.7500 150.7500 143.2500 Du        
  16638 ****       109.7500 151.0000 142.7500 Du        
  16639 ****       109.7500 151.0000 143.0000 Du        
  16640 ****       109.7500 151.0000 143.2500 Du        
  16641 ****       109.7500 151.2500 142.7500 Du        
  16642 ****       109.7500 151.2500 143.0000 Du        
  16643 ****       109.7500 151.7500 142.2500 Du        
  16644 ****       109.7500 152.0000 142.2500 Du        
  16645 ****       109.7500 152.0000 142.7500 Du        
  16646 ****       109.7500 152.2500 142.0000 Du        
  16647 ****       109.7500 152.2500 142.2500 Du        
  16648 ****       109.7500 153.0000 142.0000 Du        
  16649 ****       109.7500 154.0000 141.0000 Du        
  16650 ****       109.7500 154.0000 141.2500 Du        
  16651 ****       109.7500 154.2500 140.7500 Du        
  16652 ****       109.7500 154.2500 141.0000 Du        
  16653 ****       109.7500 154.2500 141.2500 Du        
  16654 ****       109.7500 154.7500 140.0000 Du        
  16655 ****       109.7500 155.0000 139.7500 Du        
  16656 ****       109.7500 162.0000 139.0000 Du        
  16657 ****       109.7500 162.2500 139.2500 Du        
  16658 ****       109.7500 162.5000 139.2500 Du        
  16659 ****       110.0000 135.5000 133.0000 Du        
  16660 ****       110.0000 141.2500 140.0000 Du        
  16661 ****       110.0000 141.2500 140.2500 Du        
  16662 ****       110.0000 141.2500 140.5000 Du        
  16663 ****       110.0000 141.2500 140.7500 Du        
  16664 ****       110.0000 141.5000 139.7500 Du        
  16665 ****       110.0000 141.5000 140.0000 Du        
  16666 ****       110.0000 141.5000 140.2500 Du        
  16667 ****       110.0000 141.5000 140.5000 Du        
  16668 ****       110.0000 141.5000 140.7500 Du        
  16669 ****       110.0000 141.5000 141.0000 Du        
  16670 ****       110.0000 141.7500 140.0000 Du        
  16671 ****       110.0000 141.7500 140.2500 Du        
  16672 ****       110.0000 141.7500 140.5000 Du        
  16673 ****       110.0000 141.7500 140.7500 Du        
  16674 ****       110.0000 141.7500 141.0000 Du        
  16675 ****       110.0000 150.0000 143.7500 Du        
  16676 ****       110.0000 150.2500 143.5000 Du        
  16677 ****       110.0000 150.2500 143.7500 Du        
  16678 ****       110.0000 150.5000 143.2500 Du        
  16679 ****       110.0000 150.7500 143.0000 Du        
  16680 ****       110.0000 150.7500 143.2500 Du        
  16681 ****       110.0000 151.0000 142.7500 Du        
  16682 ****       110.0000 151.0000 143.0000 Du        
  16683 ****       110.0000 151.0000 143.2500 Du        
  16684 ****       110.0000 151.2500 142.7500 Du        
  16685 ****       110.0000 151.2500 143.0000 Du        
  16686 ****       110.0000 151.7500 142.2500 Du        
  16687 ****       110.0000 152.0000 142.0000 Du        
  16688 ****       110.0000 152.0000 142.2500 Du        
  16689 ****       110.0000 152.2500 141.7500 Du        
  16690 ****       110.0000 152.2500 142.0000 Du        
  16691 ****       110.0000 152.2500 142.2500 Du        
  16692 ****       110.0000 152.7500 142.0000 Du        
  16693 ****       110.0000 153.0000 141.7500 Du        
  16694 ****       110.0000 153.0000 142.0000 Du        
  16695 ****       110.0000 153.2500 141.7500 Du        
  16696 ****       110.0000 153.5000 141.2500 Du        
  16697 ****       110.0000 153.7500 141.0000 Du        
  16698 ****       110.0000 153.7500 141.2500 Du        
  16699 ****       110.0000 154.0000 140.7500 Du        
  16700 ****       110.0000 154.0000 141.0000 Du        
  16701 ****       110.0000 154.0000 141.2500 Du        
  16702 ****       110.0000 154.2500 140.5000 Du        
  16703 ****       110.0000 154.2500 140.7500 Du        
  16704 ****       110.0000 154.2500 141.0000 Du        
  16705 ****       110.0000 154.5000 140.0000 Du        
  16706 ****       110.0000 154.5000 140.2500 Du        
  16707 ****       110.0000 154.7500 139.7500 Du        
  16708 ****       110.0000 154.7500 140.0000 Du        
  16709 ****       110.0000 170.7500 137.2500 Du        
  16710 ****       110.0000 170.7500 137.5000 Du        
  16711 ****       110.0000 170.7500 137.7500 Du        
  16712 ****       110.0000 170.7500 138.0000 Du        
  16713 ****       110.2500 135.5000 132.7500 Du        
  16714 ****       110.2500 135.5000 133.0000 Du        
  16715 ****       110.2500 141.0000 140.0000 Du        
  16716 ****       110.2500 141.0000 140.2500 Du        
  16717 ****       110.2500 141.2500 139.2500 Du        
  16718 ****       110.2500 141.2500 139.5000 Du        
  16719 ****       110.2500 141.2500 139.7500 Du        
  16720 ****       110.2500 141.2500 140.0000 Du        
  16721 ****       110.2500 141.2500 140.2500 Du        
  16722 ****       110.2500 141.2500 140.5000 Du        
  16723 ****       110.2500 141.5000 139.2500 Du        
  16724 ****       110.2500 141.5000 139.5000 Du        
  16725 ****       110.2500 141.5000 139.7500 Du        
  16726 ****       110.2500 141.5000 140.0000 Du        
  16727 ****       110.2500 141.5000 140.2500 Du        
  16728 ****       110.2500 141.5000 140.5000 Du        
  16729 ****       110.2500 141.5000 140.7500 Du        
  16730 ****       110.2500 141.5000 141.0000 Du        
  16731 ****       110.2500 141.7500 139.7500 Du        
  16732 ****       110.2500 141.7500 140.0000 Du        
  16733 ****       110.2500 141.7500 140.2500 Du        
  16734 ****       110.2500 141.7500 140.5000 Du        
  16735 ****       110.2500 141.7500 140.7500 Du        
  16736 ****       110.2500 141.7500 141.0000 Du        
  16737 ****       110.2500 150.2500 143.2500 Du        
  16738 ****       110.2500 150.7500 142.7500 Du        
  16739 ****       110.2500 151.2500 142.7500 Du        
  16740 ****       110.2500 151.5000 142.2500 Du        
  16741 ****       110.2500 151.7500 142.0000 Du        
  16742 ****       110.2500 151.7500 142.2500 Du        
  16743 ****       110.2500 152.0000 141.7500 Du        
  16744 ****       110.2500 152.0000 142.0000 Du        
  16745 ****       110.2500 152.0000 142.2500 Du        
  16746 ****       110.2500 152.2500 141.7500 Du        
  16747 ****       110.2500 152.2500 142.0000 Du        
  16748 ****       110.2500 152.2500 142.2500 Du        
  16749 ****       110.2500 152.7500 141.7500 Du        
  16750 ****       110.2500 153.0000 141.2500 Du        
  16751 ****       110.2500 153.0000 141.5000 Du        
  16752 ****       110.2500 153.2500 141.2500 Du        
  16753 ****       110.2500 153.2500 141.5000 Du        
  16754 ****       110.2500 153.5000 141.0000 Du        
  16755 ****       110.2500 153.5000 141.2500 Du        
  16756 ****       110.2500 153.7500 140.7500 Du        
  16757 ****       110.2500 153.7500 141.0000 Du        
  16758 ****       110.2500 153.7500 141.2500 Du        
  16759 ****       110.2500 154.0000 140.2500 Du        
  16760 ****       110.2500 154.0000 140.5000 Du        
  16761 ****       110.2500 154.0000 140.7500 Du        
  16762 ****       110.2500 154.0000 141.0000 Du        
  16763 ****       110.2500 154.0000 141.2500 Du        
  16764 ****       110.2500 154.2500 140.0000 Du        
  16765 ****       110.2500 154.2500 140.2500 Du        
  16766 ****       110.2500 154.2500 140.5000 Du        
  16767 ****       110.2500 154.2500 140.7500 Du        
  16768 ****       110.2500 154.5000 139.5000 Du        
  16769 ****       110.2500 154.5000 139.7500 Du        
  16770 ****       110.2500 154.5000 140.0000 Du        
  16771 ****       110.2500 154.5000 140.2500 Du        
  16772 ****       110.2500 154.7500 139.2500 Du        
  16773 ****       110.2500 154.7500 139.5000 Du        
  16774 ****       110.2500 154.7500 139.7500 Du        
  16775 ****       110.2500 154.7500 140.0000 Du        
  16776 ****       110.2500 170.2500 137.5000 Du        
  16777 ****       110.2500 170.2500 137.7500 Du        
  16778 ****       110.2500 170.2500 138.0000 Du        
  16779 ****       110.2500 170.5000 137.5000 Du        
  16780 ****       110.2500 170.5000 137.7500 Du        
  16781 ****       110.2500 170.5000 138.0000 Du        
  16782 ****       110.2500 170.5000 138.2500 Du        
  16783 ****       110.2500 170.7500 137.2500 Du        
  16784 ****       110.2500 170.7500 137.5000 Du        
  16785 ****       110.2500 170.7500 137.7500 Du        
  16786 ****       110.2500 170.7500 138.0000 Du        
  16787 ****       110.2500 170.7500 138.2500 Du        
  16788 ****       110.5000 135.5000 132.7500 Du        
  16789 ****       110.5000 141.0000 139.2500 Du        
  16790 ****       110.5000 141.0000 139.5000 Du        
  16791 ****       110.5000 141.0000 139.7500 Du        
  16792 ****       110.5000 141.0000 140.0000 Du        
  16793 ****       110.5000 141.0000 140.2500 Du        
  16794 ****       110.5000 141.2500 139.0000 Du        
  16795 ****       110.5000 141.2500 139.2500 Du        
  16796 ****       110.5000 141.2500 139.5000 Du        
  16797 ****       110.5000 141.2500 139.7500 Du        
  16798 ****       110.5000 141.2500 140.0000 Du        
  16799 ****       110.5000 141.2500 140.2500 Du        
  16800 ****       110.5000 141.5000 139.2500 Du        
  16801 ****       110.5000 141.5000 139.5000 Du        
  16802 ****       110.5000 141.5000 139.7500 Du        
  16803 ****       110.5000 141.5000 140.0000 Du        
  16804 ****       110.5000 141.5000 140.2500 Du        
  16805 ****       110.5000 141.7500 139.5000 Du        
  16806 ****       110.5000 141.7500 139.7500 Du        
  16807 ****       110.5000 141.7500 140.0000 Du        
  16808 ****       110.5000 141.7500 140.2500 Du        
  16809 ****       110.5000 151.7500 142.0000 Du        
  16810 ****       110.5000 151.7500 142.2500 Du        
  16811 ****       110.5000 152.0000 141.7500 Du        
  16812 ****       110.5000 152.0000 142.0000 Du        
  16813 ****       110.5000 152.2500 141.2500 Du        
  16814 ****       110.5000 152.2500 141.5000 Du        
  16815 ****       110.5000 152.2500 141.7500 Du        
  16816 ****       110.5000 152.2500 142.0000 Du        
  16817 ****       110.5000 152.7500 141.2500 Du        
  16818 ****       110.5000 153.0000 141.0000 Du        
  16819 ****       110.5000 153.0000 141.2500 Du        
  16820 ****       110.5000 153.0000 141.5000 Du        
  16821 ****       110.5000 153.2500 140.7500 Du        
  16822 ****       110.5000 153.2500 141.0000 Du        
  16823 ****       110.5000 153.2500 141.2500 Du        
  16824 ****       110.5000 153.2500 141.5000 Du        
  16825 ****       110.5000 153.5000 140.7500 Du        
  16826 ****       110.5000 153.5000 141.0000 Du        
  16827 ****       110.5000 153.5000 141.2500 Du        
  16828 ****       110.5000 153.7500 140.2500 Du        
  16829 ****       110.5000 153.7500 140.5000 Du        
  16830 ****       110.5000 153.7500 140.7500 Du        
  16831 ****       110.5000 153.7500 141.0000 Du        
  16832 ****       110.5000 153.7500 141.2500 Du        
  16833 ****       110.5000 154.0000 139.7500 Du        
  16834 ****       110.5000 154.0000 140.0000 Du        
  16835 ****       110.5000 154.0000 140.2500 Du        
  16836 ****       110.5000 154.0000 140.5000 Du        
  16837 ****       110.5000 154.0000 140.7500 Du        
  16838 ****       110.5000 154.0000 141.0000 Du        
  16839 ****       110.5000 154.2500 139.5000 Du        
  16840 ****       110.5000 154.2500 139.7500 Du        
  16841 ****       110.5000 154.2500 140.0000 Du        
  16842 ****       110.5000 154.2500 140.2500 Du        
  16843 ****       110.5000 154.5000 139.2500 Du        
  16844 ****       110.5000 154.5000 139.5000 Du        
  16845 ****       110.5000 154.5000 139.7500 Du        
  16846 ****       110.5000 154.5000 140.0000 Du        
  16847 ****       110.5000 154.7500 139.2500 Du        
  16848 ****       110.5000 154.7500 139.5000 Du        
  16849 ****       110.5000 154.7500 139.7500 Du        
  16850 ****       110.5000 161.2500 116.0000 Du        
  16851 ****       110.5000 161.2500 116.2500 Du        
  16852 ****       110.5000 161.5000 115.7500 Du        
  16853 ****       110.5000 161.5000 116.0000 Du        
  16854 ****       110.5000 161.5000 116.2500 Du        
  16855 ****       110.5000 161.7500 115.7500 Du        
  16856 ****       110.5000 161.7500 116.0000 Du        
  16857 ****       110.5000 162.7500 140.0000 Du        
  16858 ****       110.5000 169.7500 138.0000 Du        
  16859 ****       110.5000 169.7500 138.2500 Du        
  16860 ****       110.5000 170.0000 137.5000 Du        
  16861 ****       110.5000 170.0000 137.7500 Du        
  16862 ****       110.5000 170.0000 138.0000 Du        
  16863 ****       110.5000 170.0000 138.2500 Du        
  16864 ****       110.5000 170.0000 138.5000 Du        
  16865 ****       110.5000 170.0000 138.7500 Du        
  16866 ****       110.5000 170.2500 137.5000 Du        
  16867 ****       110.5000 170.2500 137.7500 Du        
  16868 ****       110.5000 170.2500 138.0000 Du        
  16869 ****       110.5000 170.2500 138.2500 Du        
  16870 ****       110.5000 170.2500 138.5000 Du        
  16871 ****       110.5000 170.2500 138.7500 Du        
  16872 ****       110.5000 170.2500 139.0000 Du        
  16873 ****       110.5000 170.5000 137.5000 Du        
  16874 ****       110.5000 170.5000 137.7500 Du        
  16875 ****       110.5000 170.5000 138.0000 Du        
  16876 ****       110.5000 170.5000 138.2500 Du        
  16877 ****       110.5000 170.5000 138.5000 Du        
  16878 ****       110.5000 170.5000 138.7500 Du        
  16879 ****       110.5000 170.5000 139.0000 Du        
  16880 ****       110.5000 170.7500 137.2500 Du        
  16881 ****       110.5000 170.7500 137.5000 Du        
  16882 ****       110.5000 170.7500 137.7500 Du        
  16883 ****       110.5000 170.7500 138.0000 Du        
  16884 ****       110.5000 170.7500 138.2500 Du        
  16885 ****       110.5000 170.7500 138.5000 Du        
  16886 ****       110.5000 170.7500 138.7500 Du        
  16887 ****       110.5000 170.7500 139.0000 Du        
  16888 ****       110.7500 140.7500 139.0000 Du        
  16889 ****       110.7500 140.7500 139.2500 Du        
  16890 ****       110.7500 140.7500 139.5000 Du        
  16891 ****       110.7500 140.7500 139.7500 Du        
  16892 ****       110.7500 140.7500 140.0000 Du        
  16893 ****       110.7500 141.0000 139.0000 Du        
  16894 ****       110.7500 141.0000 139.2500 Du        
  16895 ****       110.7500 141.0000 139.5000 Du        
  16896 ****       110.7500 141.0000 139.7500 Du        
  16897 ****       110.7500 141.0000 140.0000 Du        
  16898 ****       110.7500 141.0000 140.2500 Du        
  16899 ****       110.7500 141.2500 139.0000 Du        
  16900 ****       110.7500 141.2500 139.2500 Du        
  16901 ****       110.7500 141.2500 139.5000 Du        
  16902 ****       110.7500 141.2500 139.7500 Du        
  16903 ****       110.7500 141.2500 140.0000 Du        
  16904 ****       110.7500 141.2500 140.2500 Du        
  16905 ****       110.7500 141.5000 139.0000 Du        
  16906 ****       110.7500 141.5000 139.2500 Du        
  16907 ****       110.7500 141.5000 139.5000 Du        
  16908 ****       110.7500 141.5000 139.7500 Du        
  16909 ****       110.7500 141.5000 140.0000 Du        
  16910 ****       110.7500 141.5000 140.2500 Du        
  16911 ****       110.7500 141.5000 140.5000 Du        
  16912 ****       110.7500 141.7500 139.2500 Du        
  16913 ****       110.7500 141.7500 139.5000 Du        
  16914 ****       110.7500 141.7500 139.7500 Du        
  16915 ****       110.7500 141.7500 140.0000 Du        
  16916 ****       110.7500 141.7500 140.2500 Du        
  16917 ****       110.7500 150.0000 143.0000 Du        
  16918 ****       110.7500 150.2500 142.7500 Du        
  16919 ****       110.7500 151.0000 142.2500 Du        
  16920 ****       110.7500 151.2500 142.0000 Du        
  16921 ****       110.7500 151.2500 142.2500 Du        
  16922 ****       110.7500 151.5000 142.0000 Du        
  16923 ****       110.7500 151.7500 141.7500 Du        
  16924 ****       110.7500 151.7500 142.0000 Du        
  16925 ****       110.7500 151.7500 142.2500 Du        
  16926 ****       110.7500 152.0000 141.2500 Du        
  16927 ****       110.7500 152.0000 141.5000 Du        
  16928 ****       110.7500 152.0000 141.7500 Du        
  16929 ****       110.7500 152.0000 142.0000 Du        
  16930 ****       110.7500 152.2500 141.0000 Du        
  16931 ****       110.7500 152.2500 141.2500 Du        
  16932 ****       110.7500 152.2500 141.5000 Du        
  16933 ****       110.7500 152.2500 141.7500 Du        
  16934 ****       110.7500 152.2500 142.0000 Du        
  16935 ****       110.7500 152.5000 141.0000 Du        
  16936 ****       110.7500 152.5000 141.2500 Du        
  16937 ****       110.7500 152.7500 140.7500 Du        
  16938 ****       110.7500 152.7500 141.0000 Du        
  16939 ****       110.7500 152.7500 141.2500 Du        
  16940 ****       110.7500 152.7500 141.5000 Du        
  16941 ****       110.7500 153.0000 140.2500 Du        
  16942 ****       110.7500 153.0000 140.5000 Du        
  16943 ****       110.7500 153.0000 140.7500 Du        
  16944 ****       110.7500 153.0000 141.0000 Du        
  16945 ****       110.7500 153.0000 141.2500 Du        
  16946 ****       110.7500 153.0000 141.5000 Du        
  16947 ****       110.7500 153.0000 141.7500 Du        
  16948 ****       110.7500 153.2500 140.0000 Du        
  16949 ****       110.7500 153.2500 140.2500 Du        
  16950 ****       110.7500 153.2500 140.5000 Du        
  16951 ****       110.7500 153.2500 140.7500 Du        
  16952 ****       110.7500 153.2500 141.0000 Du        
  16953 ****       110.7500 153.2500 141.2500 Du        
  16954 ****       110.7500 153.2500 141.5000 Du        
  16955 ****       110.7500 153.5000 140.0000 Du        
  16956 ****       110.7500 153.5000 140.2500 Du        
  16957 ****       110.7500 153.5000 140.5000 Du        
  16958 ****       110.7500 153.5000 140.7500 Du        
  16959 ****       110.7500 153.5000 141.0000 Du        
  16960 ****       110.7500 153.5000 141.2500 Du        
  16961 ****       110.7500 153.7500 139.5000 Du        
  16962 ****       110.7500 153.7500 139.7500 Du        
  16963 ****       110.7500 153.7500 140.0000 Du        
  16964 ****       110.7500 153.7500 140.2500 Du        
  16965 ****       110.7500 153.7500 140.5000 Du        
  16966 ****       110.7500 153.7500 140.7500 Du        
  16967 ****       110.7500 153.7500 141.0000 Du        
  16968 ****       110.7500 153.7500 141.2500 Du        
  16969 ****       110.7500 154.0000 139.2500 Du        
  16970 ****       110.7500 154.0000 139.5000 Du        
  16971 ****       110.7500 154.0000 139.7500 Du        
  16972 ****       110.7500 154.0000 140.0000 Du        
  16973 ****       110.7500 154.0000 140.2500 Du        
  16974 ****       110.7500 154.0000 140.5000 Du        
  16975 ****       110.7500 154.0000 140.7500 Du        
  16976 ****       110.7500 154.2500 139.2500 Du        
  16977 ****       110.7500 154.2500 139.5000 Du        
  16978 ****       110.7500 154.2500 139.7500 Du        
  16979 ****       110.7500 154.2500 140.0000 Du        
  16980 ****       110.7500 154.2500 140.2500 Du        
  16981 ****       110.7500 154.5000 139.0000 Du        
  16982 ****       110.7500 154.5000 139.2500 Du        
  16983 ****       110.7500 154.5000 139.5000 Du        
  16984 ****       110.7500 154.5000 139.7500 Du        
  16985 ****       110.7500 154.5000 140.0000 Du        
  16986 ****       110.7500 154.7500 139.2500 Du        
  16987 ****       110.7500 154.7500 139.5000 Du        
  16988 ****       110.7500 160.7500 116.5000 Du        
  16989 ****       110.7500 160.7500 116.7500 Du        
  16990 ****       110.7500 161.0000 116.0000 Du        
  16991 ****       110.7500 161.0000 116.2500 Du        
  16992 ****       110.7500 161.0000 116.5000 Du        
  16993 ****       110.7500 161.2500 115.5000 Du        
  16994 ****       110.7500 161.2500 115.7500 Du        
  16995 ****       110.7500 161.2500 116.0000 Du        
  16996 ****       110.7500 161.2500 116.2500 Du        
  16997 ****       110.7500 161.2500 116.5000 Du        
  16998 ****       110.7500 161.5000 115.5000 Du        
  16999 ****       110.7500 161.5000 115.7500 Du        
  17000 ****       110.7500 161.5000 116.0000 Du        
  17001 ****       110.7500 161.5000 116.2500 Du        
  17002 ****       110.7500 161.5000 116.5000 Du        
  17003 ****       110.7500 161.7500 115.5000 Du        
  17004 ****       110.7500 161.7500 115.7500 Du        
  17005 ****       110.7500 161.7500 116.0000 Du        
  17006 ****       110.7500 161.7500 116.2500 Du        
  17007 ****       110.7500 162.0000 115.5000 Du        
  17008 ****       110.7500 162.0000 115.7500 Du        
  17009 ****       110.7500 162.0000 116.0000 Du        
  17010 ****       110.7500 162.0000 116.2500 Du        
  17011 ****       110.7500 162.2500 115.5000 Du        
  17012 ****       110.7500 162.2500 115.7500 Du        
  17013 ****       110.7500 162.2500 116.0000 Du        
  17014 ****       110.7500 162.7500 140.2500 Du        
  17015 ****       110.7500 163.0000 140.0000 Du        
  17016 ****       110.7500 169.2500 138.0000 Du        
  17017 ****       110.7500 169.2500 138.2500 Du        
  17018 ****       110.7500 169.2500 138.5000 Du        
  17019 ****       110.7500 169.2500 138.7500 Du        
  17020 ****       110.7500 169.2500 139.0000 Du        
  17021 ****       110.7500 169.2500 139.2500 Du        
  17022 ****       110.7500 169.5000 137.7500 Du        
  17023 ****       110.7500 169.5000 138.0000 Du        
  17024 ****       110.7500 169.5000 138.2500 Du        
  17025 ****       110.7500 169.5000 138.5000 Du        
  17026 ****       110.7500 169.5000 138.7500 Du        
  17027 ****       110.7500 169.5000 139.0000 Du        
  17028 ****       110.7500 169.5000 139.2500 Du        
  17029 ****       110.7500 169.7500 137.7500 Du        
  17030 ****       110.7500 169.7500 138.0000 Du        
  17031 ****       110.7500 169.7500 138.2500 Du        
  17032 ****       110.7500 169.7500 138.5000 Du        
  17033 ****       110.7500 169.7500 138.7500 Du        
  17034 ****       110.7500 169.7500 139.0000 Du        
  17035 ****       110.7500 169.7500 139.2500 Du        
  17036 ****       110.7500 170.0000 137.5000 Du        
  17037 ****       110.7500 170.0000 137.7500 Du        
  17038 ****       110.7500 170.0000 138.0000 Du        
  17039 ****       110.7500 170.0000 138.2500 Du        
  17040 ****       110.7500 170.0000 138.5000 Du        
  17041 ****       110.7500 170.0000 138.7500 Du        
  17042 ****       110.7500 170.0000 139.0000 Du        
  17043 ****       110.7500 170.0000 139.2500 Du        
  17044 ****       110.7500 170.2500 137.5000 Du        
  17045 ****       110.7500 170.2500 137.7500 Du        
  17046 ****       110.7500 170.2500 138.0000 Du        
  17047 ****       110.7500 170.2500 138.2500 Du        
  17048 ****       110.7500 170.2500 138.5000 Du        
  17049 ****       110.7500 170.2500 138.7500 Du        
  17050 ****       110.7500 170.2500 139.0000 Du        
  17051 ****       110.7500 170.2500 139.2500 Du        
  17052 ****       110.7500 170.5000 137.5000 Du        
  17053 ****       110.7500 170.5000 137.7500 Du        
  17054 ****       110.7500 170.5000 138.0000 Du        
  17055 ****       110.7500 170.5000 138.2500 Du        
  17056 ****       110.7500 170.5000 138.5000 Du        
  17057 ****       110.7500 170.5000 138.7500 Du        
  17058 ****       110.7500 170.5000 139.0000 Du        
  17059 ****       110.7500 170.5000 139.2500 Du        
  17060 ****       110.7500 170.7500 137.2500 Du        
  17061 ****       110.7500 170.7500 137.5000 Du        
  17062 ****       110.7500 170.7500 137.7500 Du        
  17063 ****       110.7500 170.7500 138.0000 Du        
  17064 ****       110.7500 170.7500 138.2500 Du        
  17065 ****       110.7500 170.7500 138.5000 Du        
  17066 ****       110.7500 170.7500 138.7500 Du        
  17067 ****       110.7500 170.7500 139.0000 Du        
  17068 ****       110.7500 170.7500 139.2500 Du        
  17069 ****       111.0000 140.5000 139.0000 Du        
  17070 ****       111.0000 140.5000 139.2500 Du        
  17071 ****       111.0000 140.5000 139.5000 Du        
  17072 ****       111.0000 140.7500 139.0000 Du        
  17073 ****       111.0000 140.7500 139.2500 Du        
  17074 ****       111.0000 140.7500 139.5000 Du        
  17075 ****       111.0000 140.7500 139.7500 Du        
  17076 ****       111.0000 140.7500 140.0000 Du        
  17077 ****       111.0000 141.0000 138.7500 Du        
  17078 ****       111.0000 141.0000 139.0000 Du        
  17079 ****       111.0000 141.0000 139.2500 Du        
  17080 ****       111.0000 141.0000 139.5000 Du        
  17081 ****       111.0000 141.0000 139.7500 Du        
  17082 ****       111.0000 141.0000 140.0000 Du        
  17083 ****       111.0000 141.0000 140.2500 Du        
  17084 ****       111.0000 141.2500 138.7500 Du        
  17085 ****       111.0000 141.2500 139.0000 Du        
  17086 ****       111.0000 141.2500 139.2500 Du        
  17087 ****       111.0000 141.2500 139.5000 Du        
  17088 ****       111.0000 141.2500 139.7500 Du        
  17089 ****       111.0000 141.2500 140.0000 Du        
  17090 ****       111.0000 141.2500 140.2500 Du        
  17091 ****       111.0000 141.5000 139.0000 Du        
  17092 ****       111.0000 141.5000 139.2500 Du        
  17093 ****       111.0000 141.5000 139.5000 Du        
  17094 ****       111.0000 141.5000 139.7500 Du        
  17095 ****       111.0000 141.5000 140.0000 Du        
  17096 ****       111.0000 141.5000 140.2500 Du        
  17097 ****       111.0000 141.7500 139.2500 Du        
  17098 ****       111.0000 141.7500 139.5000 Du        
  17099 ****       111.0000 141.7500 139.7500 Du        
  17100 ****       111.0000 141.7500 140.0000 Du        
  17101 ****       111.0000 141.7500 140.2500 Du        
  17102 ****       111.0000 150.2500 142.7500 Du        
  17103 ****       111.0000 151.0000 142.0000 Du        
  17104 ****       111.0000 151.0000 142.2500 Du        
  17105 ****       111.0000 151.2500 142.0000 Du        
  17106 ****       111.0000 151.5000 141.7500 Du        
  17107 ****       111.0000 151.5000 142.0000 Du        
  17108 ****       111.0000 151.5000 142.2500 Du        
  17109 ****       111.0000 151.7500 141.0000 Du        
  17110 ****       111.0000 151.7500 141.2500 Du        
  17111 ****       111.0000 151.7500 141.5000 Du        
  17112 ****       111.0000 151.7500 141.7500 Du        
  17113 ****       111.0000 151.7500 142.0000 Du        
  17114 ****       111.0000 151.7500 142.2500 Du        
  17115 ****       111.0000 152.0000 140.2500 Du        
  17116 ****       111.0000 152.0000 140.5000 Du        
  17117 ****       111.0000 152.0000 140.7500 Du        
  17118 ****       111.0000 152.0000 141.0000 Du        
  17119 ****       111.0000 152.0000 141.2500 Du        
  17120 ****       111.0000 152.0000 141.5000 Du        
  17121 ****       111.0000 152.0000 141.7500 Du        
  17122 ****       111.0000 152.0000 142.0000 Du        
  17123 ****       111.0000 152.2500 140.0000 Du        
  17124 ****       111.0000 152.2500 140.2500 Du        
  17125 ****       111.0000 152.2500 140.5000 Du        
  17126 ****       111.0000 152.2500 140.7500 Du        
  17127 ****       111.0000 152.2500 141.0000 Du        
  17128 ****       111.0000 152.2500 141.2500 Du        
  17129 ****       111.0000 152.2500 141.5000 Du        
  17130 ****       111.0000 152.2500 141.7500 Du        
  17131 ****       111.0000 152.5000 140.0000 Du        
  17132 ****       111.0000 152.5000 140.2500 Du        
  17133 ****       111.0000 152.5000 140.5000 Du        
  17134 ****       111.0000 152.5000 140.7500 Du        
  17135 ****       111.0000 152.5000 141.0000 Du        
  17136 ****       111.0000 152.5000 141.2500 Du        
  17137 ****       111.0000 152.7500 139.7500 Du        
  17138 ****       111.0000 152.7500 140.0000 Du        
  17139 ****       111.0000 152.7500 140.2500 Du        
  17140 ****       111.0000 152.7500 140.5000 Du        
  17141 ****       111.0000 152.7500 140.7500 Du        
  17142 ****       111.0000 152.7500 141.0000 Du        
  17143 ****       111.0000 152.7500 141.2500 Du        
  17144 ****       111.0000 152.7500 141.5000 Du        
  17145 ****       111.0000 153.0000 139.5000 Du        
  17146 ****       111.0000 153.0000 139.7500 Du        
  17147 ****       111.0000 153.0000 140.0000 Du        
  17148 ****       111.0000 153.0000 140.2500 Du        
  17149 ****       111.0000 153.0000 140.5000 Du        
  17150 ****       111.0000 153.0000 140.7500 Du        
  17151 ****       111.0000 153.0000 141.0000 Du        
  17152 ****       111.0000 153.0000 141.2500 Du        
  17153 ****       111.0000 153.0000 141.5000 Du        
  17154 ****       111.0000 153.2500 139.5000 Du        
  17155 ****       111.0000 153.2500 139.7500 Du        
  17156 ****       111.0000 153.2500 140.0000 Du        
  17157 ****       111.0000 153.2500 140.2500 Du        
  17158 ****       111.0000 153.2500 140.5000 Du        
  17159 ****       111.0000 153.2500 140.7500 Du        
  17160 ****       111.0000 153.2500 141.0000 Du        
  17161 ****       111.0000 153.2500 141.2500 Du        
  17162 ****       111.0000 153.5000 139.2500 Du        
  17163 ****       111.0000 153.5000 139.5000 Du        
  17164 ****       111.0000 153.5000 139.7500 Du        
  17165 ****       111.0000 153.5000 140.0000 Du        
  17166 ****       111.0000 153.5000 140.2500 Du        
  17167 ****       111.0000 153.5000 140.5000 Du        
  17168 ****       111.0000 153.5000 140.7500 Du        
  17169 ****       111.0000 153.5000 141.0000 Du        
  17170 ****       111.0000 153.5000 141.2500 Du        
  17171 ****       111.0000 153.7500 139.2500 Du        
  17172 ****       111.0000 153.7500 139.5000 Du        
  17173 ****       111.0000 153.7500 139.7500 Du        
  17174 ****       111.0000 153.7500 140.0000 Du        
  17175 ****       111.0000 153.7500 140.2500 Du        
  17176 ****       111.0000 153.7500 140.5000 Du        
  17177 ****       111.0000 153.7500 140.7500 Du        
  17178 ****       111.0000 153.7500 141.0000 Du        
  17179 ****       111.0000 153.7500 141.2500 Du        
  17180 ****       111.0000 154.0000 139.0000 Du        
  17181 ****       111.0000 154.0000 139.2500 Du        
  17182 ****       111.0000 154.0000 139.5000 Du        
  17183 ****       111.0000 154.0000 139.7500 Du        
  17184 ****       111.0000 154.0000 140.0000 Du        
  17185 ****       111.0000 154.0000 140.2500 Du        
  17186 ****       111.0000 154.0000 140.5000 Du        
  17187 ****       111.0000 154.2500 139.0000 Du        
  17188 ****       111.0000 154.2500 139.2500 Du        
  17189 ****       111.0000 154.2500 139.5000 Du        
  17190 ****       111.0000 154.2500 139.7500 Du        
  17191 ****       111.0000 154.2500 140.0000 Du        
  17192 ****       111.0000 154.2500 140.2500 Du        
  17193 ****       111.0000 154.5000 139.0000 Du        
  17194 ****       111.0000 154.5000 139.2500 Du        
  17195 ****       111.0000 154.5000 139.5000 Du        
  17196 ****       111.0000 154.5000 139.7500 Du        
  17197 ****       111.0000 154.7500 139.2500 Du        
  17198 ****       111.0000 160.2500 116.7500 Du        
  17199 ****       111.0000 160.2500 117.0000 Du        
  17200 ****       111.0000 160.5000 116.5000 Du        
  17201 ****       111.0000 160.5000 116.7500 Du        
  17202 ****       111.0000 160.5000 117.0000 Du        
  17203 ****       111.0000 160.7500 116.0000 Du        
  17204 ****       111.0000 160.7500 116.2500 Du        
  17205 ****       111.0000 160.7500 116.5000 Du        
  17206 ****       111.0000 160.7500 116.7500 Du        
  17207 ****       111.0000 160.7500 117.0000 Du        
  17208 ****       111.0000 161.0000 115.5000 Du        
  17209 ****       111.0000 161.0000 115.7500 Du        
  17210 ****       111.0000 161.0000 116.0000 Du        
  17211 ****       111.0000 161.0000 116.2500 Du        
  17212 ****       111.0000 161.0000 116.5000 Du        
  17213 ****       111.0000 161.0000 116.7500 Du        
  17214 ****       111.0000 161.2500 115.2500 Du        
  17215 ****       111.0000 161.2500 115.5000 Du        
  17216 ****       111.0000 161.2500 115.7500 Du        
  17217 ****       111.0000 161.2500 116.0000 Du        
  17218 ****       111.0000 161.2500 116.2500 Du        
  17219 ****       111.0000 161.2500 116.5000 Du        
  17220 ****       111.0000 161.2500 116.7500 Du        
  17221 ****       111.0000 161.5000 115.2500 Du        
  17222 ****       111.0000 161.5000 115.5000 Du        
  17223 ****       111.0000 161.5000 115.7500 Du        
  17224 ****       111.0000 161.5000 116.0000 Du        
  17225 ****       111.0000 161.5000 116.2500 Du        
  17226 ****       111.0000 161.5000 116.5000 Du        
  17227 ****       111.0000 161.7500 115.2500 Du        
  17228 ****       111.0000 161.7500 115.5000 Du        
  17229 ****       111.0000 161.7500 115.7500 Du        
  17230 ****       111.0000 161.7500 116.0000 Du        
  17231 ****       111.0000 161.7500 116.2500 Du        
  17232 ****       111.0000 161.7500 116.5000 Du        
  17233 ****       111.0000 162.0000 115.2500 Du        
  17234 ****       111.0000 162.0000 115.5000 Du        
  17235 ****       111.0000 162.0000 115.7500 Du        
  17236 ****       111.0000 162.0000 116.0000 Du        
  17237 ****       111.0000 162.0000 116.2500 Du        
  17238 ****       111.0000 162.0000 116.5000 Du        
  17239 ****       111.0000 162.2500 115.2500 Du        
  17240 ****       111.0000 162.2500 115.5000 Du        
  17241 ****       111.0000 162.2500 115.7500 Du        
  17242 ****       111.0000 162.2500 116.0000 Du        
  17243 ****       111.0000 162.2500 116.2500 Du        
  17244 ****       111.0000 162.2500 116.5000 Du        
  17245 ****       111.0000 162.5000 115.5000 Du        
  17246 ****       111.0000 162.5000 115.7500 Du        
  17247 ****       111.0000 162.5000 116.0000 Du        
  17248 ****       111.0000 162.5000 116.2500 Du        
  17249 ****       111.0000 163.0000 140.2500 Du        
  17250 ****       111.0000 163.2500 140.2500 Du        
  17251 ****       111.0000 168.7500 138.7500 Du        
  17252 ****       111.0000 168.7500 139.0000 Du        
  17253 ****       111.0000 168.7500 139.2500 Du        
  17254 ****       111.0000 168.7500 139.5000 Du        
  17255 ****       111.0000 168.7500 139.7500 Du        
  17256 ****       111.0000 168.7500 140.0000 Du        
  17257 ****       111.0000 169.0000 138.0000 Du        
  17258 ****       111.0000 169.0000 138.2500 Du        
  17259 ****       111.0000 169.0000 138.5000 Du        
  17260 ****       111.0000 169.0000 138.7500 Du        
  17261 ****       111.0000 169.0000 139.0000 Du        
  17262 ****       111.0000 169.0000 139.2500 Du        
  17263 ****       111.0000 169.0000 139.5000 Du        
  17264 ****       111.0000 169.0000 139.7500 Du        
  17265 ****       111.0000 169.0000 140.0000 Du        
  17266 ****       111.0000 169.2500 137.7500 Du        
  17267 ****       111.0000 169.2500 138.0000 Du        
  17268 ****       111.0000 169.2500 138.2500 Du        
  17269 ****       111.0000 169.2500 138.5000 Du        
  17270 ****       111.0000 169.2500 138.7500 Du        
  17271 ****       111.0000 169.2500 139.0000 Du        
  17272 ****       111.0000 169.2500 139.2500 Du        
  17273 ****       111.0000 169.2500 139.5000 Du        
  17274 ****       111.0000 169.2500 139.7500 Du        
  17275 ****       111.0000 169.2500 140.0000 Du        
  17276 ****       111.0000 169.5000 137.7500 Du        
  17277 ****       111.0000 169.5000 138.0000 Du        
  17278 ****       111.0000 169.5000 138.2500 Du        
  17279 ****       111.0000 169.5000 138.5000 Du        
  17280 ****       111.0000 169.5000 138.7500 Du        
  17281 ****       111.0000 169.5000 139.0000 Du        
  17282 ****       111.0000 169.5000 139.2500 Du        
  17283 ****       111.0000 169.5000 139.5000 Du        
  17284 ****       111.0000 169.5000 139.7500 Du        
  17285 ****       111.0000 169.7500 137.7500 Du        
  17286 ****       111.0000 169.7500 138.0000 Du        
  17287 ****       111.0000 169.7500 138.2500 Du        
  17288 ****       111.0000 169.7500 138.5000 Du        
  17289 ****       111.0000 169.7500 138.7500 Du        
  17290 ****       111.0000 169.7500 139.0000 Du        
  17291 ****       111.0000 169.7500 139.2500 Du        
  17292 ****       111.0000 169.7500 139.5000 Du        
  17293 ****       111.0000 169.7500 139.7500 Du        
  17294 ****       111.0000 170.0000 137.7500 Du        
  17295 ****       111.0000 170.0000 138.0000 Du        
  17296 ****       111.0000 170.0000 138.2500 Du        
  17297 ****       111.0000 170.0000 138.5000 Du        
  17298 ****       111.0000 170.0000 138.7500 Du        
  17299 ****       111.0000 170.0000 139.0000 Du        
  17300 ****       111.0000 170.0000 139.2500 Du        
  17301 ****       111.0000 170.0000 139.5000 Du        
  17302 ****       111.0000 170.0000 139.7500 Du        
  17303 ****       111.0000 170.2500 137.5000 Du        
  17304 ****       111.0000 170.2500 137.7500 Du        
  17305 ****       111.0000 170.2500 138.0000 Du        
  17306 ****       111.0000 170.2500 138.2500 Du        
  17307 ****       111.0000 170.2500 138.5000 Du        
  17308 ****       111.0000 170.2500 138.7500 Du        
  17309 ****       111.0000 170.2500 139.0000 Du        
  17310 ****       111.0000 170.2500 139.2500 Du        
  17311 ****       111.0000 170.2500 139.5000 Du        
  17312 ****       111.0000 170.5000 137.5000 Du        
  17313 ****       111.0000 170.5000 137.7500 Du        
  17314 ****       111.0000 170.5000 138.0000 Du        
  17315 ****       111.0000 170.5000 138.2500 Du        
  17316 ****       111.0000 170.5000 138.5000 Du        
  17317 ****       111.0000 170.5000 138.7500 Du        
  17318 ****       111.0000 170.5000 139.0000 Du        
  17319 ****       111.0000 170.5000 139.2500 Du        
  17320 ****       111.0000 170.7500 137.5000 Du        
  17321 ****       111.0000 170.7500 137.7500 Du        
  17322 ****       111.0000 170.7500 138.0000 Du        
  17323 ****       111.0000 170.7500 138.2500 Du        
  17324 ****       111.0000 170.7500 138.5000 Du        
  17325 ****       111.0000 170.7500 138.7500 Du        
  17326 ****       111.0000 170.7500 139.0000 Du        
  17327 ****       111.0000 170.7500 139.2500 Du        
  17328 ****       111.2500 139.5000 117.2500 Du        
  17329 ****       111.2500 139.7500 117.2500 Du        
  17330 ****       111.2500 140.5000 138.7500 Du        
  17331 ****       111.2500 140.5000 139.0000 Du        
  17332 ****       111.2500 140.5000 139.2500 Du        
  17333 ****       111.2500 140.7500 138.7500 Du        
  17334 ****       111.2500 140.7500 139.0000 Du        
  17335 ****       111.2500 140.7500 139.2500 Du        
  17336 ****       111.2500 140.7500 139.5000 Du        
  17337 ****       111.2500 140.7500 139.7500 Du        
  17338 ****       111.2500 141.0000 138.7500 Du        
  17339 ****       111.2500 141.0000 139.0000 Du        
  17340 ****       111.2500 141.0000 139.2500 Du        
  17341 ****       111.2500 141.0000 139.5000 Du        
  17342 ****       111.2500 141.0000 139.7500 Du        
  17343 ****       111.2500 141.0000 140.0000 Du        
  17344 ****       111.2500 141.2500 138.7500 Du        
  17345 ****       111.2500 141.2500 139.0000 Du        
  17346 ****       111.2500 141.2500 139.2500 Du        
  17347 ****       111.2500 141.2500 139.5000 Du        
  17348 ****       111.2500 141.2500 139.7500 Du        
  17349 ****       111.2500 141.2500 140.0000 Du        
  17350 ****       111.2500 141.2500 140.2500 Du        
  17351 ****       111.2500 141.5000 139.0000 Du        
  17352 ****       111.2500 141.5000 139.2500 Du        
  17353 ****       111.2500 141.5000 139.5000 Du        
  17354 ****       111.2500 141.5000 139.7500 Du        
  17355 ****       111.2500 141.5000 140.0000 Du        
  17356 ****       111.2500 141.5000 140.2500 Du        
  17357 ****       111.2500 141.7500 139.0000 Du        
  17358 ****       111.2500 141.7500 139.2500 Du        
  17359 ****       111.2500 141.7500 139.5000 Du        
  17360 ****       111.2500 141.7500 139.7500 Du        
  17361 ****       111.2500 141.7500 140.0000 Du        
  17362 ****       111.2500 141.7500 140.2500 Du        
  17363 ****       111.2500 142.0000 140.0000 Du        
  17364 ****       111.2500 151.2500 141.7500 Du        
  17365 ****       111.2500 151.2500 142.0000 Du        
  17366 ****       111.2500 151.5000 141.0000 Du        
  17367 ****       111.2500 151.5000 141.2500 Du        
  17368 ****       111.2500 151.5000 141.5000 Du        
  17369 ****       111.2500 151.5000 141.7500 Du        
  17370 ****       111.2500 151.5000 142.0000 Du        
  17371 ****       111.2500 151.7500 140.0000 Du        
  17372 ****       111.2500 151.7500 140.2500 Du        
  17373 ****       111.2500 151.7500 140.5000 Du        
  17374 ****       111.2500 151.7500 140.7500 Du        
  17375 ****       111.2500 151.7500 141.0000 Du        
  17376 ****       111.2500 151.7500 141.2500 Du        
  17377 ****       111.2500 151.7500 141.5000 Du        
  17378 ****       111.2500 151.7500 141.7500 Du        
  17379 ****       111.2500 151.7500 142.0000 Du        
  17380 ****       111.2500 152.0000 139.7500 Du        
  17381 ****       111.2500 152.0000 140.0000 Du        
  17382 ****       111.2500 152.0000 140.2500 Du        
  17383 ****       111.2500 152.0000 140.5000 Du        
  17384 ****       111.2500 152.0000 140.7500 Du        
  17385 ****       111.2500 152.0000 141.0000 Du        
  17386 ****       111.2500 152.0000 141.2500 Du        
  17387 ****       111.2500 152.0000 141.5000 Du        
  17388 ****       111.2500 152.0000 141.7500 Du        
  17389 ****       111.2500 152.2500 139.5000 Du        
  17390 ****       111.2500 152.2500 139.7500 Du        
  17391 ****       111.2500 152.2500 140.0000 Du        
  17392 ****       111.2500 152.2500 140.2500 Du        
  17393 ****       111.2500 152.2500 140.5000 Du        
  17394 ****       111.2500 152.2500 140.7500 Du        
  17395 ****       111.2500 152.2500 141.0000 Du        
  17396 ****       111.2500 152.2500 141.2500 Du        
  17397 ****       111.2500 152.2500 141.5000 Du        
  17398 ****       111.2500 152.5000 139.5000 Du        
  17399 ****       111.2500 152.5000 139.7500 Du        
  17400 ****       111.2500 152.5000 140.0000 Du        
  17401 ****       111.2500 152.5000 140.2500 Du        
  17402 ****       111.2500 152.5000 140.5000 Du        
  17403 ****       111.2500 152.5000 140.7500 Du        
  17404 ****       111.2500 152.5000 141.0000 Du        
  17405 ****       111.2500 152.5000 141.2500 Du        
  17406 ****       111.2500 152.7500 139.2500 Du        
  17407 ****       111.2500 152.7500 139.5000 Du        
  17408 ****       111.2500 152.7500 139.7500 Du        
  17409 ****       111.2500 152.7500 140.0000 Du        
  17410 ****       111.2500 152.7500 140.2500 Du        
  17411 ****       111.2500 152.7500 140.5000 Du        
  17412 ****       111.2500 152.7500 140.7500 Du        
  17413 ****       111.2500 152.7500 141.0000 Du        
  17414 ****       111.2500 152.7500 141.2500 Du        
  17415 ****       111.2500 153.0000 139.2500 Du        
  17416 ****       111.2500 153.0000 139.5000 Du        
  17417 ****       111.2500 153.0000 139.7500 Du        
  17418 ****       111.2500 153.0000 140.0000 Du        
  17419 ****       111.2500 153.0000 140.2500 Du        
  17420 ****       111.2500 153.0000 140.5000 Du        
  17421 ****       111.2500 153.0000 140.7500 Du        
  17422 ****       111.2500 153.0000 141.0000 Du        
  17423 ****       111.2500 153.0000 141.2500 Du        
  17424 ****       111.2500 153.0000 141.5000 Du        
  17425 ****       111.2500 153.2500 139.2500 Du        
  17426 ****       111.2500 153.2500 139.5000 Du        
  17427 ****       111.2500 153.2500 139.7500 Du        
  17428 ****       111.2500 153.2500 140.0000 Du        
  17429 ****       111.2500 153.2500 140.2500 Du        
  17430 ****       111.2500 153.2500 140.5000 Du        
  17431 ****       111.2500 153.2500 140.7500 Du        
  17432 ****       111.2500 153.2500 141.0000 Du        
  17433 ****       111.2500 153.2500 141.2500 Du        
  17434 ****       111.2500 153.5000 139.2500 Du        
  17435 ****       111.2500 153.5000 139.5000 Du        
  17436 ****       111.2500 153.5000 139.7500 Du        
  17437 ****       111.2500 153.5000 140.0000 Du        
  17438 ****       111.2500 153.5000 140.2500 Du        
  17439 ****       111.2500 153.5000 140.5000 Du        
  17440 ****       111.2500 153.5000 140.7500 Du        
  17441 ****       111.2500 153.5000 141.0000 Du        
  17442 ****       111.2500 153.5000 141.2500 Du        
  17443 ****       111.2500 153.7500 139.0000 Du        
  17444 ****       111.2500 153.7500 139.2500 Du        
  17445 ****       111.2500 153.7500 139.5000 Du        
  17446 ****       111.2500 153.7500 139.7500 Du        
  17447 ****       111.2500 153.7500 140.0000 Du        
  17448 ****       111.2500 153.7500 140.2500 Du        
  17449 ****       111.2500 153.7500 140.5000 Du        
  17450 ****       111.2500 153.7500 140.7500 Du        
  17451 ****       111.2500 154.0000 139.0000 Du        
  17452 ****       111.2500 154.0000 139.2500 Du        
  17453 ****       111.2500 154.0000 139.5000 Du        
  17454 ****       111.2500 154.0000 139.7500 Du        
  17455 ****       111.2500 154.0000 140.0000 Du        
  17456 ****       111.2500 154.0000 140.2500 Du        
  17457 ****       111.2500 154.2500 139.0000 Du        
  17458 ****       111.2500 154.2500 139.2500 Du        
  17459 ****       111.2500 154.2500 139.5000 Du        
  17460 ****       111.2500 154.2500 139.7500 Du        
  17461 ****       111.2500 154.2500 140.0000 Du        
  17462 ****       111.2500 154.5000 139.0000 Du        
  17463 ****       111.2500 154.5000 139.2500 Du        
  17464 ****       111.2500 154.5000 139.5000 Du        
  17465 ****       111.2500 154.5000 139.7500 Du        
  17466 ****       111.2500 160.0000 117.0000 Du        
  17467 ****       111.2500 160.2500 116.5000 Du        
  17468 ****       111.2500 160.2500 116.7500 Du        
  17469 ****       111.2500 160.2500 117.0000 Du        
  17470 ****       111.2500 160.2500 117.2500 Du        
  17471 ****       111.2500 160.5000 116.0000 Du        
  17472 ****       111.2500 160.5000 116.2500 Du        
  17473 ****       111.2500 160.5000 116.5000 Du        
  17474 ****       111.2500 160.5000 116.7500 Du        
  17475 ****       111.2500 160.5000 117.0000 Du        
  17476 ****       111.2500 160.7500 115.5000 Du        
  17477 ****       111.2500 160.7500 115.7500 Du        
  17478 ****       111.2500 160.7500 116.0000 Du        
  17479 ****       111.2500 160.7500 116.2500 Du        
  17480 ****       111.2500 160.7500 116.5000 Du        
  17481 ****       111.2500 160.7500 116.7500 Du        
  17482 ****       111.2500 160.7500 117.0000 Du        
  17483 ****       111.2500 161.0000 115.2500 Du        
  17484 ****       111.2500 161.0000 115.5000 Du        
  17485 ****       111.2500 161.0000 115.7500 Du        
  17486 ****       111.2500 161.0000 116.0000 Du        
  17487 ****       111.2500 161.0000 116.2500 Du        
  17488 ****       111.2500 161.0000 116.5000 Du        
  17489 ****       111.2500 161.0000 116.7500 Du        
  17490 ****       111.2500 161.2500 115.0000 Du        
  17491 ****       111.2500 161.2500 115.2500 Du        
  17492 ****       111.2500 161.2500 115.5000 Du        
  17493 ****       111.2500 161.2500 115.7500 Du        
  17494 ****       111.2500 161.2500 116.0000 Du        
  17495 ****       111.2500 161.2500 116.2500 Du        
  17496 ****       111.2500 161.2500 116.5000 Du        
  17497 ****       111.2500 161.2500 116.7500 Du        
  17498 ****       111.2500 161.5000 115.0000 Du        
  17499 ****       111.2500 161.5000 115.2500 Du        
  17500 ****       111.2500 161.5000 115.5000 Du        
  17501 ****       111.2500 161.5000 115.7500 Du        
  17502 ****       111.2500 161.5000 116.0000 Du        
  17503 ****       111.2500 161.5000 116.2500 Du        
  17504 ****       111.2500 161.5000 116.5000 Du        
  17505 ****       111.2500 161.7500 115.0000 Du        
  17506 ****       111.2500 161.7500 115.2500 Du        
  17507 ****       111.2500 161.7500 115.5000 Du        
  17508 ****       111.2500 161.7500 115.7500 Du        
  17509 ****       111.2500 161.7500 116.0000 Du        
  17510 ****       111.2500 161.7500 116.2500 Du        
  17511 ****       111.2500 161.7500 116.5000 Du        
  17512 ****       111.2500 162.0000 115.0000 Du        
  17513 ****       111.2500 162.0000 115.2500 Du        
  17514 ****       111.2500 162.0000 115.5000 Du        
  17515 ****       111.2500 162.0000 115.7500 Du        
  17516 ****       111.2500 162.0000 116.0000 Du        
  17517 ****       111.2500 162.0000 116.2500 Du        
  17518 ****       111.2500 162.0000 116.5000 Du        
  17519 ****       111.2500 162.2500 115.0000 Du        
  17520 ****       111.2500 162.2500 115.2500 Du        
  17521 ****       111.2500 162.2500 115.5000 Du        
  17522 ****       111.2500 162.2500 115.7500 Du        
  17523 ****       111.2500 162.2500 116.0000 Du        
  17524 ****       111.2500 162.2500 116.2500 Du        
  17525 ****       111.2500 162.2500 116.5000 Du        
  17526 ****       111.2500 162.5000 115.2500 Du        
  17527 ****       111.2500 162.5000 115.5000 Du        
  17528 ****       111.2500 162.5000 115.7500 Du        
  17529 ****       111.2500 162.5000 116.0000 Du        
  17530 ****       111.2500 162.5000 116.2500 Du        
  17531 ****       111.2500 162.5000 116.5000 Du        
  17532 ****       111.2500 162.7500 115.5000 Du        
  17533 ****       111.2500 162.7500 115.7500 Du        
  17534 ****       111.2500 162.7500 116.0000 Du        
  17535 ****       111.2500 162.7500 116.2500 Du        
  17536 ****       111.2500 162.7500 116.5000 Du        
  17537 ****       111.2500 163.0000 116.5000 Du        
  17538 ****       111.2500 168.0000 139.7500 Du        
  17539 ****       111.2500 168.0000 140.0000 Du        
  17540 ****       111.2500 168.2500 139.2500 Du        
  17541 ****       111.2500 168.2500 139.5000 Du        
  17542 ****       111.2500 168.2500 139.7500 Du        
  17543 ****       111.2500 168.2500 140.0000 Du        
  17544 ****       111.2500 168.5000 138.5000 Du        
  17545 ****       111.2500 168.5000 138.7500 Du        
  17546 ****       111.2500 168.5000 139.0000 Du        
  17547 ****       111.2500 168.5000 139.2500 Du        
  17548 ****       111.2500 168.5000 139.5000 Du        
  17549 ****       111.2500 168.5000 139.7500 Du        
  17550 ****       111.2500 168.5000 140.0000 Du        
  17551 ****       111.2500 168.5000 140.2500 Du        
  17552 ****       111.2500 168.7500 138.0000 Du        
  17553 ****       111.2500 168.7500 138.2500 Du        
  17554 ****       111.2500 168.7500 138.5000 Du        
  17555 ****       111.2500 168.7500 138.7500 Du        
  17556 ****       111.2500 168.7500 139.0000 Du        
  17557 ****       111.2500 168.7500 139.2500 Du        
  17558 ****       111.2500 168.7500 139.5000 Du        
  17559 ****       111.2500 168.7500 139.7500 Du        
  17560 ****       111.2500 168.7500 140.0000 Du        
  17561 ****       111.2500 168.7500 140.2500 Du        
  17562 ****       111.2500 169.0000 138.0000 Du        
  17563 ****       111.2500 169.0000 138.2500 Du        
  17564 ****       111.2500 169.0000 138.5000 Du        
  17565 ****       111.2500 169.0000 138.7500 Du        
  17566 ****       111.2500 169.0000 139.0000 Du        
  17567 ****       111.2500 169.0000 139.2500 Du        
  17568 ****       111.2500 169.0000 139.5000 Du        
  17569 ****       111.2500 169.0000 139.7500 Du        
  17570 ****       111.2500 169.0000 140.0000 Du        
  17571 ****       111.2500 169.0000 140.2500 Du        
  17572 ****       111.2500 169.2500 138.0000 Du        
  17573 ****       111.2500 169.2500 138.2500 Du        
  17574 ****       111.2500 169.2500 138.5000 Du        
  17575 ****       111.2500 169.2500 138.7500 Du        
  17576 ****       111.2500 169.2500 139.0000 Du        
  17577 ****       111.2500 169.2500 139.2500 Du        
  17578 ****       111.2500 169.2500 139.5000 Du        
  17579 ****       111.2500 169.2500 139.7500 Du        
  17580 ****       111.2500 169.2500 140.0000 Du        
  17581 ****       111.2500 169.2500 140.2500 Du        
  17582 ****       111.2500 169.5000 137.7500 Du        
  17583 ****       111.2500 169.5000 138.0000 Du        
  17584 ****       111.2500 169.5000 138.2500 Du        
  17585 ****       111.2500 169.5000 138.5000 Du        
  17586 ****       111.2500 169.5000 138.7500 Du        
  17587 ****       111.2500 169.5000 139.0000 Du        
  17588 ****       111.2500 169.5000 139.2500 Du        
  17589 ****       111.2500 169.5000 139.5000 Du        
  17590 ****       111.2500 169.5000 139.7500 Du        
  17591 ****       111.2500 169.5000 140.0000 Du        
  17592 ****       111.2500 169.7500 137.7500 Du        
  17593 ****       111.2500 169.7500 138.0000 Du        
  17594 ****       111.2500 169.7500 138.2500 Du        
  17595 ****       111.2500 169.7500 138.5000 Du        
  17596 ****       111.2500 169.7500 138.7500 Du        
  17597 ****       111.2500 169.7500 139.0000 Du        
  17598 ****       111.2500 169.7500 139.2500 Du        
  17599 ****       111.2500 169.7500 139.5000 Du        
  17600 ****       111.2500 169.7500 139.7500 Du        
  17601 ****       111.2500 169.7500 140.0000 Du        
  17602 ****       111.2500 170.0000 137.7500 Du        
  17603 ****       111.2500 170.0000 138.0000 Du        
  17604 ****       111.2500 170.0000 138.2500 Du        
  17605 ****       111.2500 170.0000 138.5000 Du        
  17606 ****       111.2500 170.0000 138.7500 Du        
  17607 ****       111.2500 170.0000 139.0000 Du        
  17608 ****       111.2500 170.0000 139.2500 Du        
  17609 ****       111.2500 170.0000 139.5000 Du        
  17610 ****       111.2500 170.0000 139.7500 Du        
  17611 ****       111.2500 170.2500 137.7500 Du        
  17612 ****       111.2500 170.2500 138.0000 Du        
  17613 ****       111.2500 170.2500 138.2500 Du        
  17614 ****       111.2500 170.2500 138.5000 Du        
  17615 ****       111.2500 170.2500 138.7500 Du        
  17616 ****       111.2500 170.2500 139.0000 Du        
  17617 ****       111.2500 170.2500 139.2500 Du        
  17618 ****       111.2500 170.2500 139.5000 Du        
  17619 ****       111.2500 170.2500 139.7500 Du        
  17620 ****       111.2500 170.5000 137.7500 Du        
  17621 ****       111.2500 170.5000 138.0000 Du        
  17622 ****       111.2500 170.5000 138.2500 Du        
  17623 ****       111.2500 170.5000 138.5000 Du        
  17624 ****       111.2500 170.5000 138.7500 Du        
  17625 ****       111.2500 170.5000 139.0000 Du        
  17626 ****       111.2500 170.5000 139.2500 Du        
  17627 ****       111.2500 170.7500 137.5000 Du        
  17628 ****       111.2500 170.7500 137.7500 Du        
  17629 ****       111.2500 170.7500 138.0000 Du        
  17630 ****       111.2500 170.7500 138.2500 Du        
  17631 ****       111.2500 170.7500 138.5000 Du        
  17632 ****       111.2500 170.7500 138.7500 Du        
  17633 ****       111.2500 170.7500 139.0000 Du        
  17634 ****       111.2500 170.7500 139.2500 Du        
  17635 ****       111.5000 139.2500 117.2500 Du        
  17636 ****       111.5000 139.2500 117.5000 Du        
  17637 ****       111.5000 139.2500 117.7500 Du        
  17638 ****       111.5000 139.5000 117.0000 Du        
  17639 ****       111.5000 139.5000 117.2500 Du        
  17640 ****       111.5000 139.5000 117.5000 Du        
  17641 ****       111.5000 139.5000 117.7500 Du        
  17642 ****       111.5000 139.7500 117.0000 Du        
  17643 ****       111.5000 139.7500 117.2500 Du        
  17644 ****       111.5000 139.7500 117.5000 Du        
  17645 ****       111.5000 139.7500 117.7500 Du        
  17646 ****       111.5000 140.0000 117.0000 Du        
  17647 ****       111.5000 140.0000 117.2500 Du        
  17648 ****       111.5000 140.0000 117.5000 Du        
  17649 ****       111.5000 140.0000 117.7500 Du        
  17650 ****       111.5000 140.2500 117.7500 Du        
  17651 ****       111.5000 140.5000 138.7500 Du        
  17652 ****       111.5000 140.5000 139.0000 Du        
  17653 ****       111.5000 140.5000 139.2500 Du        
  17654 ****       111.5000 140.5000 139.5000 Du        
  17655 ****       111.5000 140.7500 138.7500 Du        
  17656 ****       111.5000 140.7500 139.0000 Du        
  17657 ****       111.5000 140.7500 139.2500 Du        
  17658 ****       111.5000 140.7500 139.5000 Du        
  17659 ****       111.5000 140.7500 139.7500 Du        
  17660 ****       111.5000 141.0000 138.7500 Du        
  17661 ****       111.5000 141.0000 139.0000 Du        
  17662 ****       111.5000 141.0000 139.2500 Du        
  17663 ****       111.5000 141.0000 139.5000 Du        
  17664 ****       111.5000 141.0000 139.7500 Du        
  17665 ****       111.5000 141.2500 139.0000 Du        
  17666 ****       111.5000 141.2500 139.2500 Du        
  17667 ****       111.5000 141.2500 139.5000 Du        
  17668 ****       111.5000 141.2500 139.7500 Du        
  17669 ****       111.5000 141.5000 139.0000 Du        
  17670 ****       111.5000 141.5000 139.2500 Du        
  17671 ****       111.5000 141.5000 139.5000 Du        
  17672 ****       111.5000 141.5000 139.7500 Du        
  17673 ****       111.5000 141.5000 140.0000 Du        
  17674 ****       111.5000 141.7500 139.2500 Du        
  17675 ****       111.5000 141.7500 139.5000 Du        
  17676 ****       111.5000 141.7500 139.7500 Du        
  17677 ****       111.5000 141.7500 140.0000 Du        
  17678 ****       111.5000 141.7500 140.2500 Du        
  17679 ****       111.5000 151.7500 139.7500 Du        
  17680 ****       111.5000 151.7500 140.0000 Du        
  17681 ****       111.5000 151.7500 140.2500 Du        
  17682 ****       111.5000 151.7500 140.5000 Du        
  17683 ****       111.5000 151.7500 140.7500 Du        
  17684 ****       111.5000 151.7500 141.0000 Du        
  17685 ****       111.5000 151.7500 141.2500 Du        
  17686 ****       111.5000 152.0000 139.5000 Du        
  17687 ****       111.5000 152.0000 139.7500 Du        
  17688 ****       111.5000 152.0000 140.0000 Du        
  17689 ****       111.5000 152.0000 140.2500 Du        
  17690 ****       111.5000 152.0000 140.5000 Du        
  17691 ****       111.5000 152.0000 140.7500 Du        
  17692 ****       111.5000 152.0000 141.0000 Du        
  17693 ****       111.5000 152.0000 141.2500 Du        
  17694 ****       111.5000 152.2500 139.2500 Du        
  17695 ****       111.5000 152.2500 139.5000 Du        
  17696 ****       111.5000 152.2500 139.7500 Du        
  17697 ****       111.5000 152.2500 140.0000 Du        
  17698 ****       111.5000 152.2500 140.2500 Du        
  17699 ****       111.5000 152.2500 140.5000 Du        
  17700 ****       111.5000 152.2500 140.7500 Du        
  17701 ****       111.5000 152.2500 141.0000 Du        
  17702 ****       111.5000 152.2500 141.2500 Du        
  17703 ****       111.5000 152.5000 139.2500 Du        
  17704 ****       111.5000 152.5000 139.5000 Du        
  17705 ****       111.5000 152.5000 139.7500 Du        
  17706 ****       111.5000 152.5000 140.0000 Du        
  17707 ****       111.5000 152.5000 140.2500 Du        
  17708 ****       111.5000 152.5000 140.5000 Du        
  17709 ****       111.5000 152.5000 140.7500 Du        
  17710 ****       111.5000 152.5000 141.0000 Du        
  17711 ****       111.5000 152.7500 139.2500 Du        
  17712 ****       111.5000 152.7500 139.5000 Du        
  17713 ****       111.5000 152.7500 139.7500 Du        
  17714 ****       111.5000 152.7500 140.0000 Du        
  17715 ****       111.5000 152.7500 140.2500 Du        
  17716 ****       111.5000 152.7500 140.5000 Du        
  17717 ****       111.5000 152.7500 140.7500 Du        
  17718 ****       111.5000 152.7500 141.0000 Du        
  17719 ****       111.5000 152.7500 141.2500 Du        
  17720 ****       111.5000 153.0000 139.0000 Du        
  17721 ****       111.5000 153.0000 139.2500 Du        
  17722 ****       111.5000 153.0000 139.5000 Du        
  17723 ****       111.5000 153.0000 139.7500 Du        
  17724 ****       111.5000 153.0000 140.0000 Du        
  17725 ****       111.5000 153.0000 140.2500 Du        
  17726 ****       111.5000 153.0000 140.5000 Du        
  17727 ****       111.5000 153.0000 140.7500 Du        
  17728 ****       111.5000 153.0000 141.0000 Du        
  17729 ****       111.5000 153.0000 141.2500 Du        
  17730 ****       111.5000 153.2500 139.0000 Du        
  17731 ****       111.5000 153.2500 139.2500 Du        
  17732 ****       111.5000 153.2500 139.5000 Du        
  17733 ****       111.5000 153.2500 139.7500 Du        
  17734 ****       111.5000 153.2500 140.0000 Du        
  17735 ****       111.5000 153.2500 140.2500 Du        
  17736 ****       111.5000 153.2500 140.5000 Du        
  17737 ****       111.5000 153.2500 140.7500 Du        
  17738 ****       111.5000 153.2500 141.0000 Du        
  17739 ****       111.5000 153.2500 141.2500 Du        
  17740 ****       111.5000 153.5000 139.0000 Du        
  17741 ****       111.5000 153.5000 139.2500 Du        
  17742 ****       111.5000 153.5000 139.5000 Du        
  17743 ****       111.5000 153.5000 139.7500 Du        
  17744 ****       111.5000 153.5000 140.0000 Du        
  17745 ****       111.5000 153.5000 140.2500 Du        
  17746 ****       111.5000 153.5000 140.5000 Du        
  17747 ****       111.5000 153.5000 140.7500 Du        
  17748 ****       111.5000 153.7500 139.0000 Du        
  17749 ****       111.5000 153.7500 139.2500 Du        
  17750 ****       111.5000 153.7500 139.5000 Du        
  17751 ****       111.5000 153.7500 139.7500 Du        
  17752 ****       111.5000 153.7500 140.0000 Du        
  17753 ****       111.5000 153.7500 140.2500 Du        
  17754 ****       111.5000 153.7500 140.5000 Du        
  17755 ****       111.5000 154.0000 138.7500 Du        
  17756 ****       111.5000 154.0000 139.0000 Du        
  17757 ****       111.5000 154.0000 139.2500 Du        
  17758 ****       111.5000 154.0000 139.5000 Du        
  17759 ****       111.5000 154.0000 139.7500 Du        
  17760 ****       111.5000 154.0000 140.0000 Du        
  17761 ****       111.5000 154.0000 140.2500 Du        
  17762 ****       111.5000 154.2500 138.7500 Du        
  17763 ****       111.5000 154.2500 139.0000 Du        
  17764 ****       111.5000 154.2500 139.2500 Du        
  17765 ****       111.5000 154.2500 139.5000 Du        
  17766 ****       111.5000 154.2500 139.7500 Du        
  17767 ****       111.5000 154.2500 140.0000 Du        
  17768 ****       111.5000 154.5000 139.0000 Du        
  17769 ****       111.5000 154.5000 139.2500 Du        
  17770 ****       111.5000 160.0000 116.7500 Du        
  17771 ****       111.5000 160.0000 117.0000 Du        
  17772 ****       111.5000 160.2500 116.0000 Du        
  17773 ****       111.5000 160.2500 116.2500 Du        
  17774 ****       111.5000 160.2500 116.5000 Du        
  17775 ****       111.5000 160.2500 116.7500 Du        
  17776 ****       111.5000 160.2500 117.0000 Du        
  17777 ****       111.5000 160.2500 117.2500 Du        
  17778 ****       111.5000 160.5000 115.2500 Du        
  17779 ****       111.5000 160.5000 115.5000 Du        
  17780 ****       111.5000 160.5000 115.7500 Du        
  17781 ****       111.5000 160.5000 116.0000 Du        
  17782 ****       111.5000 160.5000 116.2500 Du        
  17783 ****       111.5000 160.5000 116.5000 Du        
  17784 ****       111.5000 160.5000 116.7500 Du        
  17785 ****       111.5000 160.5000 117.0000 Du        
  17786 ****       111.5000 160.7500 115.0000 Du        
  17787 ****       111.5000 160.7500 115.2500 Du        
  17788 ****       111.5000 160.7500 115.5000 Du        
  17789 ****       111.5000 160.7500 115.7500 Du        
  17790 ****       111.5000 160.7500 116.0000 Du        
  17791 ****       111.5000 160.7500 116.2500 Du        
  17792 ****       111.5000 160.7500 116.5000 Du        
  17793 ****       111.5000 160.7500 116.7500 Du        
  17794 ****       111.5000 160.7500 117.0000 Du        
  17795 ****       111.5000 161.0000 114.7500 Du        
  17796 ****       111.5000 161.0000 115.0000 Du        
  17797 ****       111.5000 161.0000 115.2500 Du        
  17798 ****       111.5000 161.0000 115.5000 Du        
  17799 ****       111.5000 161.0000 115.7500 Du        
  17800 ****       111.5000 161.0000 116.0000 Du        
  17801 ****       111.5000 161.0000 116.2500 Du        
  17802 ****       111.5000 161.0000 116.5000 Du        
  17803 ****       111.5000 161.0000 116.7500 Du        
  17804 ****       111.5000 161.2500 114.7500 Du        
  17805 ****       111.5000 161.2500 115.0000 Du        
  17806 ****       111.5000 161.2500 115.2500 Du        
  17807 ****       111.5000 161.2500 115.5000 Du        
  17808 ****       111.5000 161.2500 115.7500 Du        
  17809 ****       111.5000 161.2500 116.0000 Du        
  17810 ****       111.5000 161.2500 116.2500 Du        
  17811 ****       111.5000 161.2500 116.5000 Du        
  17812 ****       111.5000 161.2500 116.7500 Du        
  17813 ****       111.5000 161.5000 114.7500 Du        
  17814 ****       111.5000 161.5000 115.0000 Du        
  17815 ****       111.5000 161.5000 115.2500 Du        
  17816 ****       111.5000 161.5000 115.5000 Du        
  17817 ****       111.5000 161.5000 115.7500 Du        
  17818 ****       111.5000 161.5000 116.0000 Du        
  17819 ****       111.5000 161.5000 116.2500 Du        
  17820 ****       111.5000 161.5000 116.5000 Du        
  17821 ****       111.5000 161.7500 114.7500 Du        
  17822 ****       111.5000 161.7500 115.0000 Du        
  17823 ****       111.5000 161.7500 115.2500 Du        
  17824 ****       111.5000 161.7500 115.5000 Du        
  17825 ****       111.5000 161.7500 115.7500 Du        
  17826 ****       111.5000 161.7500 116.0000 Du        
  17827 ****       111.5000 161.7500 116.2500 Du        
  17828 ****       111.5000 161.7500 116.5000 Du        
  17829 ****       111.5000 162.0000 114.7500 Du        
  17830 ****       111.5000 162.0000 115.0000 Du        
  17831 ****       111.5000 162.0000 115.2500 Du        
  17832 ****       111.5000 162.0000 115.5000 Du        
  17833 ****       111.5000 162.0000 115.7500 Du        
  17834 ****       111.5000 162.0000 116.0000 Du        
  17835 ****       111.5000 162.0000 116.2500 Du        
  17836 ****       111.5000 162.0000 116.5000 Du        
  17837 ****       111.5000 162.2500 115.0000 Du        
  17838 ****       111.5000 162.2500 115.2500 Du        
  17839 ****       111.5000 162.2500 115.5000 Du        
  17840 ****       111.5000 162.2500 115.7500 Du        
  17841 ****       111.5000 162.2500 116.0000 Du        
  17842 ****       111.5000 162.2500 116.2500 Du        
  17843 ****       111.5000 162.2500 116.5000 Du        
  17844 ****       111.5000 162.5000 115.0000 Du        
  17845 ****       111.5000 162.5000 115.2500 Du        
  17846 ****       111.5000 162.5000 115.5000 Du        
  17847 ****       111.5000 162.5000 115.7500 Du        
  17848 ****       111.5000 162.5000 116.0000 Du        
  17849 ****       111.5000 162.5000 116.2500 Du        
  17850 ****       111.5000 162.5000 116.5000 Du        
  17851 ****       111.5000 162.7500 115.2500 Du        
  17852 ****       111.5000 162.7500 115.5000 Du        
  17853 ****       111.5000 162.7500 115.7500 Du        
  17854 ****       111.5000 162.7500 116.0000 Du        
  17855 ****       111.5000 162.7500 116.2500 Du        
  17856 ****       111.5000 162.7500 116.5000 Du        
  17857 ****       111.5000 163.0000 115.7500 Du        
  17858 ****       111.5000 163.0000 116.0000 Du        
  17859 ****       111.5000 163.0000 116.2500 Du        
  17860 ****       111.5000 163.0000 116.5000 Du        
  17861 ****       111.5000 163.7500 140.0000 Du        
  17862 ****       111.5000 164.0000 139.2500 Du        
  17863 ****       111.5000 164.0000 139.5000 Du        
  17864 ****       111.5000 164.0000 139.7500 Du        
  17865 ****       111.5000 164.0000 140.0000 Du        
  17866 ****       111.5000 164.2500 139.7500 Du        
  17867 ****       111.5000 167.7500 139.2500 Du        
  17868 ****       111.5000 167.7500 139.5000 Du        
  17869 ****       111.5000 167.7500 139.7500 Du        
  17870 ****       111.5000 167.7500 140.0000 Du        
  17871 ****       111.5000 168.0000 138.7500 Du        
  17872 ****       111.5000 168.0000 139.0000 Du        
  17873 ****       111.5000 168.0000 139.2500 Du        
  17874 ****       111.5000 168.0000 139.5000 Du        
  17875 ****       111.5000 168.0000 139.7500 Du        
  17876 ****       111.5000 168.0000 140.0000 Du        
  17877 ****       111.5000 168.0000 140.2500 Du        
  17878 ****       111.5000 168.2500 138.2500 Du        
  17879 ****       111.5000 168.2500 138.5000 Du        
  17880 ****       111.5000 168.2500 138.7500 Du        
  17881 ****       111.5000 168.2500 139.0000 Du        
  17882 ****       111.5000 168.2500 139.2500 Du        
  17883 ****       111.5000 168.2500 139.5000 Du        
  17884 ****       111.5000 168.2500 139.7500 Du        
  17885 ****       111.5000 168.2500 140.0000 Du        
  17886 ****       111.5000 168.2500 140.2500 Du        
  17887 ****       111.5000 168.5000 138.0000 Du        
  17888 ****       111.5000 168.5000 138.2500 Du        
  17889 ****       111.5000 168.5000 138.5000 Du        
  17890 ****       111.5000 168.5000 138.7500 Du        
  17891 ****       111.5000 168.5000 139.0000 Du        
  17892 ****       111.5000 168.5000 139.2500 Du        
  17893 ****       111.5000 168.5000 139.5000 Du        
  17894 ****       111.5000 168.5000 139.7500 Du        
  17895 ****       111.5000 168.5000 140.0000 Du        
  17896 ****       111.5000 168.5000 140.2500 Du        
  17897 ****       111.5000 168.7500 138.0000 Du        
  17898 ****       111.5000 168.7500 138.2500 Du        
  17899 ****       111.5000 168.7500 138.5000 Du        
  17900 ****       111.5000 168.7500 138.7500 Du        
  17901 ****       111.5000 168.7500 139.0000 Du        
  17902 ****       111.5000 168.7500 139.2500 Du        
  17903 ****       111.5000 168.7500 139.5000 Du        
  17904 ****       111.5000 168.7500 139.7500 Du        
  17905 ****       111.5000 168.7500 140.0000 Du        
  17906 ****       111.5000 168.7500 140.2500 Du        
  17907 ****       111.5000 169.0000 138.0000 Du        
  17908 ****       111.5000 169.0000 138.2500 Du        
  17909 ****       111.5000 169.0000 138.5000 Du        
  17910 ****       111.5000 169.0000 138.7500 Du        
  17911 ****       111.5000 169.0000 139.0000 Du        
  17912 ****       111.5000 169.0000 139.2500 Du        
  17913 ****       111.5000 169.0000 139.5000 Du        
  17914 ****       111.5000 169.0000 139.7500 Du        
  17915 ****       111.5000 169.0000 140.0000 Du        
  17916 ****       111.5000 169.0000 140.2500 Du        
  17917 ****       111.5000 169.2500 138.0000 Du        
  17918 ****       111.5000 169.2500 138.2500 Du        
  17919 ****       111.5000 169.2500 138.5000 Du        
  17920 ****       111.5000 169.2500 138.7500 Du        
  17921 ****       111.5000 169.2500 139.0000 Du        
  17922 ****       111.5000 169.2500 139.2500 Du        
  17923 ****       111.5000 169.2500 139.5000 Du        
  17924 ****       111.5000 169.2500 139.7500 Du        
  17925 ****       111.5000 169.2500 140.0000 Du        
  17926 ****       111.5000 169.2500 140.2500 Du        
  17927 ****       111.5000 169.5000 138.0000 Du        
  17928 ****       111.5000 169.5000 138.2500 Du        
  17929 ****       111.5000 169.5000 138.5000 Du        
  17930 ****       111.5000 169.5000 138.7500 Du        
  17931 ****       111.5000 169.5000 139.0000 Du        
  17932 ****       111.5000 169.5000 139.2500 Du        
  17933 ****       111.5000 169.5000 139.5000 Du        
  17934 ****       111.5000 169.7500 138.0000 Du        
  17935 ****       111.5000 169.7500 138.2500 Du        
  17936 ****       111.5000 169.7500 138.5000 Du        
  17937 ****       111.5000 169.7500 138.7500 Du        
  17938 ****       111.5000 169.7500 139.0000 Du        
  17939 ****       111.5000 169.7500 139.2500 Du        
  17940 ****       111.5000 169.7500 139.5000 Du        
  17941 ****       111.5000 170.0000 138.0000 Du        
  17942 ****       111.5000 170.0000 138.2500 Du        
  17943 ****       111.5000 170.0000 138.5000 Du        
  17944 ****       111.5000 170.0000 138.7500 Du        
  17945 ****       111.5000 170.0000 139.0000 Du        
  17946 ****       111.5000 170.0000 139.2500 Du        
  17947 ****       111.5000 170.0000 139.5000 Du        
  17948 ****       111.5000 170.2500 138.0000 Du        
  17949 ****       111.5000 170.2500 138.2500 Du        
  17950 ****       111.5000 170.2500 138.5000 Du        
  17951 ****       111.5000 170.2500 138.7500 Du        
  17952 ****       111.5000 170.2500 139.0000 Du        
  17953 ****       111.5000 170.2500 139.2500 Du        
  17954 ****       111.5000 170.5000 138.0000 Du        
  17955 ****       111.5000 170.5000 138.2500 Du        
  17956 ****       111.5000 170.5000 138.5000 Du        
  17957 ****       111.5000 170.5000 138.7500 Du        
  17958 ****       111.5000 170.5000 139.0000 Du        
  17959 ****       111.5000 170.5000 139.2500 Du        
  17960 ****       111.5000 170.7500 138.0000 Du        
  17961 ****       111.5000 170.7500 138.2500 Du        
  17962 ****       111.5000 170.7500 138.7500 Du        
  17963 ****       111.5000 170.7500 139.0000 Du        
  17964 ****       111.5000 170.7500 139.2500 Du        
  17965 ****       111.7500 133.0000 121.7500 Du        
  17966 ****       111.7500 139.0000 117.5000 Du        
  17967 ****       111.7500 139.0000 117.7500 Du        
  17968 ****       111.7500 139.2500 117.2500 Du        
  17969 ****       111.7500 139.2500 117.5000 Du        
  17970 ****       111.7500 139.2500 117.7500 Du        
  17971 ****       111.7500 139.2500 118.0000 Du        
  17972 ****       111.7500 139.5000 117.0000 Du        
  17973 ****       111.7500 139.5000 117.2500 Du        
  17974 ****       111.7500 139.5000 117.5000 Du        
  17975 ****       111.7500 139.5000 117.7500 Du        
  17976 ****       111.7500 139.5000 118.0000 Du        
  17977 ****       111.7500 139.7500 117.0000 Du        
  17978 ****       111.7500 139.7500 117.2500 Du        
  17979 ****       111.7500 139.7500 117.5000 Du        
  17980 ****       111.7500 139.7500 117.7500 Du        
  17981 ****       111.7500 139.7500 118.0000 Du        
  17982 ****       111.7500 140.0000 117.2500 Du        
  17983 ****       111.7500 140.0000 117.5000 Du        
  17984 ****       111.7500 140.0000 117.7500 Du        
  17985 ****       111.7500 140.0000 118.0000 Du        
  17986 ****       111.7500 140.0000 118.2500 Du        
  17987 ****       111.7500 140.2500 117.5000 Du        
  17988 ****       111.7500 140.2500 117.7500 Du        
  17989 ****       111.7500 140.2500 118.0000 Du        
  17990 ****       111.7500 140.2500 118.2500 Du        
  17991 ****       111.7500 140.5000 117.7500 Du        
  17992 ****       111.7500 140.5000 118.0000 Du        
  17993 ****       111.7500 140.5000 118.2500 Du        
  17994 ****       111.7500 140.5000 138.5000 Du        
  17995 ****       111.7500 140.5000 138.7500 Du        
  17996 ****       111.7500 140.5000 139.0000 Du        
  17997 ****       111.7500 140.5000 139.2500 Du        
  17998 ****       111.7500 140.7500 118.0000 Du        
  17999 ****       111.7500 140.7500 118.2500 Du        
  18000 ****       111.7500 140.7500 138.5000 Du        
  18001 ****       111.7500 140.7500 138.7500 Du        
  18002 ****       111.7500 140.7500 139.0000 Du        
  18003 ****       111.7500 140.7500 139.2500 Du        
  18004 ****       111.7500 140.7500 139.5000 Du        
  18005 ****       111.7500 141.0000 138.7500 Du        
  18006 ****       111.7500 141.0000 139.0000 Du        
  18007 ****       111.7500 141.0000 139.2500 Du        
  18008 ****       111.7500 141.0000 139.5000 Du        
  18009 ****       111.7500 141.0000 139.7500 Du        
  18010 ****       111.7500 141.2500 139.0000 Du        
  18011 ****       111.7500 141.2500 139.2500 Du        
  18012 ****       111.7500 141.2500 139.5000 Du        
  18013 ****       111.7500 141.2500 139.7500 Du        
  18014 ****       111.7500 141.5000 139.0000 Du        
  18015 ****       111.7500 141.5000 139.2500 Du        
  18016 ****       111.7500 141.5000 139.5000 Du        
  18017 ****       111.7500 141.5000 139.7500 Du        
  18018 ****       111.7500 141.7500 139.2500 Du        
  18019 ****       111.7500 141.7500 139.5000 Du        
  18020 ****       111.7500 141.7500 139.7500 Du        
  18021 ****       111.7500 141.7500 140.0000 Du        
  18022 ****       111.7500 151.7500 139.7500 Du        
  18023 ****       111.7500 151.7500 140.0000 Du        
  18024 ****       111.7500 151.7500 140.2500 Du        
  18025 ****       111.7500 151.7500 140.5000 Du        
  18026 ****       111.7500 151.7500 140.7500 Du        
  18027 ****       111.7500 151.7500 141.0000 Du        
  18028 ****       111.7500 152.0000 139.2500 Du        
  18029 ****       111.7500 152.0000 139.5000 Du        
  18030 ****       111.7500 152.0000 139.7500 Du        
  18031 ****       111.7500 152.0000 140.0000 Du        
  18032 ****       111.7500 152.0000 140.2500 Du        
  18033 ****       111.7500 152.0000 140.5000 Du        
  18034 ****       111.7500 152.0000 140.7500 Du        
  18035 ****       111.7500 152.0000 141.0000 Du        
  18036 ****       111.7500 152.0000 141.2500 Du        
  18037 ****       111.7500 152.2500 139.2500 Du        
  18038 ****       111.7500 152.2500 139.5000 Du        
  18039 ****       111.7500 152.2500 139.7500 Du        
  18040 ****       111.7500 152.2500 140.0000 Du        
  18041 ****       111.7500 152.2500 140.2500 Du        
  18042 ****       111.7500 152.2500 140.5000 Du        
  18043 ****       111.7500 152.2500 140.7500 Du        
  18044 ****       111.7500 152.2500 141.0000 Du        
  18045 ****       111.7500 152.2500 141.2500 Du        
  18046 ****       111.7500 152.5000 139.2500 Du        
  18047 ****       111.7500 152.5000 139.5000 Du        
  18048 ****       111.7500 152.5000 139.7500 Du        
  18049 ****       111.7500 152.5000 140.0000 Du        
  18050 ****       111.7500 152.5000 140.2500 Du        
  18051 ****       111.7500 152.5000 140.5000 Du        
  18052 ****       111.7500 152.5000 140.7500 Du        
  18053 ****       111.7500 152.5000 141.0000 Du        
  18054 ****       111.7500 152.7500 139.0000 Du        
  18055 ****       111.7500 152.7500 139.2500 Du        
  18056 ****       111.7500 152.7500 139.5000 Du        
  18057 ****       111.7500 152.7500 139.7500 Du        
  18058 ****       111.7500 152.7500 140.0000 Du        
  18059 ****       111.7500 152.7500 140.2500 Du        
  18060 ****       111.7500 152.7500 140.5000 Du        
  18061 ****       111.7500 152.7500 140.7500 Du        
  18062 ****       111.7500 152.7500 141.0000 Du        
  18063 ****       111.7500 153.0000 139.0000 Du        
  18064 ****       111.7500 153.0000 139.2500 Du        
  18065 ****       111.7500 153.0000 139.5000 Du        
  18066 ****       111.7500 153.0000 139.7500 Du        
  18067 ****       111.7500 153.0000 140.0000 Du        
  18068 ****       111.7500 153.0000 140.2500 Du        
  18069 ****       111.7500 153.0000 140.5000 Du        
  18070 ****       111.7500 153.0000 140.7500 Du        
  18071 ****       111.7500 153.0000 141.0000 Du        
  18072 ****       111.7500 153.0000 141.2500 Du        
  18073 ****       111.7500 153.2500 139.0000 Du        
  18074 ****       111.7500 153.2500 139.2500 Du        
  18075 ****       111.7500 153.2500 139.5000 Du        
  18076 ****       111.7500 153.2500 139.7500 Du        
  18077 ****       111.7500 153.2500 140.0000 Du        
  18078 ****       111.7500 153.2500 140.2500 Du        
  18079 ****       111.7500 153.2500 140.5000 Du        
  18080 ****       111.7500 153.2500 140.7500 Du        
  18081 ****       111.7500 153.2500 141.0000 Du        
  18082 ****       111.7500 153.5000 138.7500 Du        
  18083 ****       111.7500 153.5000 139.0000 Du        
  18084 ****       111.7500 153.5000 139.2500 Du        
  18085 ****       111.7500 153.5000 139.5000 Du        
  18086 ****       111.7500 153.5000 139.7500 Du        
  18087 ****       111.7500 153.5000 140.0000 Du        
  18088 ****       111.7500 153.5000 140.2500 Du        
  18089 ****       111.7500 153.5000 140.5000 Du        
  18090 ****       111.7500 153.7500 138.7500 Du        
  18091 ****       111.7500 153.7500 139.0000 Du        
  18092 ****       111.7500 153.7500 139.2500 Du        
  18093 ****       111.7500 153.7500 139.5000 Du        
  18094 ****       111.7500 153.7500 139.7500 Du        
  18095 ****       111.7500 153.7500 140.0000 Du        
  18096 ****       111.7500 153.7500 140.2500 Du        
  18097 ****       111.7500 154.0000 138.7500 Du        
  18098 ****       111.7500 154.0000 139.0000 Du        
  18099 ****       111.7500 154.0000 139.2500 Du        
  18100 ****       111.7500 154.0000 139.5000 Du        
  18101 ****       111.7500 154.0000 139.7500 Du        
  18102 ****       111.7500 154.0000 140.0000 Du        
  18103 ****       111.7500 154.2500 138.7500 Du        
  18104 ****       111.7500 154.2500 139.0000 Du        
  18105 ****       111.7500 154.2500 139.2500 Du        
  18106 ****       111.7500 154.2500 139.5000 Du        
  18107 ****       111.7500 154.2500 139.7500 Du        
  18108 ****       111.7500 154.5000 139.0000 Du        
  18109 ****       111.7500 154.5000 139.2500 Du        
  18110 ****       111.7500 160.0000 116.2500 Du        
  18111 ****       111.7500 160.0000 116.5000 Du        
  18112 ****       111.7500 160.0000 116.7500 Du        
  18113 ****       111.7500 160.0000 117.0000 Du        
  18114 ****       111.7500 160.2500 115.0000 Du        
  18115 ****       111.7500 160.2500 115.2500 Du        
  18116 ****       111.7500 160.2500 115.5000 Du        
  18117 ****       111.7500 160.2500 115.7500 Du        
  18118 ****       111.7500 160.2500 116.0000 Du        
  18119 ****       111.7500 160.2500 116.2500 Du        
  18120 ****       111.7500 160.2500 116.5000 Du        
  18121 ****       111.7500 160.2500 116.7500 Du        
  18122 ****       111.7500 160.2500 117.0000 Du        
  18123 ****       111.7500 160.5000 114.7500 Du        
  18124 ****       111.7500 160.5000 115.0000 Du        
  18125 ****       111.7500 160.5000 115.2500 Du        
  18126 ****       111.7500 160.5000 115.5000 Du        
  18127 ****       111.7500 160.5000 115.7500 Du        
  18128 ****       111.7500 160.5000 116.0000 Du        
  18129 ****       111.7500 160.5000 116.2500 Du        
  18130 ****       111.7500 160.5000 116.5000 Du        
  18131 ****       111.7500 160.5000 116.7500 Du        
  18132 ****       111.7500 160.5000 117.0000 Du        
  18133 ****       111.7500 160.7500 114.5000 Du        
  18134 ****       111.7500 160.7500 114.7500 Du        
  18135 ****       111.7500 160.7500 115.0000 Du        
  18136 ****       111.7500 160.7500 115.2500 Du        
  18137 ****       111.7500 160.7500 115.5000 Du        
  18138 ****       111.7500 160.7500 115.7500 Du        
  18139 ****       111.7500 160.7500 116.0000 Du        
  18140 ****       111.7500 160.7500 116.2500 Du        
  18141 ****       111.7500 160.7500 116.5000 Du        
  18142 ****       111.7500 160.7500 116.7500 Du        
  18143 ****       111.7500 161.0000 114.5000 Du        
  18144 ****       111.7500 161.0000 114.7500 Du        
  18145 ****       111.7500 161.0000 115.0000 Du        
  18146 ****       111.7500 161.0000 115.2500 Du        
  18147 ****       111.7500 161.0000 115.5000 Du        
  18148 ****       111.7500 161.0000 115.7500 Du        
  18149 ****       111.7500 161.0000 116.0000 Du        
  18150 ****       111.7500 161.0000 116.2500 Du        
  18151 ****       111.7500 161.0000 116.5000 Du        
  18152 ****       111.7500 161.0000 116.7500 Du        
  18153 ****       111.7500 161.2500 114.5000 Du        
  18154 ****       111.7500 161.2500 114.7500 Du        
  18155 ****       111.7500 161.2500 115.0000 Du        
  18156 ****       111.7500 161.2500 115.2500 Du        
  18157 ****       111.7500 161.2500 115.5000 Du        
  18158 ****       111.7500 161.2500 115.7500 Du        
  18159 ****       111.7500 161.2500 116.0000 Du        
  18160 ****       111.7500 161.2500 116.2500 Du        
  18161 ****       111.7500 161.2500 116.5000 Du        
  18162 ****       111.7500 161.5000 114.5000 Du        
  18163 ****       111.7500 161.5000 114.7500 Du        
  18164 ****       111.7500 161.5000 115.0000 Du        
  18165 ****       111.7500 161.5000 115.2500 Du        
  18166 ****       111.7500 161.5000 115.5000 Du        
  18167 ****       111.7500 161.5000 115.7500 Du        
  18168 ****       111.7500 161.5000 116.0000 Du        
  18169 ****       111.7500 161.5000 116.2500 Du        
  18170 ****       111.7500 161.7500 114.7500 Du        
  18171 ****       111.7500 161.7500 115.0000 Du        
  18172 ****       111.7500 161.7500 115.2500 Du        
  18173 ****       111.7500 161.7500 115.5000 Du        
  18174 ****       111.7500 161.7500 115.7500 Du        
  18175 ****       111.7500 161.7500 116.0000 Du        
  18176 ****       111.7500 161.7500 116.2500 Du        
  18177 ****       111.7500 162.0000 114.7500 Du        
  18178 ****       111.7500 162.0000 115.0000 Du        
  18179 ****       111.7500 162.0000 115.2500 Du        
  18180 ****       111.7500 162.0000 115.5000 Du        
  18181 ****       111.7500 162.0000 115.7500 Du        
  18182 ****       111.7500 162.0000 116.0000 Du        
  18183 ****       111.7500 162.0000 116.2500 Du        
  18184 ****       111.7500 162.2500 114.7500 Du        
  18185 ****       111.7500 162.2500 115.0000 Du        
  18186 ****       111.7500 162.2500 115.2500 Du        
  18187 ****       111.7500 162.2500 115.5000 Du        
  18188 ****       111.7500 162.2500 115.7500 Du        
  18189 ****       111.7500 162.2500 116.0000 Du        
  18190 ****       111.7500 162.2500 116.2500 Du        
  18191 ****       111.7500 162.5000 114.7500 Du        
  18192 ****       111.7500 162.5000 115.0000 Du        
  18193 ****       111.7500 162.5000 115.2500 Du        
  18194 ****       111.7500 162.5000 115.5000 Du        
  18195 ****       111.7500 162.5000 115.7500 Du        
  18196 ****       111.7500 162.5000 116.0000 Du        
  18197 ****       111.7500 162.5000 116.2500 Du        
  18198 ****       111.7500 162.7500 114.7500 Du        
  18199 ****       111.7500 162.7500 115.0000 Du        
  18200 ****       111.7500 162.7500 115.2500 Du        
  18201 ****       111.7500 162.7500 115.5000 Du        
  18202 ****       111.7500 162.7500 115.7500 Du        
  18203 ****       111.7500 162.7500 116.0000 Du        
  18204 ****       111.7500 162.7500 116.2500 Du        
  18205 ****       111.7500 163.0000 115.0000 Du        
  18206 ****       111.7500 163.0000 115.2500 Du        
  18207 ****       111.7500 163.0000 115.5000 Du        
  18208 ****       111.7500 163.0000 115.7500 Du        
  18209 ****       111.7500 163.0000 116.0000 Du        
  18210 ****       111.7500 163.0000 116.2500 Du        
  18211 ****       111.7500 163.0000 140.7500 Du        
  18212 ****       111.7500 163.0000 141.0000 Du        
  18213 ****       111.7500 163.0000 141.2500 Du        
  18214 ****       111.7500 163.2500 140.5000 Du        
  18215 ****       111.7500 163.2500 140.7500 Du        
  18216 ****       111.7500 163.2500 141.0000 Du        
  18217 ****       111.7500 163.7500 139.7500 Du        
  18218 ****       111.7500 163.7500 140.0000 Du        
  18219 ****       111.7500 163.7500 140.2500 Du        
  18220 ****       111.7500 164.0000 139.2500 Du        
  18221 ****       111.7500 164.0000 139.5000 Du        
  18222 ****       111.7500 164.0000 139.7500 Du        
  18223 ****       111.7500 164.0000 140.0000 Du        
  18224 ****       111.7500 164.0000 140.2500 Du        
  18225 ****       111.7500 164.2500 139.0000 Du        
  18226 ****       111.7500 164.2500 139.2500 Du        
  18227 ****       111.7500 164.2500 139.5000 Du        
  18228 ****       111.7500 164.2500 139.7500 Du        
  18229 ****       111.7500 164.2500 140.0000 Du        
  18230 ****       111.7500 164.2500 140.2500 Du        
  18231 ****       111.7500 164.5000 139.0000 Du        
  18232 ****       111.7500 164.5000 139.2500 Du        
  18233 ****       111.7500 164.5000 139.5000 Du        
  18234 ****       111.7500 164.5000 139.7500 Du        
  18235 ****       111.7500 164.5000 140.0000 Du        
  18236 ****       111.7500 164.7500 139.2500 Du        
  18237 ****       111.7500 164.7500 139.5000 Du        
  18238 ****       111.7500 164.7500 139.7500 Du        
  18239 ****       111.7500 164.7500 140.0000 Du        
  18240 ****       111.7500 165.0000 139.2500 Du        
  18241 ****       111.7500 165.0000 139.5000 Du        
  18242 ****       111.7500 165.0000 139.7500 Du        
  18243 ****       111.7500 165.0000 140.0000 Du        
  18244 ****       111.7500 165.0000 140.2500 Du        
  18245 ****       111.7500 165.2500 139.7500 Du        
  18246 ****       111.7500 165.2500 140.0000 Du        
  18247 ****       111.7500 165.5000 139.7500 Du        
  18248 ****       111.7500 165.5000 140.0000 Du        
  18249 ****       111.7500 165.5000 140.2500 Du        
  18250 ****       111.7500 165.7500 139.5000 Du        
  18251 ****       111.7500 165.7500 139.7500 Du        
  18252 ****       111.7500 165.7500 140.0000 Du        
  18253 ****       111.7500 165.7500 140.2500 Du        
  18254 ****       111.7500 166.0000 139.5000 Du        
  18255 ****       111.7500 166.0000 139.7500 Du        
  18256 ****       111.7500 166.0000 140.0000 Du        
  18257 ****       111.7500 166.0000 140.2500 Du        
  18258 ****       111.7500 166.2500 139.7500 Du        
  18259 ****       111.7500 166.2500 140.0000 Du        
  18260 ****       111.7500 166.2500 140.2500 Du        
  18261 ****       111.7500 166.5000 139.7500 Du        
  18262 ****       111.7500 166.5000 140.0000 Du        
  18263 ****       111.7500 166.7500 139.7500 Du        
  18264 ****       111.7500 166.7500 140.0000 Du        
  18265 ****       111.7500 166.7500 140.2500 Du        
  18266 ****       111.7500 167.0000 139.2500 Du        
  18267 ****       111.7500 167.0000 139.7500 Du        
  18268 ****       111.7500 167.0000 140.0000 Du        
  18269 ****       111.7500 167.2500 139.0000 Du        
  18270 ****       111.7500 167.2500 139.2500 Du        
  18271 ****       111.7500 167.2500 139.5000 Du        
  18272 ****       111.7500 167.2500 139.7500 Du        
  18273 ****       111.7500 167.2500 140.0000 Du        
  18274 ****       111.7500 167.5000 138.7500 Du        
  18275 ****       111.7500 167.5000 139.0000 Du        
  18276 ****       111.7500 167.5000 139.2500 Du        
  18277 ****       111.7500 167.5000 139.5000 Du        
  18278 ****       111.7500 167.5000 139.7500 Du        
  18279 ****       111.7500 167.5000 140.0000 Du        
  18280 ****       111.7500 167.7500 138.2500 Du        
  18281 ****       111.7500 167.7500 138.5000 Du        
  18282 ****       111.7500 167.7500 138.7500 Du        
  18283 ****       111.7500 167.7500 139.0000 Du        
  18284 ****       111.7500 167.7500 139.2500 Du        
  18285 ****       111.7500 167.7500 139.5000 Du        
  18286 ****       111.7500 167.7500 139.7500 Du        
  18287 ****       111.7500 167.7500 140.0000 Du        
  18288 ****       111.7500 167.7500 140.2500 Du        
  18289 ****       111.7500 168.0000 138.0000 Du        
  18290 ****       111.7500 168.0000 138.2500 Du        
  18291 ****       111.7500 168.0000 138.5000 Du        
  18292 ****       111.7500 168.0000 138.7500 Du        
  18293 ****       111.7500 168.0000 139.0000 Du        
  18294 ****       111.7500 168.0000 139.2500 Du        
  18295 ****       111.7500 168.0000 139.5000 Du        
  18296 ****       111.7500 168.0000 139.7500 Du        
  18297 ****       111.7500 168.0000 140.0000 Du        
  18298 ****       111.7500 168.0000 140.2500 Du        
  18299 ****       111.7500 168.2500 138.0000 Du        
  18300 ****       111.7500 168.2500 138.2500 Du        
  18301 ****       111.7500 168.2500 138.5000 Du        
  18302 ****       111.7500 168.2500 138.7500 Du        
  18303 ****       111.7500 168.2500 139.0000 Du        
  18304 ****       111.7500 168.2500 139.2500 Du        
  18305 ****       111.7500 168.2500 139.5000 Du        
  18306 ****       111.7500 168.2500 139.7500 Du        
  18307 ****       111.7500 168.2500 140.0000 Du        
  18308 ****       111.7500 168.5000 138.0000 Du        
  18309 ****       111.7500 168.5000 138.2500 Du        
  18310 ****       111.7500 168.5000 138.5000 Du        
  18311 ****       111.7500 168.5000 138.7500 Du        
  18312 ****       111.7500 168.5000 139.0000 Du        
  18313 ****       111.7500 168.5000 139.2500 Du        
  18314 ****       111.7500 168.5000 139.5000 Du        
  18315 ****       111.7500 168.5000 139.7500 Du        
  18316 ****       111.7500 168.5000 140.0000 Du        
  18317 ****       111.7500 168.7500 138.0000 Du        
  18318 ****       111.7500 168.7500 138.2500 Du        
  18319 ****       111.7500 168.7500 138.5000 Du        
  18320 ****       111.7500 168.7500 138.7500 Du        
  18321 ****       111.7500 168.7500 139.0000 Du        
  18322 ****       111.7500 168.7500 139.2500 Du        
  18323 ****       111.7500 168.7500 139.5000 Du        
  18324 ****       111.7500 168.7500 139.7500 Du        
  18325 ****       111.7500 168.7500 140.0000 Du        
  18326 ****       111.7500 169.0000 138.0000 Du        
  18327 ****       111.7500 169.0000 138.2500 Du        
  18328 ****       111.7500 169.0000 138.5000 Du        
  18329 ****       111.7500 169.0000 138.7500 Du        
  18330 ****       111.7500 169.0000 139.0000 Du        
  18331 ****       111.7500 169.0000 139.2500 Du        
  18332 ****       111.7500 169.0000 139.5000 Du        
  18333 ****       111.7500 169.0000 139.7500 Du        
  18334 ****       111.7500 169.0000 140.0000 Du        
  18335 ****       111.7500 169.2500 138.0000 Du        
  18336 ****       111.7500 169.2500 138.2500 Du        
  18337 ****       111.7500 169.2500 138.5000 Du        
  18338 ****       111.7500 169.2500 138.7500 Du        
  18339 ****       111.7500 169.2500 139.0000 Du        
  18340 ****       111.7500 169.2500 139.2500 Du        
  18341 ****       111.7500 169.2500 139.5000 Du        
  18342 ****       111.7500 169.2500 139.7500 Du        
  18343 ****       111.7500 169.2500 140.0000 Du        
  18344 ****       111.7500 169.5000 138.2500 Du        
  18345 ****       111.7500 169.5000 138.5000 Du        
  18346 ****       111.7500 169.5000 138.7500 Du        
  18347 ****       111.7500 169.5000 139.0000 Du        
  18348 ****       111.7500 169.5000 139.2500 Du        
  18349 ****       111.7500 169.7500 138.2500 Du        
  18350 ****       111.7500 169.7500 138.5000 Du        
  18351 ****       111.7500 169.7500 138.7500 Du        
  18352 ****       111.7500 169.7500 139.0000 Du        
  18353 ****       111.7500 169.7500 139.2500 Du        
  18354 ****       111.7500 170.0000 138.7500 Du        
  18355 ****       111.7500 170.0000 139.0000 Du        
  18356 ****       111.7500 170.0000 139.2500 Du        
  18357 ****       111.7500 170.2500 139.0000 Du        
  18358 ****       111.7500 170.2500 139.2500 Du        
  18359 ****       112.0000 133.0000 121.7500 Du        
  18360 ****       112.0000 138.7500 117.7500 Du        
  18361 ****       112.0000 139.0000 117.5000 Du        
  18362 ****       112.0000 139.0000 117.7500 Du        
  18363 ****       112.0000 139.0000 118.0000 Du        
  18364 ****       112.0000 139.0000 118.2500 Du        
  18365 ****       112.0000 139.2500 117.2500 Du        
  18366 ****       112.0000 139.2500 117.5000 Du        
  18367 ****       112.0000 139.2500 117.7500 Du        
  18368 ****       112.0000 139.2500 118.0000 Du        
  18369 ****       112.0000 139.2500 118.2500 Du        
  18370 ****       112.0000 139.5000 117.2500 Du        
  18371 ****       112.0000 139.5000 117.5000 Du        
  18372 ****       112.0000 139.5000 117.7500 Du        
  18373 ****       112.0000 139.5000 118.0000 Du        
  18374 ****       112.0000 139.5000 118.2500 Du        
  18375 ****       112.0000 139.7500 117.2500 Du        
  18376 ****       112.0000 139.7500 117.5000 Du        
  18377 ****       112.0000 139.7500 117.7500 Du        
  18378 ****       112.0000 139.7500 118.0000 Du        
  18379 ****       112.0000 139.7500 118.2500 Du        
  18380 ****       112.0000 139.7500 118.5000 Du        
  18381 ****       112.0000 140.0000 117.5000 Du        
  18382 ****       112.0000 140.0000 117.7500 Du        
  18383 ****       112.0000 140.0000 118.0000 Du        
  18384 ****       112.0000 140.0000 118.2500 Du        
  18385 ****       112.0000 140.0000 118.5000 Du        
  18386 ****       112.0000 140.2500 117.7500 Du        
  18387 ****       112.0000 140.2500 118.0000 Du        
  18388 ****       112.0000 140.2500 118.2500 Du        
  18389 ****       112.0000 140.2500 118.5000 Du        
  18390 ****       112.0000 140.2500 138.2500 Du        
  18391 ****       112.0000 140.2500 138.7500 Du        
  18392 ****       112.0000 140.5000 117.7500 Du        
  18393 ****       112.0000 140.5000 118.0000 Du        
  18394 ****       112.0000 140.5000 118.2500 Du        
  18395 ****       112.0000 140.5000 118.5000 Du        
  18396 ****       112.0000 140.5000 138.2500 Du        
  18397 ****       112.0000 140.5000 138.5000 Du        
  18398 ****       112.0000 140.5000 138.7500 Du        
  18399 ****       112.0000 140.5000 139.0000 Du        
  18400 ****       112.0000 140.5000 139.2500 Du        
  18401 ****       112.0000 140.7500 118.0000 Du        
  18402 ****       112.0000 140.7500 118.2500 Du        
  18403 ****       112.0000 140.7500 118.5000 Du        
  18404 ****       112.0000 140.7500 138.5000 Du        
  18405 ****       112.0000 140.7500 138.7500 Du        
  18406 ****       112.0000 140.7500 139.0000 Du        
  18407 ****       112.0000 140.7500 139.2500 Du        
  18408 ****       112.0000 141.0000 118.2500 Du        
  18409 ****       112.0000 141.0000 118.5000 Du        
  18410 ****       112.0000 141.0000 138.7500 Du        
  18411 ****       112.0000 141.0000 139.0000 Du        
  18412 ****       112.0000 141.0000 139.2500 Du        
  18413 ****       112.0000 141.0000 139.5000 Du        
  18414 ****       112.0000 141.2500 139.0000 Du        
  18415 ****       112.0000 141.2500 139.2500 Du        
  18416 ****       112.0000 141.2500 139.5000 Du        
  18417 ****       112.0000 141.5000 139.0000 Du        
  18418 ****       112.0000 141.5000 139.2500 Du        
  18419 ****       112.0000 141.5000 139.5000 Du        
  18420 ****       112.0000 141.7500 139.2500 Du        
  18421 ****       112.0000 141.7500 139.5000 Du        
  18422 ****       112.0000 151.7500 139.7500 Du        
  18423 ****       112.0000 151.7500 140.0000 Du        
  18424 ****       112.0000 151.7500 140.2500 Du        
  18425 ****       112.0000 152.0000 139.2500 Du        
  18426 ****       112.0000 152.0000 139.5000 Du        
  18427 ****       112.0000 152.0000 139.7500 Du        
  18428 ****       112.0000 152.0000 140.0000 Du        
  18429 ****       112.0000 152.0000 140.2500 Du        
  18430 ****       112.0000 152.0000 140.5000 Du        
  18431 ****       112.0000 152.0000 140.7500 Du        
  18432 ****       112.0000 152.0000 141.0000 Du        
  18433 ****       112.0000 152.2500 139.2500 Du        
  18434 ****       112.0000 152.2500 139.5000 Du        
  18435 ****       112.0000 152.2500 139.7500 Du        
  18436 ****       112.0000 152.2500 140.0000 Du        
  18437 ****       112.0000 152.2500 140.2500 Du        
  18438 ****       112.0000 152.2500 140.5000 Du        
  18439 ****       112.0000 152.2500 140.7500 Du        
  18440 ****       112.0000 152.2500 141.0000 Du        
  18441 ****       112.0000 152.5000 139.0000 Du        
  18442 ****       112.0000 152.5000 139.2500 Du        
  18443 ****       112.0000 152.5000 139.5000 Du        
  18444 ****       112.0000 152.5000 139.7500 Du        
  18445 ****       112.0000 152.5000 140.0000 Du        
  18446 ****       112.0000 152.5000 140.2500 Du        
  18447 ****       112.0000 152.5000 140.5000 Du        
  18448 ****       112.0000 152.5000 140.7500 Du        
  18449 ****       112.0000 152.5000 141.0000 Du        
  18450 ****       112.0000 152.7500 139.0000 Du        
  18451 ****       112.0000 152.7500 139.2500 Du        
  18452 ****       112.0000 152.7500 139.5000 Du        
  18453 ****       112.0000 152.7500 139.7500 Du        
  18454 ****       112.0000 152.7500 140.0000 Du        
  18455 ****       112.0000 152.7500 140.2500 Du        
  18456 ****       112.0000 152.7500 140.5000 Du        
  18457 ****       112.0000 152.7500 140.7500 Du        
  18458 ****       112.0000 152.7500 141.0000 Du        
  18459 ****       112.0000 153.0000 139.0000 Du        
  18460 ****       112.0000 153.0000 139.2500 Du        
  18461 ****       112.0000 153.0000 139.5000 Du        
  18462 ****       112.0000 153.0000 139.7500 Du        
  18463 ****       112.0000 153.0000 140.0000 Du        
  18464 ****       112.0000 153.0000 140.2500 Du        
  18465 ****       112.0000 153.0000 140.5000 Du        
  18466 ****       112.0000 153.0000 140.7500 Du        
  18467 ****       112.0000 153.0000 141.0000 Du        
  18468 ****       112.0000 153.2500 138.7500 Du        
  18469 ****       112.0000 153.2500 139.0000 Du        
  18470 ****       112.0000 153.2500 139.2500 Du        
  18471 ****       112.0000 153.2500 139.5000 Du        
  18472 ****       112.0000 153.2500 139.7500 Du        
  18473 ****       112.0000 153.2500 140.0000 Du        
  18474 ****       112.0000 153.2500 140.2500 Du        
  18475 ****       112.0000 153.2500 140.5000 Du        
  18476 ****       112.0000 153.2500 140.7500 Du        
  18477 ****       112.0000 153.5000 138.7500 Du        
  18478 ****       112.0000 153.5000 139.0000 Du        
  18479 ****       112.0000 153.5000 139.2500 Du        
  18480 ****       112.0000 153.5000 139.5000 Du        
  18481 ****       112.0000 153.5000 139.7500 Du        
  18482 ****       112.0000 153.5000 140.0000 Du        
  18483 ****       112.0000 153.5000 140.2500 Du        
  18484 ****       112.0000 153.7500 138.7500 Du        
  18485 ****       112.0000 153.7500 139.0000 Du        
  18486 ****       112.0000 153.7500 139.2500 Du        
  18487 ****       112.0000 153.7500 139.5000 Du        
  18488 ****       112.0000 153.7500 139.7500 Du        
  18489 ****       112.0000 153.7500 140.0000 Du        
  18490 ****       112.0000 154.0000 138.7500 Du        
  18491 ****       112.0000 154.0000 139.0000 Du        
  18492 ****       112.0000 154.0000 139.2500 Du        
  18493 ****       112.0000 154.0000 139.5000 Du        
  18494 ****       112.0000 154.0000 139.7500 Du        
  18495 ****       112.0000 154.0000 140.0000 Du        
  18496 ****       112.0000 154.2500 138.7500 Du        
  18497 ****       112.0000 154.2500 139.0000 Du        
  18498 ****       112.0000 154.2500 139.2500 Du        
  18499 ****       112.0000 154.2500 139.5000 Du        
  18500 ****       112.0000 154.5000 139.0000 Du        
  18501 ****       112.0000 154.5000 139.2500 Du        
  18502 ****       112.0000 160.2500 114.7500 Du        
  18503 ****       112.0000 160.2500 115.0000 Du        
  18504 ****       112.0000 160.2500 115.2500 Du        
  18505 ****       112.0000 160.2500 115.5000 Du        
  18506 ****       112.0000 160.2500 115.7500 Du        
  18507 ****       112.0000 160.2500 116.0000 Du        
  18508 ****       112.0000 160.2500 116.2500 Du        
  18509 ****       112.0000 160.2500 116.5000 Du        
  18510 ****       112.0000 160.2500 116.7500 Du        
  18511 ****       112.0000 160.2500 117.0000 Du        
  18512 ****       112.0000 160.5000 114.5000 Du        
  18513 ****       112.0000 160.5000 114.7500 Du        
  18514 ****       112.0000 160.5000 115.0000 Du        
  18515 ****       112.0000 160.5000 115.2500 Du        
  18516 ****       112.0000 160.5000 115.5000 Du        
  18517 ****       112.0000 160.5000 115.7500 Du        
  18518 ****       112.0000 160.5000 116.0000 Du        
  18519 ****       112.0000 160.5000 116.2500 Du        
  18520 ****       112.0000 160.5000 116.5000 Du        
  18521 ****       112.0000 160.5000 116.7500 Du        
  18522 ****       112.0000 160.7500 114.2500 Du        
  18523 ****       112.0000 160.7500 114.5000 Du        
  18524 ****       112.0000 160.7500 114.7500 Du        
  18525 ****       112.0000 160.7500 115.0000 Du        
  18526 ****       112.0000 160.7500 115.2500 Du        
  18527 ****       112.0000 160.7500 115.5000 Du        
  18528 ****       112.0000 160.7500 115.7500 Du        
  18529 ****       112.0000 160.7500 116.0000 Du        
  18530 ****       112.0000 160.7500 116.2500 Du        
  18531 ****       112.0000 160.7500 116.5000 Du        
  18532 ****       112.0000 161.0000 114.2500 Du        
  18533 ****       112.0000 161.0000 114.5000 Du        
  18534 ****       112.0000 161.0000 114.7500 Du        
  18535 ****       112.0000 161.0000 115.0000 Du        
  18536 ****       112.0000 161.0000 115.2500 Du        
  18537 ****       112.0000 161.0000 115.5000 Du        
  18538 ****       112.0000 161.0000 115.7500 Du        
  18539 ****       112.0000 161.0000 116.0000 Du        
  18540 ****       112.0000 161.0000 116.2500 Du        
  18541 ****       112.0000 161.0000 116.5000 Du        
  18542 ****       112.0000 161.2500 114.2500 Du        
  18543 ****       112.0000 161.2500 114.5000 Du        
  18544 ****       112.0000 161.2500 114.7500 Du        
  18545 ****       112.0000 161.2500 115.0000 Du        
  18546 ****       112.0000 161.2500 115.2500 Du        
  18547 ****       112.0000 161.2500 115.5000 Du        
  18548 ****       112.0000 161.2500 115.7500 Du        
  18549 ****       112.0000 161.2500 116.0000 Du        
  18550 ****       112.0000 161.2500 116.2500 Du        
  18551 ****       112.0000 161.5000 114.2500 Du        
  18552 ****       112.0000 161.5000 114.5000 Du        
  18553 ****       112.0000 161.5000 114.7500 Du        
  18554 ****       112.0000 161.5000 115.0000 Du        
  18555 ****       112.0000 161.5000 115.2500 Du        
  18556 ****       112.0000 161.5000 115.5000 Du        
  18557 ****       112.0000 161.5000 115.7500 Du        
  18558 ****       112.0000 161.5000 116.0000 Du        
  18559 ****       112.0000 161.7500 114.2500 Du        
  18560 ****       112.0000 161.7500 114.5000 Du        
  18561 ****       112.0000 161.7500 114.7500 Du        
  18562 ****       112.0000 161.7500 115.0000 Du        
  18563 ****       112.0000 161.7500 115.2500 Du        
  18564 ****       112.0000 161.7500 115.5000 Du        
  18565 ****       112.0000 161.7500 115.7500 Du        
  18566 ****       112.0000 161.7500 116.0000 Du        
  18567 ****       112.0000 162.0000 114.5000 Du        
  18568 ****       112.0000 162.0000 114.7500 Du        
  18569 ****       112.0000 162.0000 115.0000 Du        
  18570 ****       112.0000 162.0000 115.2500 Du        
  18571 ****       112.0000 162.0000 115.5000 Du        
  18572 ****       112.0000 162.0000 115.7500 Du        
  18573 ****       112.0000 162.0000 116.0000 Du        
  18574 ****       112.0000 162.2500 114.5000 Du        
  18575 ****       112.0000 162.2500 114.7500 Du        
  18576 ****       112.0000 162.2500 115.0000 Du        
  18577 ****       112.0000 162.2500 115.2500 Du        
  18578 ****       112.0000 162.2500 115.5000 Du        
  18579 ****       112.0000 162.2500 115.7500 Du        
  18580 ****       112.0000 162.2500 116.0000 Du        
  18581 ****       112.0000 162.5000 114.5000 Du        
  18582 ****       112.0000 162.5000 114.7500 Du        
  18583 ****       112.0000 162.5000 115.0000 Du        
  18584 ****       112.0000 162.5000 115.2500 Du        
  18585 ****       112.0000 162.5000 115.5000 Du        
  18586 ****       112.0000 162.5000 115.7500 Du        
  18587 ****       112.0000 162.5000 116.0000 Du        
  18588 ****       112.0000 162.7500 114.5000 Du        
  18589 ****       112.0000 162.7500 114.7500 Du        
  18590 ****       112.0000 162.7500 115.0000 Du        
  18591 ****       112.0000 162.7500 115.2500 Du        
  18592 ****       112.0000 162.7500 115.5000 Du        
  18593 ****       112.0000 162.7500 115.7500 Du        
  18594 ****       112.0000 162.7500 116.0000 Du        
  18595 ****       112.0000 162.7500 141.0000 Du        
  18596 ****       112.0000 162.7500 141.2500 Du        
  18597 ****       112.0000 163.0000 114.5000 Du        
  18598 ****       112.0000 163.0000 114.7500 Du        
  18599 ****       112.0000 163.0000 115.0000 Du        
  18600 ****       112.0000 163.0000 115.2500 Du        
  18601 ****       112.0000 163.0000 115.5000 Du        
  18602 ****       112.0000 163.0000 115.7500 Du        
  18603 ****       112.0000 163.0000 116.0000 Du        
  18604 ****       112.0000 163.0000 140.7500 Du        
  18605 ****       112.0000 163.0000 141.0000 Du        
  18606 ****       112.0000 163.0000 141.2500 Du        
  18607 ****       112.0000 163.2500 140.5000 Du        
  18608 ****       112.0000 163.2500 140.7500 Du        
  18609 ****       112.0000 163.2500 141.0000 Du        
  18610 ****       112.0000 163.2500 141.2500 Du        
  18611 ****       112.0000 163.5000 140.5000 Du        
  18612 ****       112.0000 163.7500 139.7500 Du        
  18613 ****       112.0000 163.7500 140.0000 Du        
  18614 ****       112.0000 163.7500 140.2500 Du        
  18615 ****       112.0000 163.7500 140.5000 Du        
  18616 ****       112.0000 163.7500 140.7500 Du        
  18617 ****       112.0000 164.0000 139.2500 Du        
  18618 ****       112.0000 164.0000 139.5000 Du        
  18619 ****       112.0000 164.0000 139.7500 Du        
  18620 ****       112.0000 164.0000 140.0000 Du        
  18621 ****       112.0000 164.0000 140.2500 Du        
  18622 ****       112.0000 164.2500 139.0000 Du        
  18623 ****       112.0000 164.2500 139.2500 Du        
  18624 ****       112.0000 164.2500 139.5000 Du        
  18625 ****       112.0000 164.2500 139.7500 Du        
  18626 ****       112.0000 164.2500 140.0000 Du        
  18627 ****       112.0000 164.2500 140.2500 Du        
  18628 ****       112.0000 164.5000 139.0000 Du        
  18629 ****       112.0000 164.5000 139.2500 Du        
  18630 ****       112.0000 164.5000 139.5000 Du        
  18631 ****       112.0000 164.5000 139.7500 Du        
  18632 ****       112.0000 164.5000 140.0000 Du        
  18633 ****       112.0000 164.7500 139.0000 Du        
  18634 ****       112.0000 164.7500 139.2500 Du        
  18635 ****       112.0000 164.7500 139.5000 Du        
  18636 ****       112.0000 164.7500 139.7500 Du        
  18637 ****       112.0000 164.7500 140.0000 Du        
  18638 ****       112.0000 165.0000 139.0000 Du        
  18639 ****       112.0000 165.0000 139.2500 Du        
  18640 ****       112.0000 165.0000 139.5000 Du        
  18641 ****       112.0000 165.0000 139.7500 Du        
  18642 ****       112.0000 165.0000 140.0000 Du        
  18643 ****       112.0000 165.0000 140.2500 Du        
  18644 ****       112.0000 165.2500 139.0000 Du        
  18645 ****       112.0000 165.2500 139.2500 Du        
  18646 ****       112.0000 165.2500 139.5000 Du        
  18647 ****       112.0000 165.2500 139.7500 Du        
  18648 ****       112.0000 165.2500 140.0000 Du        
  18649 ****       112.0000 165.2500 140.2500 Du        
  18650 ****       112.0000 165.5000 139.0000 Du        
  18651 ****       112.0000 165.5000 139.2500 Du        
  18652 ****       112.0000 165.5000 139.5000 Du        
  18653 ****       112.0000 165.5000 139.7500 Du        
  18654 ****       112.0000 165.5000 140.0000 Du        
  18655 ****       112.0000 165.5000 140.2500 Du        
  18656 ****       112.0000 165.7500 139.0000 Du        
  18657 ****       112.0000 165.7500 139.2500 Du        
  18658 ****       112.0000 165.7500 139.5000 Du        
  18659 ****       112.0000 165.7500 139.7500 Du        
  18660 ****       112.0000 165.7500 140.0000 Du        
  18661 ****       112.0000 165.7500 140.2500 Du        
  18662 ****       112.0000 166.0000 139.0000 Du        
  18663 ****       112.0000 166.0000 139.2500 Du        
  18664 ****       112.0000 166.0000 139.5000 Du        
  18665 ****       112.0000 166.0000 139.7500 Du        
  18666 ****       112.0000 166.0000 140.0000 Du        
  18667 ****       112.0000 166.0000 140.2500 Du        
  18668 ****       112.0000 166.2500 139.0000 Du        
  18669 ****       112.0000 166.2500 139.2500 Du        
  18670 ****       112.0000 166.2500 139.5000 Du        
  18671 ****       112.0000 166.2500 139.7500 Du        
  18672 ****       112.0000 166.2500 140.0000 Du        
  18673 ****       112.0000 166.2500 140.2500 Du        
  18674 ****       112.0000 166.5000 139.0000 Du        
  18675 ****       112.0000 166.5000 139.2500 Du        
  18676 ****       112.0000 166.5000 139.5000 Du        
  18677 ****       112.0000 166.5000 139.7500 Du        
  18678 ****       112.0000 166.5000 140.0000 Du        
  18679 ****       112.0000 166.5000 140.2500 Du        
  18680 ****       112.0000 166.7500 138.7500 Du        
  18681 ****       112.0000 166.7500 139.0000 Du        
  18682 ****       112.0000 166.7500 139.2500 Du        
  18683 ****       112.0000 166.7500 139.5000 Du        
  18684 ****       112.0000 166.7500 139.7500 Du        
  18685 ****       112.0000 166.7500 140.0000 Du        
  18686 ****       112.0000 166.7500 140.2500 Du        
  18687 ****       112.0000 167.0000 138.5000 Du        
  18688 ****       112.0000 167.0000 138.7500 Du        
  18689 ****       112.0000 167.0000 139.0000 Du        
  18690 ****       112.0000 167.0000 139.2500 Du        
  18691 ****       112.0000 167.0000 139.5000 Du        
  18692 ****       112.0000 167.0000 139.7500 Du        
  18693 ****       112.0000 167.0000 140.0000 Du        
  18694 ****       112.0000 167.0000 140.2500 Du        
  18695 ****       112.0000 167.2500 138.2500 Du        
  18696 ****       112.0000 167.2500 138.5000 Du        
  18697 ****       112.0000 167.2500 138.7500 Du        
  18698 ****       112.0000 167.2500 139.0000 Du        
  18699 ****       112.0000 167.2500 139.2500 Du        
  18700 ****       112.0000 167.2500 139.5000 Du        
  18701 ****       112.0000 167.2500 139.7500 Du        
  18702 ****       112.0000 167.2500 140.0000 Du        
  18703 ****       112.0000 167.2500 140.2500 Du        
  18704 ****       112.0000 167.5000 138.0000 Du        
  18705 ****       112.0000 167.5000 138.2500 Du        
  18706 ****       112.0000 167.5000 138.5000 Du        
  18707 ****       112.0000 167.5000 138.7500 Du        
  18708 ****       112.0000 167.5000 139.0000 Du        
  18709 ****       112.0000 167.5000 139.2500 Du        
  18710 ****       112.0000 167.5000 139.5000 Du        
  18711 ****       112.0000 167.5000 139.7500 Du        
  18712 ****       112.0000 167.5000 140.0000 Du        
  18713 ****       112.0000 167.7500 138.0000 Du        
  18714 ****       112.0000 167.7500 138.2500 Du        
  18715 ****       112.0000 167.7500 138.5000 Du        
  18716 ****       112.0000 167.7500 138.7500 Du        
  18717 ****       112.0000 167.7500 139.0000 Du        
  18718 ****       112.0000 167.7500 139.2500 Du        
  18719 ****       112.0000 167.7500 139.5000 Du        
  18720 ****       112.0000 167.7500 139.7500 Du        
  18721 ****       112.0000 167.7500 140.0000 Du        
  18722 ****       112.0000 168.0000 138.0000 Du        
  18723 ****       112.0000 168.0000 138.2500 Du        
  18724 ****       112.0000 168.0000 138.5000 Du        
  18725 ****       112.0000 168.0000 138.7500 Du        
  18726 ****       112.0000 168.0000 139.0000 Du        
  18727 ****       112.0000 168.0000 139.2500 Du        
  18728 ****       112.0000 168.0000 139.5000 Du        
  18729 ****       112.0000 168.0000 139.7500 Du        
  18730 ****       112.0000 168.0000 140.0000 Du        
  18731 ****       112.0000 168.2500 138.0000 Du        
  18732 ****       112.0000 168.2500 138.2500 Du        
  18733 ****       112.0000 168.2500 138.5000 Du        
  18734 ****       112.0000 168.2500 138.7500 Du        
  18735 ****       112.0000 168.2500 139.0000 Du        
  18736 ****       112.0000 168.2500 139.2500 Du        
  18737 ****       112.0000 168.2500 139.5000 Du        
  18738 ****       112.0000 168.2500 139.7500 Du        
  18739 ****       112.0000 168.2500 140.0000 Du        
  18740 ****       112.0000 168.5000 138.0000 Du        
  18741 ****       112.0000 168.5000 138.2500 Du        
  18742 ****       112.0000 168.5000 138.5000 Du        
  18743 ****       112.0000 168.5000 138.7500 Du        
  18744 ****       112.0000 168.5000 139.0000 Du        
  18745 ****       112.0000 168.5000 139.2500 Du        
  18746 ****       112.0000 168.5000 139.5000 Du        
  18747 ****       112.0000 168.5000 139.7500 Du        
  18748 ****       112.0000 168.7500 138.2500 Du        
  18749 ****       112.0000 168.7500 138.5000 Du        
  18750 ****       112.0000 168.7500 138.7500 Du        
  18751 ****       112.0000 168.7500 139.0000 Du        
  18752 ****       112.0000 168.7500 139.2500 Du        
  18753 ****       112.0000 168.7500 139.5000 Du        
  18754 ****       112.0000 168.7500 139.7500 Du        
  18755 ****       112.0000 169.0000 138.2500 Du        
  18756 ****       112.0000 169.0000 138.5000 Du        
  18757 ****       112.0000 169.0000 138.7500 Du        
  18758 ****       112.0000 169.0000 139.0000 Du        
  18759 ****       112.0000 169.0000 139.2500 Du        
  18760 ****       112.0000 169.0000 139.5000 Du        
  18761 ****       112.0000 169.0000 139.7500 Du        
  18762 ****       112.0000 169.2500 138.7500 Du        
  18763 ****       112.0000 169.2500 139.0000 Du        
  18764 ****       112.0000 169.2500 139.2500 Du        
  18765 ****       112.0000 169.2500 139.5000 Du        
  18766 ****       112.2500 138.7500 117.7500 Du        
  18767 ****       112.2500 138.7500 118.0000 Du        
  18768 ****       112.2500 138.7500 118.2500 Du        
  18769 ****       112.2500 139.0000 117.5000 Du        
  18770 ****       112.2500 139.0000 117.7500 Du        
  18771 ****       112.2500 139.0000 118.0000 Du        
  18772 ****       112.2500 139.0000 118.2500 Du        
  18773 ****       112.2500 139.0000 118.5000 Du        
  18774 ****       112.2500 139.2500 117.2500 Du        
  18775 ****       112.2500 139.2500 117.5000 Du        
  18776 ****       112.2500 139.2500 117.7500 Du        
  18777 ****       112.2500 139.2500 118.0000 Du        
  18778 ****       112.2500 139.2500 118.2500 Du        
  18779 ****       112.2500 139.2500 118.5000 Du        
  18780 ****       112.2500 139.5000 117.5000 Du        
  18781 ****       112.2500 139.5000 117.7500 Du        
  18782 ****       112.2500 139.5000 118.0000 Du        
  18783 ****       112.2500 139.5000 118.2500 Du        
  18784 ****       112.2500 139.5000 118.5000 Du        
  18785 ****       112.2500 139.5000 118.7500 Du        
  18786 ****       112.2500 139.7500 117.7500 Du        
  18787 ****       112.2500 139.7500 118.0000 Du        
  18788 ****       112.2500 139.7500 118.2500 Du        
  18789 ****       112.2500 139.7500 118.5000 Du        
  18790 ****       112.2500 139.7500 118.7500 Du        
  18791 ****       112.2500 139.7500 138.2500 Du        
  18792 ****       112.2500 140.0000 118.0000 Du        
  18793 ****       112.2500 140.0000 118.2500 Du        
  18794 ****       112.2500 140.0000 118.5000 Du        
  18795 ****       112.2500 140.0000 118.7500 Du        
  18796 ****       112.2500 140.0000 138.2500 Du        
  18797 ****       112.2500 140.2500 118.2500 Du        
  18798 ****       112.2500 140.2500 118.5000 Du        
  18799 ****       112.2500 140.2500 138.2500 Du        
  18800 ****       112.2500 140.5000 118.5000 Du        
  18801 ****       112.2500 140.5000 138.2500 Du        
  18802 ****       112.2500 140.5000 138.5000 Du        
  18803 ****       112.2500 140.5000 138.7500 Du        
  18804 ****       112.2500 140.5000 139.0000 Du        
  18805 ****       112.2500 140.7500 138.5000 Du        
  18806 ****       112.2500 140.7500 138.7500 Du        
  18807 ****       112.2500 140.7500 139.0000 Du        
  18808 ****       112.2500 140.7500 139.2500 Du        
  18809 ****       112.2500 141.0000 138.7500 Du        
  18810 ****       112.2500 141.0000 139.0000 Du        
  18811 ****       112.2500 141.0000 139.2500 Du        
  18812 ****       112.2500 141.2500 139.0000 Du        
  18813 ****       112.2500 141.2500 139.2500 Du        
  18814 ****       112.2500 141.5000 139.0000 Du        
  18815 ****       112.2500 141.5000 139.2500 Du        
  18816 ****       112.2500 141.7500 139.2500 Du        
  18817 ****       112.2500 142.5000 119.5000 Du        
  18818 ****       112.2500 142.5000 119.7500 Du        
  18819 ****       112.2500 142.7500 119.5000 Du        
  18820 ****       112.2500 142.7500 119.7500 Du        
  18821 ****       112.2500 142.7500 120.0000 Du        
  18822 ****       112.2500 142.7500 120.2500 Du        
  18823 ****       112.2500 142.7500 120.5000 Du        
  18824 ****       112.2500 143.0000 119.7500 Du        
  18825 ****       112.2500 143.0000 120.0000 Du        
  18826 ****       112.2500 143.0000 120.2500 Du        
  18827 ****       112.2500 143.0000 120.5000 Du        
  18828 ****       112.2500 143.0000 120.7500 Du        
  18829 ****       112.2500 143.0000 121.0000 Du        
  18830 ****       112.2500 143.0000 121.2500 Du        
  18831 ****       112.2500 143.2500 121.0000 Du        
  18832 ****       112.2500 143.2500 121.2500 Du        
  18833 ****       112.2500 143.2500 121.5000 Du        
  18834 ****       112.2500 152.0000 139.2500 Du        
  18835 ****       112.2500 152.0000 139.5000 Du        
  18836 ****       112.2500 152.0000 139.7500 Du        
  18837 ****       112.2500 152.0000 140.0000 Du        
  18838 ****       112.2500 152.0000 140.2500 Du        
  18839 ****       112.2500 152.0000 140.5000 Du        
  18840 ****       112.2500 152.0000 140.7500 Du        
  18841 ****       112.2500 152.2500 139.0000 Du        
  18842 ****       112.2500 152.2500 139.2500 Du        
  18843 ****       112.2500 152.2500 139.5000 Du        
  18844 ****       112.2500 152.2500 139.7500 Du        
  18845 ****       112.2500 152.2500 140.0000 Du        
  18846 ****       112.2500 152.2500 140.2500 Du        
  18847 ****       112.2500 152.2500 140.5000 Du        
  18848 ****       112.2500 152.2500 140.7500 Du        
  18849 ****       112.2500 152.5000 139.0000 Du        
  18850 ****       112.2500 152.5000 139.2500 Du        
  18851 ****       112.2500 152.5000 139.5000 Du        
  18852 ****       112.2500 152.5000 139.7500 Du        
  18853 ****       112.2500 152.5000 140.0000 Du        
  18854 ****       112.2500 152.5000 140.2500 Du        
  18855 ****       112.2500 152.5000 140.5000 Du        
  18856 ****       112.2500 152.5000 140.7500 Du        
  18857 ****       112.2500 152.7500 139.0000 Du        
  18858 ****       112.2500 152.7500 139.2500 Du        
  18859 ****       112.2500 152.7500 139.5000 Du        
  18860 ****       112.2500 152.7500 139.7500 Du        
  18861 ****       112.2500 152.7500 140.0000 Du        
  18862 ****       112.2500 152.7500 140.2500 Du        
  18863 ****       112.2500 152.7500 140.5000 Du        
  18864 ****       112.2500 152.7500 140.7500 Du        
  18865 ****       112.2500 153.0000 138.7500 Du        
  18866 ****       112.2500 153.0000 139.0000 Du        
  18867 ****       112.2500 153.0000 139.2500 Du        
  18868 ****       112.2500 153.0000 139.5000 Du        
  18869 ****       112.2500 153.0000 139.7500 Du        
  18870 ****       112.2500 153.0000 140.0000 Du        
  18871 ****       112.2500 153.0000 140.2500 Du        
  18872 ****       112.2500 153.0000 140.5000 Du        
  18873 ****       112.2500 153.0000 140.7500 Du        
  18874 ****       112.2500 153.2500 138.7500 Du        
  18875 ****       112.2500 153.2500 139.0000 Du        
  18876 ****       112.2500 153.2500 139.2500 Du        
  18877 ****       112.2500 153.2500 139.5000 Du        
  18878 ****       112.2500 153.2500 139.7500 Du        
  18879 ****       112.2500 153.2500 140.0000 Du        
  18880 ****       112.2500 153.2500 140.2500 Du        
  18881 ****       112.2500 153.2500 140.5000 Du        
  18882 ****       112.2500 153.5000 138.5000 Du        
  18883 ****       112.2500 153.5000 138.7500 Du        
  18884 ****       112.2500 153.5000 139.0000 Du        
  18885 ****       112.2500 153.5000 139.2500 Du        
  18886 ****       112.2500 153.5000 139.5000 Du        
  18887 ****       112.2500 153.5000 139.7500 Du        
  18888 ****       112.2500 153.5000 140.0000 Du        
  18889 ****       112.2500 153.5000 140.2500 Du        
  18890 ****       112.2500 153.7500 138.5000 Du        
  18891 ****       112.2500 153.7500 138.7500 Du        
  18892 ****       112.2500 153.7500 139.0000 Du        
  18893 ****       112.2500 153.7500 139.2500 Du        
  18894 ****       112.2500 153.7500 139.5000 Du        
  18895 ****       112.2500 153.7500 139.7500 Du        
  18896 ****       112.2500 153.7500 140.0000 Du        
  18897 ****       112.2500 154.0000 138.5000 Du        
  18898 ****       112.2500 154.0000 138.7500 Du        
  18899 ****       112.2500 154.0000 139.0000 Du        
  18900 ****       112.2500 154.0000 139.2500 Du        
  18901 ****       112.2500 154.0000 139.5000 Du        
  18902 ****       112.2500 154.0000 139.7500 Du        
  18903 ****       112.2500 154.2500 138.7500 Du        
  18904 ****       112.2500 154.2500 139.0000 Du        
  18905 ****       112.2500 154.2500 139.2500 Du        
  18906 ****       112.2500 154.2500 139.5000 Du        
  18907 ****       112.2500 160.2500 116.0000 Du        
  18908 ****       112.2500 160.2500 116.2500 Du        
  18909 ****       112.2500 160.2500 116.5000 Du        
  18910 ****       112.2500 160.5000 114.5000 Du        
  18911 ****       112.2500 160.5000 114.7500 Du        
  18912 ****       112.2500 160.5000 115.0000 Du        
  18913 ****       112.2500 160.5000 115.2500 Du        
  18914 ****       112.2500 160.5000 115.5000 Du        
  18915 ****       112.2500 160.5000 115.7500 Du        
  18916 ****       112.2500 160.5000 116.0000 Du        
  18917 ****       112.2500 160.5000 116.2500 Du        
  18918 ****       112.2500 160.5000 116.5000 Du        
  18919 ****       112.2500 160.7500 114.2500 Du        
  18920 ****       112.2500 160.7500 114.5000 Du        
  18921 ****       112.2500 160.7500 114.7500 Du        
  18922 ****       112.2500 160.7500 115.0000 Du        
  18923 ****       112.2500 160.7500 115.2500 Du        
  18924 ****       112.2500 160.7500 115.5000 Du        
  18925 ****       112.2500 160.7500 115.7500 Du        
  18926 ****       112.2500 160.7500 116.0000 Du        
  18927 ****       112.2500 160.7500 116.2500 Du        
  18928 ****       112.2500 161.0000 114.2500 Du        
  18929 ****       112.2500 161.0000 114.5000 Du        
  18930 ****       112.2500 161.0000 114.7500 Du        
  18931 ****       112.2500 161.0000 115.0000 Du        
  18932 ****       112.2500 161.0000 115.2500 Du        
  18933 ****       112.2500 161.0000 115.5000 Du        
  18934 ****       112.2500 161.0000 115.7500 Du        
  18935 ****       112.2500 161.0000 116.0000 Du        
  18936 ****       112.2500 161.2500 114.0000 Du        
  18937 ****       112.2500 161.2500 114.2500 Du        
  18938 ****       112.2500 161.2500 114.5000 Du        
  18939 ****       112.2500 161.2500 114.7500 Du        
  18940 ****       112.2500 161.2500 115.0000 Du        
  18941 ****       112.2500 161.2500 115.2500 Du        
  18942 ****       112.2500 161.2500 115.5000 Du        
  18943 ****       112.2500 161.2500 115.7500 Du        
  18944 ****       112.2500 161.2500 116.0000 Du        
  18945 ****       112.2500 161.5000 114.0000 Du        
  18946 ****       112.2500 161.5000 114.2500 Du        
  18947 ****       112.2500 161.5000 114.5000 Du        
  18948 ****       112.2500 161.5000 114.7500 Du        
  18949 ****       112.2500 161.5000 115.0000 Du        
  18950 ****       112.2500 161.5000 115.2500 Du        
  18951 ****       112.2500 161.5000 115.5000 Du        
  18952 ****       112.2500 161.5000 115.7500 Du        
  18953 ****       112.2500 161.7500 114.2500 Du        
  18954 ****       112.2500 161.7500 114.5000 Du        
  18955 ****       112.2500 161.7500 114.7500 Du        
  18956 ****       112.2500 161.7500 115.0000 Du        
  18957 ****       112.2500 161.7500 115.2500 Du        
  18958 ****       112.2500 161.7500 115.5000 Du        
  18959 ****       112.2500 161.7500 115.7500 Du        
  18960 ****       112.2500 162.0000 114.2500 Du        
  18961 ****       112.2500 162.0000 114.5000 Du        
  18962 ****       112.2500 162.0000 114.7500 Du        
  18963 ****       112.2500 162.0000 115.0000 Du        
  18964 ****       112.2500 162.0000 115.2500 Du        
  18965 ****       112.2500 162.0000 115.5000 Du        
  18966 ****       112.2500 162.0000 115.7500 Du        
  18967 ****       112.2500 162.2500 114.2500 Du        
  18968 ****       112.2500 162.2500 114.5000 Du        
  18969 ****       112.2500 162.2500 114.7500 Du        
  18970 ****       112.2500 162.2500 115.0000 Du        
  18971 ****       112.2500 162.2500 115.2500 Du        
  18972 ****       112.2500 162.2500 115.5000 Du        
  18973 ****       112.2500 162.2500 115.7500 Du        
  18974 ****       112.2500 162.5000 114.2500 Du        
  18975 ****       112.2500 162.5000 114.5000 Du        
  18976 ****       112.2500 162.5000 114.7500 Du        
  18977 ****       112.2500 162.5000 115.0000 Du        
  18978 ****       112.2500 162.5000 115.2500 Du        
  18979 ****       112.2500 162.5000 115.5000 Du        
  18980 ****       112.2500 162.7500 114.2500 Du        
  18981 ****       112.2500 162.7500 114.5000 Du        
  18982 ****       112.2500 162.7500 114.7500 Du        
  18983 ****       112.2500 162.7500 115.0000 Du        
  18984 ****       112.2500 162.7500 115.2500 Du        
  18985 ****       112.2500 162.7500 115.5000 Du        
  18986 ****       112.2500 162.7500 141.0000 Du        
  18987 ****       112.2500 162.7500 141.2500 Du        
  18988 ****       112.2500 163.0000 114.2500 Du        
  18989 ****       112.2500 163.0000 114.5000 Du        
  18990 ****       112.2500 163.0000 114.7500 Du        
  18991 ****       112.2500 163.0000 115.0000 Du        
  18992 ****       112.2500 163.0000 115.2500 Du        
  18993 ****       112.2500 163.0000 115.5000 Du        
  18994 ****       112.2500 163.0000 140.7500 Du        
  18995 ****       112.2500 163.0000 141.0000 Du        
  18996 ****       112.2500 163.0000 141.2500 Du        
  18997 ****       112.2500 163.2500 114.5000 Du        
  18998 ****       112.2500 163.2500 114.7500 Du        
  18999 ****       112.2500 163.2500 115.0000 Du        
  19000 ****       112.2500 163.2500 115.2500 Du        
  19001 ****       112.2500 163.2500 140.5000 Du        
  19002 ****       112.2500 163.2500 140.7500 Du        
  19003 ****       112.2500 163.2500 141.0000 Du        
  19004 ****       112.2500 163.2500 141.2500 Du        
  19005 ****       112.2500 163.5000 140.5000 Du        
  19006 ****       112.2500 163.5000 140.7500 Du        
  19007 ****       112.2500 163.5000 141.0000 Du        
  19008 ****       112.2500 163.7500 140.0000 Du        
  19009 ****       112.2500 163.7500 140.2500 Du        
  19010 ****       112.2500 163.7500 140.5000 Du        
  19011 ****       112.2500 163.7500 140.7500 Du        
  19012 ****       112.2500 164.0000 139.2500 Du        
  19013 ****       112.2500 164.0000 139.5000 Du        
  19014 ****       112.2500 164.0000 139.7500 Du        
  19015 ****       112.2500 164.0000 140.0000 Du        
  19016 ****       112.2500 164.0000 140.2500 Du        
  19017 ****       112.2500 164.0000 140.5000 Du        
  19018 ****       112.2500 164.0000 140.7500 Du        
  19019 ****       112.2500 164.2500 139.0000 Du        
  19020 ****       112.2500 164.2500 139.2500 Du        
  19021 ****       112.2500 164.2500 139.5000 Du        
  19022 ****       112.2500 164.2500 139.7500 Du        
  19023 ****       112.2500 164.2500 140.0000 Du        
  19024 ****       112.2500 164.2500 140.2500 Du        
  19025 ****       112.2500 164.2500 140.5000 Du        
  19026 ****       112.2500 164.5000 139.0000 Du        
  19027 ****       112.2500 164.5000 139.2500 Du        
  19028 ****       112.2500 164.5000 139.5000 Du        
  19029 ****       112.2500 164.5000 139.7500 Du        
  19030 ****       112.2500 164.5000 140.0000 Du        
  19031 ****       112.2500 164.5000 140.2500 Du        
  19032 ****       112.2500 164.7500 138.7500 Du        
  19033 ****       112.2500 164.7500 139.0000 Du        
  19034 ****       112.2500 164.7500 139.2500 Du        
  19035 ****       112.2500 164.7500 139.5000 Du        
  19036 ****       112.2500 164.7500 139.7500 Du        
  19037 ****       112.2500 164.7500 140.0000 Du        
  19038 ****       112.2500 164.7500 140.2500 Du        
  19039 ****       112.2500 165.0000 138.7500 Du        
  19040 ****       112.2500 165.0000 139.0000 Du        
  19041 ****       112.2500 165.0000 139.2500 Du        
  19042 ****       112.2500 165.0000 139.5000 Du        
  19043 ****       112.2500 165.0000 139.7500 Du        
  19044 ****       112.2500 165.0000 140.0000 Du        
  19045 ****       112.2500 165.0000 140.2500 Du        
  19046 ****       112.2500 165.2500 138.7500 Du        
  19047 ****       112.2500 165.2500 139.0000 Du        
  19048 ****       112.2500 165.2500 139.2500 Du        
  19049 ****       112.2500 165.2500 139.5000 Du        
  19050 ****       112.2500 165.2500 139.7500 Du        
  19051 ****       112.2500 165.2500 140.0000 Du        
  19052 ****       112.2500 165.2500 140.2500 Du        
  19053 ****       112.2500 165.5000 138.7500 Du        
  19054 ****       112.2500 165.5000 139.0000 Du        
  19055 ****       112.2500 165.5000 139.2500 Du        
  19056 ****       112.2500 165.5000 139.5000 Du        
  19057 ****       112.2500 165.5000 139.7500 Du        
  19058 ****       112.2500 165.5000 140.0000 Du        
  19059 ****       112.2500 165.5000 140.2500 Du        
  19060 ****       112.2500 165.7500 138.7500 Du        
  19061 ****       112.2500 165.7500 139.0000 Du        
  19062 ****       112.2500 165.7500 139.2500 Du        
  19063 ****       112.2500 165.7500 139.5000 Du        
  19064 ****       112.2500 165.7500 139.7500 Du        
  19065 ****       112.2500 165.7500 140.0000 Du        
  19066 ****       112.2500 165.7500 140.2500 Du        
  19067 ****       112.2500 166.0000 138.7500 Du        
  19068 ****       112.2500 166.0000 139.0000 Du        
  19069 ****       112.2500 166.0000 139.2500 Du        
  19070 ****       112.2500 166.0000 139.5000 Du        
  19071 ****       112.2500 166.0000 139.7500 Du        
  19072 ****       112.2500 166.0000 140.0000 Du        
  19073 ****       112.2500 166.0000 140.2500 Du        
  19074 ****       112.2500 166.2500 138.5000 Du        
  19075 ****       112.2500 166.2500 138.7500 Du        
  19076 ****       112.2500 166.2500 139.0000 Du        
  19077 ****       112.2500 166.2500 139.2500 Du        
  19078 ****       112.2500 166.2500 139.5000 Du        
  19079 ****       112.2500 166.2500 139.7500 Du        
  19080 ****       112.2500 166.2500 140.0000 Du        
  19081 ****       112.2500 166.2500 140.2500 Du        
  19082 ****       112.2500 166.5000 138.5000 Du        
  19083 ****       112.2500 166.5000 138.7500 Du        
  19084 ****       112.2500 166.5000 139.0000 Du        
  19085 ****       112.2500 166.5000 139.2500 Du        
  19086 ****       112.2500 166.5000 139.5000 Du        
  19087 ****       112.2500 166.5000 139.7500 Du        
  19088 ****       112.2500 166.5000 140.0000 Du        
  19089 ****       112.2500 166.5000 140.2500 Du        
  19090 ****       112.2500 166.7500 138.2500 Du        
  19091 ****       112.2500 166.7500 138.5000 Du        
  19092 ****       112.2500 166.7500 138.7500 Du        
  19093 ****       112.2500 166.7500 139.0000 Du        
  19094 ****       112.2500 166.7500 139.2500 Du        
  19095 ****       112.2500 166.7500 139.5000 Du        
  19096 ****       112.2500 166.7500 139.7500 Du        
  19097 ****       112.2500 166.7500 140.0000 Du        
  19098 ****       112.2500 166.7500 140.2500 Du        
  19099 ****       112.2500 167.0000 138.0000 Du        
  19100 ****       112.2500 167.0000 138.2500 Du        
  19101 ****       112.2500 167.0000 138.5000 Du        
  19102 ****       112.2500 167.0000 138.7500 Du        
  19103 ****       112.2500 167.0000 139.0000 Du        
  19104 ****       112.2500 167.0000 139.2500 Du        
  19105 ****       112.2500 167.0000 139.5000 Du        
  19106 ****       112.2500 167.0000 139.7500 Du        
  19107 ****       112.2500 167.0000 140.0000 Du        
  19108 ****       112.2500 167.0000 140.2500 Du        
  19109 ****       112.2500 167.2500 137.7500 Du        
  19110 ****       112.2500 167.2500 138.0000 Du        
  19111 ****       112.2500 167.2500 138.2500 Du        
  19112 ****       112.2500 167.2500 138.5000 Du        
  19113 ****       112.2500 167.2500 138.7500 Du        
  19114 ****       112.2500 167.2500 139.0000 Du        
  19115 ****       112.2500 167.2500 139.2500 Du        
  19116 ****       112.2500 167.2500 139.5000 Du        
  19117 ****       112.2500 167.2500 139.7500 Du        
  19118 ****       112.2500 167.2500 140.0000 Du        
  19119 ****       112.2500 167.2500 140.2500 Du        
  19120 ****       112.2500 167.5000 137.7500 Du        
  19121 ****       112.2500 167.5000 138.0000 Du        
  19122 ****       112.2500 167.5000 138.2500 Du        
  19123 ****       112.2500 167.5000 138.5000 Du        
  19124 ****       112.2500 167.5000 138.7500 Du        
  19125 ****       112.2500 167.5000 139.0000 Du        
  19126 ****       112.2500 167.5000 139.2500 Du        
  19127 ****       112.2500 167.5000 139.5000 Du        
  19128 ****       112.2500 167.5000 139.7500 Du        
  19129 ****       112.2500 167.5000 140.0000 Du        
  19130 ****       112.2500 167.7500 137.7500 Du        
  19131 ****       112.2500 167.7500 138.0000 Du        
  19132 ****       112.2500 167.7500 138.2500 Du        
  19133 ****       112.2500 167.7500 138.5000 Du        
  19134 ****       112.2500 167.7500 138.7500 Du        
  19135 ****       112.2500 167.7500 139.0000 Du        
  19136 ****       112.2500 167.7500 139.2500 Du        
  19137 ****       112.2500 167.7500 139.5000 Du        
  19138 ****       112.2500 167.7500 139.7500 Du        
  19139 ****       112.2500 168.0000 138.0000 Du        
  19140 ****       112.2500 168.0000 138.2500 Du        
  19141 ****       112.2500 168.0000 138.5000 Du        
  19142 ****       112.2500 168.0000 138.7500 Du        
  19143 ****       112.2500 168.0000 139.0000 Du        
  19144 ****       112.2500 168.0000 139.2500 Du        
  19145 ****       112.2500 168.0000 139.5000 Du        
  19146 ****       112.2500 168.0000 139.7500 Du        
  19147 ****       112.2500 168.2500 138.0000 Du        
  19148 ****       112.2500 168.2500 138.2500 Du        
  19149 ****       112.2500 168.2500 138.5000 Du        
  19150 ****       112.2500 168.2500 138.7500 Du        
  19151 ****       112.2500 168.2500 139.0000 Du        
  19152 ****       112.2500 168.2500 139.2500 Du        
  19153 ****       112.2500 168.2500 139.5000 Du        
  19154 ****       112.2500 168.5000 138.2500 Du        
  19155 ****       112.2500 168.5000 138.5000 Du        
  19156 ****       112.2500 168.5000 138.7500 Du        
  19157 ****       112.2500 168.5000 139.0000 Du        
  19158 ****       112.2500 168.5000 139.2500 Du        
  19159 ****       112.2500 168.7500 138.7500 Du        
  19160 ****       112.2500 168.7500 139.0000 Du        
  19161 ****       112.2500 168.7500 139.2500 Du        
  19162 ****       112.5000 138.7500 117.5000 Du        
  19163 ****       112.5000 138.7500 117.7500 Du        
  19164 ****       112.5000 138.7500 118.0000 Du        
  19165 ****       112.5000 138.7500 118.2500 Du        
  19166 ****       112.5000 138.7500 118.5000 Du        
  19167 ****       112.5000 139.0000 117.5000 Du        
  19168 ****       112.5000 139.0000 117.7500 Du        
  19169 ****       112.5000 139.0000 118.0000 Du        
  19170 ****       112.5000 139.0000 118.2500 Du        
  19171 ****       112.5000 139.0000 118.5000 Du        
  19172 ****       112.5000 139.0000 118.7500 Du        
  19173 ****       112.5000 139.2500 117.7500 Du        
  19174 ****       112.5000 139.2500 118.0000 Du        
  19175 ****       112.5000 139.2500 118.2500 Du        
  19176 ****       112.5000 139.2500 118.5000 Du        
  19177 ****       112.5000 139.2500 118.7500 Du        
  19178 ****       112.5000 139.5000 118.2500 Du        
  19179 ****       112.5000 139.5000 118.5000 Du        
  19180 ****       112.5000 140.5000 138.2500 Du        
  19181 ****       112.5000 140.5000 138.5000 Du        
  19182 ****       112.5000 140.5000 138.7500 Du        
  19183 ****       112.5000 140.7500 138.7500 Du        
  19184 ****       112.5000 140.7500 139.0000 Du        
  19185 ****       112.5000 141.0000 139.0000 Du        
  19186 ****       112.5000 141.5000 139.2500 Du        
  19187 ****       112.5000 141.7500 139.2500 Du        
  19188 ****       112.5000 142.5000 119.5000 Du        
  19189 ****       112.5000 142.5000 119.7500 Du        
  19190 ****       112.5000 142.5000 120.0000 Du        
  19191 ****       112.5000 142.5000 120.2500 Du        
  19192 ****       112.5000 142.7500 119.5000 Du        
  19193 ****       112.5000 142.7500 119.7500 Du        
  19194 ****       112.5000 142.7500 120.0000 Du        
  19195 ****       112.5000 142.7500 120.2500 Du        
  19196 ****       112.5000 142.7500 120.5000 Du        
  19197 ****       112.5000 142.7500 120.7500 Du        
  19198 ****       112.5000 142.7500 121.0000 Du        
  19199 ****       112.5000 142.7500 121.2500 Du        
  19200 ****       112.5000 143.0000 119.7500 Du        
  19201 ****       112.5000 143.0000 120.0000 Du        
  19202 ****       112.5000 143.0000 120.2500 Du        
  19203 ****       112.5000 143.0000 120.5000 Du        
  19204 ****       112.5000 143.0000 120.7500 Du        
  19205 ****       112.5000 143.0000 121.0000 Du        
  19206 ****       112.5000 143.0000 121.2500 Du        
  19207 ****       112.5000 143.0000 121.5000 Du        
  19208 ****       112.5000 143.0000 121.7500 Du        
  19209 ****       112.5000 143.2500 121.2500 Du        
  19210 ****       112.5000 143.2500 121.5000 Du        
  19211 ****       112.5000 143.2500 121.7500 Du        
  19212 ****       112.5000 152.0000 139.2500 Du        
  19213 ****       112.5000 152.0000 139.7500 Du        
  19214 ****       112.5000 152.0000 140.0000 Du        
  19215 ****       112.5000 152.0000 140.2500 Du        
  19216 ****       112.5000 152.2500 139.0000 Du        
  19217 ****       112.5000 152.2500 139.2500 Du        
  19218 ****       112.5000 152.2500 139.5000 Du        
  19219 ****       112.5000 152.2500 139.7500 Du        
  19220 ****       112.5000 152.2500 140.0000 Du        
  19221 ****       112.5000 152.2500 140.2500 Du        
  19222 ****       112.5000 152.5000 139.0000 Du        
  19223 ****       112.5000 152.5000 139.2500 Du        
  19224 ****       112.5000 152.5000 139.5000 Du        
  19225 ****       112.5000 152.5000 139.7500 Du        
  19226 ****       112.5000 152.5000 140.0000 Du        
  19227 ****       112.5000 152.5000 140.2500 Du        
  19228 ****       112.5000 152.7500 138.7500 Du        
  19229 ****       112.5000 152.7500 139.0000 Du        
  19230 ****       112.5000 152.7500 139.2500 Du        
  19231 ****       112.5000 152.7500 139.5000 Du        
  19232 ****       112.5000 152.7500 139.7500 Du        
  19233 ****       112.5000 152.7500 140.0000 Du        
  19234 ****       112.5000 152.7500 140.2500 Du        
  19235 ****       112.5000 153.0000 138.7500 Du        
  19236 ****       112.5000 153.0000 139.0000 Du        
  19237 ****       112.5000 153.0000 139.2500 Du        
  19238 ****       112.5000 153.0000 139.5000 Du        
  19239 ****       112.5000 153.0000 139.7500 Du        
  19240 ****       112.5000 153.0000 140.0000 Du        
  19241 ****       112.5000 153.0000 140.2500 Du        
  19242 ****       112.5000 153.2500 138.5000 Du        
  19243 ****       112.5000 153.2500 138.7500 Du        
  19244 ****       112.5000 153.2500 139.0000 Du        
  19245 ****       112.5000 153.2500 139.2500 Du        
  19246 ****       112.5000 153.2500 139.5000 Du        
  19247 ****       112.5000 153.2500 139.7500 Du        
  19248 ****       112.5000 153.2500 140.0000 Du        
  19249 ****       112.5000 153.2500 140.2500 Du        
  19250 ****       112.5000 153.5000 138.5000 Du        
  19251 ****       112.5000 153.5000 138.7500 Du        
  19252 ****       112.5000 153.5000 139.0000 Du        
  19253 ****       112.5000 153.5000 139.2500 Du        
  19254 ****       112.5000 153.5000 139.5000 Du        
  19255 ****       112.5000 153.5000 139.7500 Du        
  19256 ****       112.5000 153.5000 140.0000 Du        
  19257 ****       112.5000 153.7500 138.5000 Du        
  19258 ****       112.5000 153.7500 138.7500 Du        
  19259 ****       112.5000 153.7500 139.0000 Du        
  19260 ****       112.5000 153.7500 139.2500 Du        
  19261 ****       112.5000 153.7500 139.5000 Du        
  19262 ****       112.5000 153.7500 139.7500 Du        
  19263 ****       112.5000 154.0000 138.5000 Du        
  19264 ****       112.5000 154.0000 138.7500 Du        
  19265 ****       112.5000 154.0000 139.0000 Du        
  19266 ****       112.5000 154.0000 139.2500 Du        
  19267 ****       112.5000 154.0000 139.5000 Du        
  19268 ****       112.5000 154.2500 138.7500 Du        
  19269 ****       112.5000 154.2500 139.0000 Du        
  19270 ****       112.5000 154.2500 139.2500 Du        
  19271 ****       112.5000 161.0000 114.7500 Du        
  19272 ****       112.5000 161.2500 114.2500 Du        
  19273 ****       112.5000 161.2500 114.5000 Du        
  19274 ****       112.5000 161.2500 114.7500 Du        
  19275 ****       112.5000 161.5000 114.2500 Du        
  19276 ****       112.5000 161.5000 114.5000 Du        
  19277 ****       112.5000 161.5000 114.7500 Du        
  19278 ****       112.5000 161.5000 115.0000 Du        
  19279 ****       112.5000 161.7500 114.2500 Du        
  19280 ****       112.5000 161.7500 114.5000 Du        
  19281 ****       112.5000 161.7500 114.7500 Du        
  19282 ****       112.5000 161.7500 115.0000 Du        
  19283 ****       112.5000 162.0000 114.2500 Du        
  19284 ****       112.5000 162.0000 114.5000 Du        
  19285 ****       112.5000 162.0000 114.7500 Du        
  19286 ****       112.5000 162.0000 115.0000 Du        
  19287 ****       112.5000 162.2500 114.2500 Du        
  19288 ****       112.5000 162.2500 114.5000 Du        
  19289 ****       112.5000 162.2500 114.7500 Du        
  19290 ****       112.5000 162.2500 115.0000 Du        
  19291 ****       112.5000 162.2500 115.2500 Du        
  19292 ****       112.5000 162.5000 114.2500 Du        
  19293 ****       112.5000 162.5000 114.5000 Du        
  19294 ****       112.5000 162.5000 114.7500 Du        
  19295 ****       112.5000 162.5000 115.0000 Du        
  19296 ****       112.5000 162.5000 115.2500 Du        
  19297 ****       112.5000 162.5000 141.2500 Du        
  19298 ****       112.5000 162.7500 114.2500 Du        
  19299 ****       112.5000 162.7500 114.5000 Du        
  19300 ****       112.5000 162.7500 114.7500 Du        
  19301 ****       112.5000 162.7500 115.0000 Du        
  19302 ****       112.5000 162.7500 115.2500 Du        
  19303 ****       112.5000 162.7500 140.7500 Du        
  19304 ****       112.5000 162.7500 141.0000 Du        
  19305 ****       112.5000 162.7500 141.2500 Du        
  19306 ****       112.5000 162.7500 141.5000 Du        
  19307 ****       112.5000 162.7500 141.7500 Du        
  19308 ****       112.5000 162.7500 142.0000 Du        
  19309 ****       112.5000 163.0000 114.0000 Du        
  19310 ****       112.5000 163.0000 114.2500 Du        
  19311 ****       112.5000 163.0000 114.5000 Du        
  19312 ****       112.5000 163.0000 114.7500 Du        
  19313 ****       112.5000 163.0000 115.0000 Du        
  19314 ****       112.5000 163.0000 115.2500 Du        
  19315 ****       112.5000 163.0000 140.7500 Du        
  19316 ****       112.5000 163.0000 141.0000 Du        
  19317 ****       112.5000 163.0000 141.2500 Du        
  19318 ****       112.5000 163.0000 141.5000 Du        
  19319 ****       112.5000 163.0000 141.7500 Du        
  19320 ****       112.5000 163.0000 142.0000 Du        
  19321 ****       112.5000 163.2500 114.0000 Du        
  19322 ****       112.5000 163.2500 114.2500 Du        
  19323 ****       112.5000 163.2500 114.5000 Du        
  19324 ****       112.5000 163.2500 114.7500 Du        
  19325 ****       112.5000 163.2500 115.0000 Du        
  19326 ****       112.5000 163.2500 140.5000 Du        
  19327 ****       112.5000 163.2500 140.7500 Du        
  19328 ****       112.5000 163.2500 141.0000 Du        
  19329 ****       112.5000 163.2500 141.2500 Du        
  19330 ****       112.5000 163.2500 141.5000 Du        
  19331 ****       112.5000 163.5000 114.2500 Du        
  19332 ****       112.5000 163.5000 140.2500 Du        
  19333 ****       112.5000 163.5000 140.5000 Du        
  19334 ****       112.5000 163.5000 140.7500 Du        
  19335 ****       112.5000 163.5000 141.0000 Du        
  19336 ****       112.5000 163.5000 141.2500 Du        
  19337 ****       112.5000 163.7500 140.0000 Du        
  19338 ****       112.5000 163.7500 140.2500 Du        
  19339 ****       112.5000 163.7500 140.5000 Du        
  19340 ****       112.5000 163.7500 140.7500 Du        
  19341 ****       112.5000 163.7500 141.0000 Du        
  19342 ****       112.5000 163.7500 141.2500 Du        
  19343 ****       112.5000 164.0000 139.2500 Du        
  19344 ****       112.5000 164.0000 139.5000 Du        
  19345 ****       112.5000 164.0000 139.7500 Du        
  19346 ****       112.5000 164.0000 140.0000 Du        
  19347 ****       112.5000 164.0000 140.2500 Du        
  19348 ****       112.5000 164.0000 140.5000 Du        
  19349 ****       112.5000 164.0000 140.7500 Du        
  19350 ****       112.5000 164.0000 141.0000 Du        
  19351 ****       112.5000 164.2500 139.0000 Du        
  19352 ****       112.5000 164.2500 139.2500 Du        
  19353 ****       112.5000 164.2500 139.5000 Du        
  19354 ****       112.5000 164.2500 139.7500 Du        
  19355 ****       112.5000 164.2500 140.0000 Du        
  19356 ****       112.5000 164.2500 140.2500 Du        
  19357 ****       112.5000 164.2500 140.5000 Du        
  19358 ****       112.5000 164.2500 140.7500 Du        
  19359 ****       112.5000 164.2500 141.0000 Du        
  19360 ****       112.5000 164.5000 139.0000 Du        
  19361 ****       112.5000 164.5000 139.2500 Du        
  19362 ****       112.5000 164.5000 139.5000 Du        
  19363 ****       112.5000 164.5000 139.7500 Du        
  19364 ****       112.5000 164.5000 140.0000 Du        
  19365 ****       112.5000 164.5000 140.2500 Du        
  19366 ****       112.5000 164.7500 138.7500 Du        
  19367 ****       112.5000 164.7500 139.0000 Du        
  19368 ****       112.5000 164.7500 139.2500 Du        
  19369 ****       112.5000 164.7500 139.5000 Du        
  19370 ****       112.5000 164.7500 139.7500 Du        
  19371 ****       112.5000 164.7500 140.0000 Du        
  19372 ****       112.5000 164.7500 140.2500 Du        
  19373 ****       112.5000 165.0000 138.7500 Du        
  19374 ****       112.5000 165.0000 139.0000 Du        
  19375 ****       112.5000 165.0000 139.2500 Du        
  19376 ****       112.5000 165.0000 139.5000 Du        
  19377 ****       112.5000 165.0000 139.7500 Du        
  19378 ****       112.5000 165.0000 140.0000 Du        
  19379 ****       112.5000 165.0000 140.2500 Du        
  19380 ****       112.5000 165.2500 138.7500 Du        
  19381 ****       112.5000 165.2500 139.0000 Du        
  19382 ****       112.5000 165.2500 139.2500 Du        
  19383 ****       112.5000 165.2500 139.5000 Du        
  19384 ****       112.5000 165.2500 139.7500 Du        
  19385 ****       112.5000 165.2500 140.0000 Du        
  19386 ****       112.5000 165.2500 140.2500 Du        
  19387 ****       112.5000 165.5000 138.7500 Du        
  19388 ****       112.5000 165.5000 139.0000 Du        
  19389 ****       112.5000 165.5000 139.2500 Du        
  19390 ****       112.5000 165.5000 139.5000 Du        
  19391 ****       112.5000 165.5000 139.7500 Du        
  19392 ****       112.5000 165.5000 140.0000 Du        
  19393 ****       112.5000 165.5000 140.2500 Du        
  19394 ****       112.5000 165.7500 138.5000 Du        
  19395 ****       112.5000 165.7500 138.7500 Du        
  19396 ****       112.5000 165.7500 139.0000 Du        
  19397 ****       112.5000 165.7500 139.2500 Du        
  19398 ****       112.5000 165.7500 139.5000 Du        
  19399 ****       112.5000 165.7500 139.7500 Du        
  19400 ****       112.5000 165.7500 140.0000 Du        
  19401 ****       112.5000 165.7500 140.2500 Du        
  19402 ****       112.5000 166.0000 138.5000 Du        
  19403 ****       112.5000 166.0000 138.7500 Du        
  19404 ****       112.5000 166.0000 139.0000 Du        
  19405 ****       112.5000 166.0000 139.2500 Du        
  19406 ****       112.5000 166.0000 139.5000 Du        
  19407 ****       112.5000 166.0000 139.7500 Du        
  19408 ****       112.5000 166.0000 140.0000 Du        
  19409 ****       112.5000 166.0000 140.2500 Du        
  19410 ****       112.5000 166.2500 138.2500 Du        
  19411 ****       112.5000 166.2500 138.5000 Du        
  19412 ****       112.5000 166.2500 138.7500 Du        
  19413 ****       112.5000 166.2500 139.0000 Du        
  19414 ****       112.5000 166.2500 139.2500 Du        
  19415 ****       112.5000 166.2500 139.5000 Du        
  19416 ****       112.5000 166.2500 139.7500 Du        
  19417 ****       112.5000 166.2500 140.0000 Du        
  19418 ****       112.5000 166.2500 140.2500 Du        
  19419 ****       112.5000 166.5000 138.0000 Du        
  19420 ****       112.5000 166.5000 138.2500 Du        
  19421 ****       112.5000 166.5000 138.5000 Du        
  19422 ****       112.5000 166.5000 138.7500 Du        
  19423 ****       112.5000 166.5000 139.0000 Du        
  19424 ****       112.5000 166.5000 139.2500 Du        
  19425 ****       112.5000 166.5000 139.5000 Du        
  19426 ****       112.5000 166.5000 139.7500 Du        
  19427 ****       112.5000 166.5000 140.0000 Du        
  19428 ****       112.5000 166.5000 140.2500 Du        
  19429 ****       112.5000 166.7500 138.0000 Du        
  19430 ****       112.5000 166.7500 138.2500 Du        
  19431 ****       112.5000 166.7500 138.5000 Du        
  19432 ****       112.5000 166.7500 138.7500 Du        
  19433 ****       112.5000 166.7500 139.0000 Du        
  19434 ****       112.5000 166.7500 139.2500 Du        
  19435 ****       112.5000 166.7500 139.5000 Du        
  19436 ****       112.5000 166.7500 139.7500 Du        
  19437 ****       112.5000 166.7500 140.0000 Du        
  19438 ****       112.5000 166.7500 140.2500 Du        
  19439 ****       112.5000 167.0000 137.7500 Du        
  19440 ****       112.5000 167.0000 138.0000 Du        
  19441 ****       112.5000 167.0000 138.2500 Du        
  19442 ****       112.5000 167.0000 138.5000 Du        
  19443 ****       112.5000 167.0000 138.7500 Du        
  19444 ****       112.5000 167.0000 139.0000 Du        
  19445 ****       112.5000 167.0000 139.2500 Du        
  19446 ****       112.5000 167.0000 139.5000 Du        
  19447 ****       112.5000 167.0000 139.7500 Du        
  19448 ****       112.5000 167.0000 140.0000 Du        
  19449 ****       112.5000 167.0000 140.2500 Du        
  19450 ****       112.5000 167.2500 137.7500 Du        
  19451 ****       112.5000 167.2500 138.0000 Du        
  19452 ****       112.5000 167.2500 138.2500 Du        
  19453 ****       112.5000 167.2500 138.5000 Du        
  19454 ****       112.5000 167.2500 138.7500 Du        
  19455 ****       112.5000 167.2500 139.0000 Du        
  19456 ****       112.5000 167.2500 139.2500 Du        
  19457 ****       112.5000 167.2500 139.5000 Du        
  19458 ****       112.5000 167.2500 139.7500 Du        
  19459 ****       112.5000 167.2500 140.0000 Du        
  19460 ****       112.5000 167.5000 137.7500 Du        
  19461 ****       112.5000 167.5000 138.0000 Du        
  19462 ****       112.5000 167.5000 138.2500 Du        
  19463 ****       112.5000 167.5000 138.5000 Du        
  19464 ****       112.5000 167.5000 138.7500 Du        
  19465 ****       112.5000 167.5000 139.0000 Du        
  19466 ****       112.5000 167.5000 139.2500 Du        
  19467 ****       112.5000 167.5000 139.5000 Du        
  19468 ****       112.5000 167.5000 139.7500 Du        
  19469 ****       112.5000 167.7500 137.7500 Du        
  19470 ****       112.5000 167.7500 138.0000 Du        
  19471 ****       112.5000 167.7500 138.2500 Du        
  19472 ****       112.5000 167.7500 138.5000 Du        
  19473 ****       112.5000 167.7500 138.7500 Du        
  19474 ****       112.5000 167.7500 139.0000 Du        
  19475 ****       112.5000 167.7500 139.2500 Du        
  19476 ****       112.5000 167.7500 139.5000 Du        
  19477 ****       112.5000 168.0000 138.0000 Du        
  19478 ****       112.5000 168.0000 138.2500 Du        
  19479 ****       112.5000 168.0000 138.5000 Du        
  19480 ****       112.5000 168.0000 138.7500 Du        
  19481 ****       112.5000 168.0000 139.0000 Du        
  19482 ****       112.5000 168.0000 139.2500 Du        
  19483 ****       112.5000 168.2500 138.2500 Du        
  19484 ****       112.5000 168.2500 138.5000 Du        
  19485 ****       112.5000 168.2500 138.7500 Du        
  19486 ****       112.5000 168.2500 139.0000 Du        
  19487 ****       112.5000 168.2500 139.2500 Du        
  19488 ****       112.7500 133.0000 113.2500 Du        
  19489 ****       112.7500 133.0000 113.5000 Du        
  19490 ****       112.7500 133.0000 113.7500 Du        
  19491 ****       112.7500 133.0000 114.0000 Du        
  19492 ****       112.7500 138.7500 117.7500 Du        
  19493 ****       112.7500 138.7500 118.0000 Du        
  19494 ****       112.7500 138.7500 118.2500 Du        
  19495 ****       112.7500 138.7500 118.5000 Du        
  19496 ****       112.7500 139.0000 117.7500 Du        
  19497 ****       112.7500 139.0000 118.0000 Du        
  19498 ****       112.7500 139.0000 118.2500 Du        
  19499 ****       112.7500 139.0000 118.5000 Du        
  19500 ****       112.7500 140.2500 138.2500 Du        
  19501 ****       112.7500 140.5000 138.2500 Du        
  19502 ****       112.7500 140.7500 138.7500 Du        
  19503 ****       112.7500 140.7500 139.0000 Du        
  19504 ****       112.7500 141.0000 139.0000 Du        
  19505 ****       112.7500 141.5000 139.2500 Du        
  19506 ****       112.7500 142.0000 139.2500 Du        
  19507 ****       112.7500 142.5000 120.0000 Du        
  19508 ****       112.7500 142.5000 120.2500 Du        
  19509 ****       112.7500 142.7500 119.7500 Du        
  19510 ****       112.7500 142.7500 120.0000 Du        
  19511 ****       112.7500 142.7500 120.2500 Du        
  19512 ****       112.7500 142.7500 120.5000 Du        
  19513 ****       112.7500 142.7500 120.7500 Du        
  19514 ****       112.7500 142.7500 121.0000 Du        
  19515 ****       112.7500 142.7500 121.2500 Du        
  19516 ****       112.7500 143.0000 119.7500 Du        
  19517 ****       112.7500 143.0000 120.0000 Du        
  19518 ****       112.7500 143.0000 120.2500 Du        
  19519 ****       112.7500 143.0000 120.5000 Du        
  19520 ****       112.7500 143.0000 120.7500 Du        
  19521 ****       112.7500 143.0000 121.0000 Du        
  19522 ****       112.7500 143.0000 121.2500 Du        
  19523 ****       112.7500 143.0000 121.5000 Du        
  19524 ****       112.7500 143.0000 121.7500 Du        
  19525 ****       112.7500 143.2500 121.7500 Du        
  19526 ****       112.7500 143.2500 122.0000 Du        
  19527 ****       112.7500 152.0000 139.2500 Du        
  19528 ****       112.7500 152.0000 139.7500 Du        
  19529 ****       112.7500 152.0000 140.0000 Du        
  19530 ****       112.7500 152.2500 139.0000 Du        
  19531 ****       112.7500 152.2500 139.2500 Du        
  19532 ****       112.7500 152.2500 139.5000 Du        
  19533 ****       112.7500 152.2500 139.7500 Du        
  19534 ****       112.7500 152.2500 140.0000 Du        
  19535 ****       112.7500 152.2500 140.2500 Du        
  19536 ****       112.7500 152.5000 138.7500 Du        
  19537 ****       112.7500 152.5000 139.0000 Du        
  19538 ****       112.7500 152.5000 139.2500 Du        
  19539 ****       112.7500 152.5000 139.5000 Du        
  19540 ****       112.7500 152.5000 139.7500 Du        
  19541 ****       112.7500 152.5000 140.0000 Du        
  19542 ****       112.7500 152.5000 140.2500 Du        
  19543 ****       112.7500 152.7500 138.7500 Du        
  19544 ****       112.7500 152.7500 139.0000 Du        
  19545 ****       112.7500 152.7500 139.2500 Du        
  19546 ****       112.7500 152.7500 139.5000 Du        
  19547 ****       112.7500 152.7500 139.7500 Du        
  19548 ****       112.7500 152.7500 140.0000 Du        
  19549 ****       112.7500 152.7500 140.2500 Du        
  19550 ****       112.7500 153.0000 138.5000 Du        
  19551 ****       112.7500 153.0000 138.7500 Du        
  19552 ****       112.7500 153.0000 139.0000 Du        
  19553 ****       112.7500 153.0000 139.2500 Du        
  19554 ****       112.7500 153.0000 139.5000 Du        
  19555 ****       112.7500 153.0000 139.7500 Du        
  19556 ****       112.7500 153.0000 140.0000 Du        
  19557 ****       112.7500 153.0000 140.2500 Du        
  19558 ****       112.7500 153.2500 138.2500 Du        
  19559 ****       112.7500 153.2500 138.5000 Du        
  19560 ****       112.7500 153.2500 138.7500 Du        
  19561 ****       112.7500 153.2500 139.0000 Du        
  19562 ****       112.7500 153.2500 139.2500 Du        
  19563 ****       112.7500 153.2500 139.5000 Du        
  19564 ****       112.7500 153.2500 139.7500 Du        
  19565 ****       112.7500 153.2500 140.0000 Du        
  19566 ****       112.7500 153.2500 140.2500 Du        
  19567 ****       112.7500 153.5000 138.2500 Du        
  19568 ****       112.7500 153.5000 138.5000 Du        
  19569 ****       112.7500 153.5000 138.7500 Du        
  19570 ****       112.7500 153.5000 139.0000 Du        
  19571 ****       112.7500 153.5000 139.2500 Du        
  19572 ****       112.7500 153.5000 139.5000 Du        
  19573 ****       112.7500 153.5000 139.7500 Du        
  19574 ****       112.7500 153.5000 140.0000 Du        
  19575 ****       112.7500 153.7500 138.2500 Du        
  19576 ****       112.7500 153.7500 138.5000 Du        
  19577 ****       112.7500 153.7500 138.7500 Du        
  19578 ****       112.7500 153.7500 139.0000 Du        
  19579 ****       112.7500 153.7500 139.2500 Du        
  19580 ****       112.7500 153.7500 139.5000 Du        
  19581 ****       112.7500 153.7500 139.7500 Du        
  19582 ****       112.7500 154.0000 138.5000 Du        
  19583 ****       112.7500 154.0000 138.7500 Du        
  19584 ****       112.7500 154.0000 139.0000 Du        
  19585 ****       112.7500 154.0000 139.2500 Du        
  19586 ****       112.7500 154.0000 139.5000 Du        
  19587 ****       112.7500 154.2500 138.7500 Du        
  19588 ****       112.7500 154.2500 139.0000 Du        
  19589 ****       112.7500 154.2500 139.2500 Du        
  19590 ****       112.7500 162.5000 141.2500 Du        
  19591 ****       112.7500 162.5000 141.5000 Du        
  19592 ****       112.7500 162.5000 141.7500 Du        
  19593 ****       112.7500 162.7500 114.5000 Du        
  19594 ****       112.7500 162.7500 114.7500 Du        
  19595 ****       112.7500 162.7500 140.7500 Du        
  19596 ****       112.7500 162.7500 141.0000 Du        
  19597 ****       112.7500 162.7500 141.2500 Du        
  19598 ****       112.7500 162.7500 141.5000 Du        
  19599 ****       112.7500 162.7500 141.7500 Du        
  19600 ****       112.7500 162.7500 142.0000 Du        
  19601 ****       112.7500 163.0000 114.2500 Du        
  19602 ****       112.7500 163.0000 114.5000 Du        
  19603 ****       112.7500 163.0000 114.7500 Du        
  19604 ****       112.7500 163.0000 140.7500 Du        
  19605 ****       112.7500 163.0000 141.0000 Du        
  19606 ****       112.7500 163.0000 141.2500 Du        
  19607 ****       112.7500 163.0000 141.5000 Du        
  19608 ****       112.7500 163.0000 141.7500 Du        
  19609 ****       112.7500 163.0000 142.0000 Du        
  19610 ****       112.7500 163.2500 114.2500 Du        
  19611 ****       112.7500 163.2500 114.5000 Du        
  19612 ****       112.7500 163.2500 114.7500 Du        
  19613 ****       112.7500 163.2500 140.5000 Du        
  19614 ****       112.7500 163.2500 140.7500 Du        
  19615 ****       112.7500 163.2500 141.0000 Du        
  19616 ****       112.7500 163.2500 141.2500 Du        
  19617 ****       112.7500 163.2500 141.5000 Du        
  19618 ****       112.7500 163.2500 141.7500 Du        
  19619 ****       112.7500 163.5000 114.2500 Du        
  19620 ****       112.7500 163.5000 114.5000 Du        
  19621 ****       112.7500 163.5000 140.2500 Du        
  19622 ****       112.7500 163.5000 140.5000 Du        
  19623 ****       112.7500 163.5000 140.7500 Du        
  19624 ****       112.7500 163.5000 141.0000 Du        
  19625 ****       112.7500 163.5000 141.2500 Du        
  19626 ****       112.7500 163.7500 140.0000 Du        
  19627 ****       112.7500 163.7500 140.2500 Du        
  19628 ****       112.7500 163.7500 140.5000 Du        
  19629 ****       112.7500 163.7500 140.7500 Du        
  19630 ****       112.7500 163.7500 141.0000 Du        
  19631 ****       112.7500 163.7500 141.2500 Du        
  19632 ****       112.7500 164.0000 139.2500 Du        
  19633 ****       112.7500 164.0000 139.5000 Du        
  19634 ****       112.7500 164.0000 139.7500 Du        
  19635 ****       112.7500 164.0000 140.0000 Du        
  19636 ****       112.7500 164.0000 140.2500 Du        
  19637 ****       112.7500 164.0000 140.5000 Du        
  19638 ****       112.7500 164.0000 140.7500 Du        
  19639 ****       112.7500 164.0000 141.0000 Du        
  19640 ****       112.7500 164.2500 139.0000 Du        
  19641 ****       112.7500 164.2500 139.2500 Du        
  19642 ****       112.7500 164.2500 139.5000 Du        
  19643 ****       112.7500 164.2500 139.7500 Du        
  19644 ****       112.7500 164.2500 140.0000 Du        
  19645 ****       112.7500 164.2500 140.2500 Du        
  19646 ****       112.7500 164.2500 140.5000 Du        
  19647 ****       112.7500 164.2500 140.7500 Du        
  19648 ****       112.7500 164.2500 141.0000 Du        
  19649 ****       112.7500 164.5000 139.0000 Du        
  19650 ****       112.7500 164.5000 139.2500 Du        
  19651 ****       112.7500 164.5000 139.5000 Du        
  19652 ****       112.7500 164.5000 139.7500 Du        
  19653 ****       112.7500 164.5000 140.0000 Du        
  19654 ****       112.7500 164.5000 140.2500 Du        
  19655 ****       112.7500 164.7500 138.7500 Du        
  19656 ****       112.7500 164.7500 139.0000 Du        
  19657 ****       112.7500 164.7500 139.2500 Du        
  19658 ****       112.7500 164.7500 139.5000 Du        
  19659 ****       112.7500 164.7500 139.7500 Du        
  19660 ****       112.7500 164.7500 140.0000 Du        
  19661 ****       112.7500 164.7500 140.2500 Du        
  19662 ****       112.7500 165.0000 138.7500 Du        
  19663 ****       112.7500 165.0000 139.0000 Du        
  19664 ****       112.7500 165.0000 139.2500 Du        
  19665 ****       112.7500 165.0000 139.5000 Du        
  19666 ****       112.7500 165.0000 139.7500 Du        
  19667 ****       112.7500 165.0000 140.0000 Du        
  19668 ****       112.7500 165.0000 140.2500 Du        
  19669 ****       112.7500 165.2500 138.7500 Du        
  19670 ****       112.7500 165.2500 139.0000 Du        
  19671 ****       112.7500 165.2500 139.2500 Du        
  19672 ****       112.7500 165.2500 139.5000 Du        
  19673 ****       112.7500 165.2500 139.7500 Du        
  19674 ****       112.7500 165.2500 140.0000 Du        
  19675 ****       112.7500 165.2500 140.2500 Du        
  19676 ****       112.7500 165.5000 138.5000 Du        
  19677 ****       112.7500 165.5000 138.7500 Du        
  19678 ****       112.7500 165.5000 139.0000 Du        
  19679 ****       112.7500 165.5000 139.2500 Du        
  19680 ****       112.7500 165.5000 139.5000 Du        
  19681 ****       112.7500 165.5000 139.7500 Du        
  19682 ****       112.7500 165.5000 140.0000 Du        
  19683 ****       112.7500 165.5000 140.2500 Du        
  19684 ****       112.7500 165.5000 140.5000 Du        
  19685 ****       112.7500 165.7500 138.2500 Du        
  19686 ****       112.7500 165.7500 138.5000 Du        
  19687 ****       112.7500 165.7500 138.7500 Du        
  19688 ****       112.7500 165.7500 139.0000 Du        
  19689 ****       112.7500 165.7500 139.2500 Du        
  19690 ****       112.7500 165.7500 139.5000 Du        
  19691 ****       112.7500 165.7500 139.7500 Du        
  19692 ****       112.7500 165.7500 140.0000 Du        
  19693 ****       112.7500 165.7500 140.2500 Du        
  19694 ****       112.7500 165.7500 140.5000 Du        
  19695 ****       112.7500 165.7500 140.7500 Du        
  19696 ****       112.7500 166.0000 138.2500 Du        
  19697 ****       112.7500 166.0000 138.5000 Du        
  19698 ****       112.7500 166.0000 138.7500 Du        
  19699 ****       112.7500 166.0000 139.0000 Du        
  19700 ****       112.7500 166.0000 139.2500 Du        
  19701 ****       112.7500 166.0000 139.5000 Du        
  19702 ****       112.7500 166.0000 139.7500 Du        
  19703 ****       112.7500 166.0000 140.0000 Du        
  19704 ****       112.7500 166.0000 140.2500 Du        
  19705 ****       112.7500 166.0000 140.5000 Du        
  19706 ****       112.7500 166.0000 140.7500 Du        
  19707 ****       112.7500 166.2500 138.0000 Du        
  19708 ****       112.7500 166.2500 138.2500 Du        
  19709 ****       112.7500 166.2500 138.5000 Du        
  19710 ****       112.7500 166.2500 138.7500 Du        
  19711 ****       112.7500 166.2500 139.0000 Du        
  19712 ****       112.7500 166.2500 139.2500 Du        
  19713 ****       112.7500 166.2500 139.5000 Du        
  19714 ****       112.7500 166.2500 139.7500 Du        
  19715 ****       112.7500 166.2500 140.0000 Du        
  19716 ****       112.7500 166.2500 140.2500 Du        
  19717 ****       112.7500 166.2500 140.5000 Du        
  19718 ****       112.7500 166.5000 137.7500 Du        
  19719 ****       112.7500 166.5000 138.0000 Du        
  19720 ****       112.7500 166.5000 138.2500 Du        
  19721 ****       112.7500 166.5000 138.5000 Du        
  19722 ****       112.7500 166.5000 138.7500 Du        
  19723 ****       112.7500 166.5000 139.0000 Du        
  19724 ****       112.7500 166.5000 139.2500 Du        
  19725 ****       112.7500 166.5000 139.5000 Du        
  19726 ****       112.7500 166.5000 139.7500 Du        
  19727 ****       112.7500 166.5000 140.0000 Du        
  19728 ****       112.7500 166.5000 140.2500 Du        
  19729 ****       112.7500 166.7500 137.5000 Du        
  19730 ****       112.7500 166.7500 137.7500 Du        
  19731 ****       112.7500 166.7500 138.0000 Du        
  19732 ****       112.7500 166.7500 138.2500 Du        
  19733 ****       112.7500 166.7500 138.5000 Du        
  19734 ****       112.7500 166.7500 138.7500 Du        
  19735 ****       112.7500 166.7500 139.0000 Du        
  19736 ****       112.7500 166.7500 139.2500 Du        
  19737 ****       112.7500 166.7500 139.5000 Du        
  19738 ****       112.7500 166.7500 139.7500 Du        
  19739 ****       112.7500 166.7500 140.0000 Du        
  19740 ****       112.7500 166.7500 140.2500 Du        
  19741 ****       112.7500 167.0000 137.5000 Du        
  19742 ****       112.7500 167.0000 137.7500 Du        
  19743 ****       112.7500 167.0000 138.0000 Du        
  19744 ****       112.7500 167.0000 138.2500 Du        
  19745 ****       112.7500 167.0000 138.5000 Du        
  19746 ****       112.7500 167.0000 138.7500 Du        
  19747 ****       112.7500 167.0000 139.0000 Du        
  19748 ****       112.7500 167.0000 139.2500 Du        
  19749 ****       112.7500 167.0000 139.5000 Du        
  19750 ****       112.7500 167.0000 139.7500 Du        
  19751 ****       112.7500 167.0000 140.0000 Du        
  19752 ****       112.7500 167.0000 140.2500 Du        
  19753 ****       112.7500 167.2500 137.5000 Du        
  19754 ****       112.7500 167.2500 137.7500 Du        
  19755 ****       112.7500 167.2500 138.0000 Du        
  19756 ****       112.7500 167.2500 138.2500 Du        
  19757 ****       112.7500 167.2500 138.5000 Du        
  19758 ****       112.7500 167.2500 138.7500 Du        
  19759 ****       112.7500 167.2500 139.0000 Du        
  19760 ****       112.7500 167.2500 139.2500 Du        
  19761 ****       112.7500 167.2500 139.5000 Du        
  19762 ****       112.7500 167.2500 139.7500 Du        
  19763 ****       112.7500 167.2500 140.0000 Du        
  19764 ****       112.7500 167.5000 137.7500 Du        
  19765 ****       112.7500 167.5000 138.0000 Du        
  19766 ****       112.7500 167.5000 138.2500 Du        
  19767 ****       112.7500 167.5000 138.5000 Du        
  19768 ****       112.7500 167.5000 138.7500 Du        
  19769 ****       112.7500 167.5000 139.0000 Du        
  19770 ****       112.7500 167.5000 139.2500 Du        
  19771 ****       112.7500 167.5000 139.5000 Du        
  19772 ****       112.7500 167.7500 138.0000 Du        
  19773 ****       112.7500 167.7500 138.2500 Du        
  19774 ****       112.7500 167.7500 138.5000 Du        
  19775 ****       112.7500 167.7500 138.7500 Du        
  19776 ****       112.7500 167.7500 139.0000 Du        
  19777 ****       112.7500 167.7500 139.2500 Du        
  19778 ****       112.7500 168.0000 138.5000 Du        
  19779 ****       112.7500 168.0000 138.7500 Du        
  19780 ****       112.7500 168.0000 139.0000 Du        
  19781 ****       113.0000 133.0000 113.2500 Du        
  19782 ****       113.0000 133.0000 113.5000 Du        
  19783 ****       113.0000 133.0000 113.7500 Du        
  19784 ****       113.0000 133.0000 114.0000 Du        
  19785 ****       113.0000 133.0000 114.2500 Du        
  19786 ****       113.0000 140.0000 138.0000 Du        
  19787 ****       113.0000 140.7500 138.7500 Du        
  19788 ****       113.0000 141.5000 139.0000 Du        
  19789 ****       113.0000 141.7500 139.2500 Du        
  19790 ****       113.0000 142.0000 139.2500 Du        
  19791 ****       113.0000 143.0000 121.5000 Du        
  19792 ****       113.0000 143.0000 121.7500 Du        
  19793 ****       113.0000 143.2500 122.0000 Du        
  19794 ****       113.0000 143.2500 122.2500 Du        
  19795 ****       113.0000 152.0000 139.2500 Du        
  19796 ****       113.0000 152.2500 138.7500 Du        
  19797 ****       113.0000 152.2500 139.0000 Du        
  19798 ****       113.0000 152.2500 139.2500 Du        
  19799 ****       113.0000 152.2500 139.5000 Du        
  19800 ****       113.0000 152.2500 139.7500 Du        
  19801 ****       113.0000 152.2500 140.0000 Du        
  19802 ****       113.0000 152.2500 140.2500 Du        
  19803 ****       113.0000 152.5000 138.7500 Du        
  19804 ****       113.0000 152.5000 139.0000 Du        
  19805 ****       113.0000 152.5000 139.2500 Du        
  19806 ****       113.0000 152.5000 139.5000 Du        
  19807 ****       113.0000 152.5000 139.7500 Du        
  19808 ****       113.0000 152.5000 140.0000 Du        
  19809 ****       113.0000 152.5000 140.2500 Du        
  19810 ****       113.0000 152.7500 138.5000 Du        
  19811 ****       113.0000 152.7500 138.7500 Du        
  19812 ****       113.0000 152.7500 139.0000 Du        
  19813 ****       113.0000 152.7500 139.2500 Du        
  19814 ****       113.0000 152.7500 139.5000 Du        
  19815 ****       113.0000 152.7500 139.7500 Du        
  19816 ****       113.0000 152.7500 140.0000 Du        
  19817 ****       113.0000 152.7500 140.2500 Du        
  19818 ****       113.0000 153.0000 138.2500 Du        
  19819 ****       113.0000 153.0000 138.5000 Du        
  19820 ****       113.0000 153.0000 138.7500 Du        
  19821 ****       113.0000 153.0000 139.0000 Du        
  19822 ****       113.0000 153.0000 139.2500 Du        
  19823 ****       113.0000 153.0000 139.5000 Du        
  19824 ****       113.0000 153.0000 139.7500 Du        
  19825 ****       113.0000 153.0000 140.0000 Du        
  19826 ****       113.0000 153.0000 140.2500 Du        
  19827 ****       113.0000 153.2500 138.2500 Du        
  19828 ****       113.0000 153.2500 138.5000 Du        
  19829 ****       113.0000 153.2500 138.7500 Du        
  19830 ****       113.0000 153.2500 139.0000 Du        
  19831 ****       113.0000 153.2500 139.2500 Du        
  19832 ****       113.0000 153.2500 139.5000 Du        
  19833 ****       113.0000 153.2500 139.7500 Du        
  19834 ****       113.0000 153.2500 140.0000 Du        
  19835 ****       113.0000 153.5000 138.2500 Du        
  19836 ****       113.0000 153.5000 138.5000 Du        
  19837 ****       113.0000 153.5000 138.7500 Du        
  19838 ****       113.0000 153.5000 139.0000 Du        
  19839 ****       113.0000 153.5000 139.2500 Du        
  19840 ****       113.0000 153.5000 139.5000 Du        
  19841 ****       113.0000 153.5000 139.7500 Du        
  19842 ****       113.0000 153.5000 140.0000 Du        
  19843 ****       113.0000 153.7500 138.2500 Du        
  19844 ****       113.0000 153.7500 138.5000 Du        
  19845 ****       113.0000 153.7500 138.7500 Du        
  19846 ****       113.0000 153.7500 139.0000 Du        
  19847 ****       113.0000 153.7500 139.2500 Du        
  19848 ****       113.0000 153.7500 139.5000 Du        
  19849 ****       113.0000 153.7500 139.7500 Du        
  19850 ****       113.0000 154.0000 138.5000 Du        
  19851 ****       113.0000 154.0000 138.7500 Du        
  19852 ****       113.0000 154.0000 139.0000 Du        
  19853 ****       113.0000 154.0000 139.2500 Du        
  19854 ****       113.0000 154.0000 139.5000 Du        
  19855 ****       113.0000 154.2500 138.7500 Du        
  19856 ****       113.0000 154.2500 139.0000 Du        
  19857 ****       113.0000 154.2500 139.2500 Du        
  19858 ****       113.0000 162.7500 141.0000 Du        
  19859 ****       113.0000 162.7500 141.2500 Du        
  19860 ****       113.0000 163.0000 141.0000 Du        
  19861 ****       113.0000 163.0000 141.2500 Du        
  19862 ****       113.0000 163.2500 140.7500 Du        
  19863 ****       113.0000 163.2500 141.0000 Du        
  19864 ****       113.0000 163.2500 141.2500 Du        
  19865 ****       113.0000 163.7500 140.0000 Du        
  19866 ****       113.0000 163.7500 140.2500 Du        
  19867 ****       113.0000 164.0000 139.5000 Du        
  19868 ****       113.0000 164.0000 139.7500 Du        
  19869 ****       113.0000 164.0000 140.0000 Du        
  19870 ****       113.0000 164.0000 140.2500 Du        
  19871 ****       113.0000 164.0000 140.5000 Du        
  19872 ****       113.0000 164.0000 140.7500 Du        
  19873 ****       113.0000 164.0000 141.0000 Du        
  19874 ****       113.0000 164.2500 139.2500 Du        
  19875 ****       113.0000 164.2500 139.5000 Du        
  19876 ****       113.0000 164.2500 139.7500 Du        
  19877 ****       113.0000 164.2500 140.0000 Du        
  19878 ****       113.0000 164.2500 140.2500 Du        
  19879 ****       113.0000 164.2500 140.5000 Du        
  19880 ****       113.0000 164.2500 140.7500 Du        
  19881 ****       113.0000 164.5000 139.0000 Du        
  19882 ****       113.0000 164.5000 139.2500 Du        
  19883 ****       113.0000 164.5000 139.5000 Du        
  19884 ****       113.0000 164.5000 139.7500 Du        
  19885 ****       113.0000 164.5000 140.0000 Du        
  19886 ****       113.0000 164.5000 140.2500 Du        
  19887 ****       113.0000 164.7500 139.0000 Du        
  19888 ****       113.0000 164.7500 139.2500 Du        
  19889 ****       113.0000 164.7500 139.5000 Du        
  19890 ****       113.0000 164.7500 139.7500 Du        
  19891 ****       113.0000 164.7500 140.0000 Du        
  19892 ****       113.0000 164.7500 140.2500 Du        
  19893 ****       113.0000 165.0000 138.7500 Du        
  19894 ****       113.0000 165.0000 139.0000 Du        
  19895 ****       113.0000 165.0000 139.2500 Du        
  19896 ****       113.0000 165.0000 139.5000 Du        
  19897 ****       113.0000 165.0000 139.7500 Du        
  19898 ****       113.0000 165.0000 140.0000 Du        
  19899 ****       113.0000 165.0000 140.2500 Du        
  19900 ****       113.0000 165.0000 140.5000 Du        
  19901 ****       113.0000 165.2500 138.7500 Du        
  19902 ****       113.0000 165.2500 139.0000 Du        
  19903 ****       113.0000 165.2500 139.2500 Du        
  19904 ****       113.0000 165.2500 139.5000 Du        
  19905 ****       113.0000 165.2500 139.7500 Du        
  19906 ****       113.0000 165.2500 140.0000 Du        
  19907 ****       113.0000 165.2500 140.2500 Du        
  19908 ****       113.0000 165.2500 140.5000 Du        
  19909 ****       113.0000 165.2500 140.7500 Du        
  19910 ****       113.0000 165.5000 138.5000 Du        
  19911 ****       113.0000 165.5000 138.7500 Du        
  19912 ****       113.0000 165.5000 139.0000 Du        
  19913 ****       113.0000 165.5000 139.2500 Du        
  19914 ****       113.0000 165.5000 139.5000 Du        
  19915 ****       113.0000 165.5000 139.7500 Du        
  19916 ****       113.0000 165.5000 140.0000 Du        
  19917 ****       113.0000 165.5000 140.2500 Du        
  19918 ****       113.0000 165.5000 140.5000 Du        
  19919 ****       113.0000 165.5000 140.7500 Du        
  19920 ****       113.0000 165.5000 141.0000 Du        
  19921 ****       113.0000 165.7500 138.2500 Du        
  19922 ****       113.0000 165.7500 138.5000 Du        
  19923 ****       113.0000 165.7500 138.7500 Du        
  19924 ****       113.0000 165.7500 139.0000 Du        
  19925 ****       113.0000 165.7500 139.2500 Du        
  19926 ****       113.0000 165.7500 139.5000 Du        
  19927 ****       113.0000 165.7500 139.7500 Du        
  19928 ****       113.0000 165.7500 140.0000 Du        
  19929 ****       113.0000 165.7500 140.2500 Du        
  19930 ****       113.0000 165.7500 140.5000 Du        
  19931 ****       113.0000 165.7500 140.7500 Du        
  19932 ****       113.0000 165.7500 141.0000 Du        
  19933 ****       113.0000 166.0000 138.0000 Du        
  19934 ****       113.0000 166.0000 138.2500 Du        
  19935 ****       113.0000 166.0000 138.5000 Du        
  19936 ****       113.0000 166.0000 138.7500 Du        
  19937 ****       113.0000 166.0000 139.0000 Du        
  19938 ****       113.0000 166.0000 139.2500 Du        
  19939 ****       113.0000 166.0000 139.5000 Du        
  19940 ****       113.0000 166.0000 139.7500 Du        
  19941 ****       113.0000 166.0000 140.0000 Du        
  19942 ****       113.0000 166.0000 140.2500 Du        
  19943 ****       113.0000 166.0000 140.5000 Du        
  19944 ****       113.0000 166.0000 140.7500 Du        
  19945 ****       113.0000 166.0000 141.0000 Du        
  19946 ****       113.0000 166.2500 137.7500 Du        
  19947 ****       113.0000 166.2500 138.0000 Du        
  19948 ****       113.0000 166.2500 138.2500 Du        
  19949 ****       113.0000 166.2500 138.5000 Du        
  19950 ****       113.0000 166.2500 138.7500 Du        
  19951 ****       113.0000 166.2500 139.0000 Du        
  19952 ****       113.0000 166.2500 139.2500 Du        
  19953 ****       113.0000 166.2500 139.5000 Du        
  19954 ****       113.0000 166.2500 139.7500 Du        
  19955 ****       113.0000 166.2500 140.0000 Du        
  19956 ****       113.0000 166.2500 140.2500 Du        
  19957 ****       113.0000 166.2500 140.5000 Du        
  19958 ****       113.0000 166.2500 140.7500 Du        
  19959 ****       113.0000 166.5000 137.5000 Du        
  19960 ****       113.0000 166.5000 137.7500 Du        
  19961 ****       113.0000 166.5000 138.0000 Du        
  19962 ****       113.0000 166.5000 138.2500 Du        
  19963 ****       113.0000 166.5000 138.5000 Du        
  19964 ****       113.0000 166.5000 138.7500 Du        
  19965 ****       113.0000 166.5000 139.0000 Du        
  19966 ****       113.0000 166.5000 139.2500 Du        
  19967 ****       113.0000 166.5000 139.5000 Du        
  19968 ****       113.0000 166.5000 139.7500 Du        
  19969 ****       113.0000 166.5000 140.0000 Du        
  19970 ****       113.0000 166.5000 140.2500 Du        
  19971 ****       113.0000 166.5000 140.5000 Du        
  19972 ****       113.0000 166.7500 137.2500 Du        
  19973 ****       113.0000 166.7500 137.5000 Du        
  19974 ****       113.0000 166.7500 137.7500 Du        
  19975 ****       113.0000 166.7500 138.0000 Du        
  19976 ****       113.0000 166.7500 138.2500 Du        
  19977 ****       113.0000 166.7500 138.5000 Du        
  19978 ****       113.0000 166.7500 138.7500 Du        
  19979 ****       113.0000 166.7500 139.0000 Du        
  19980 ****       113.0000 166.7500 139.2500 Du        
  19981 ****       113.0000 166.7500 139.5000 Du        
  19982 ****       113.0000 166.7500 139.7500 Du        
  19983 ****       113.0000 166.7500 140.0000 Du        
  19984 ****       113.0000 166.7500 140.2500 Du        
  19985 ****       113.0000 167.0000 137.2500 Du        
  19986 ****       113.0000 167.0000 137.5000 Du        
  19987 ****       113.0000 167.0000 137.7500 Du        
  19988 ****       113.0000 167.0000 138.0000 Du        
  19989 ****       113.0000 167.0000 138.2500 Du        
  19990 ****       113.0000 167.0000 138.5000 Du        
  19991 ****       113.0000 167.0000 138.7500 Du        
  19992 ****       113.0000 167.0000 139.0000 Du        
  19993 ****       113.0000 167.0000 139.2500 Du        
  19994 ****       113.0000 167.0000 139.5000 Du        
  19995 ****       113.0000 167.0000 139.7500 Du        
  19996 ****       113.0000 167.0000 140.0000 Du        
  19997 ****       113.0000 167.2500 137.5000 Du        
  19998 ****       113.0000 167.2500 137.7500 Du        
  19999 ****       113.0000 167.2500 138.0000 Du        
  20000 ****       113.0000 167.2500 138.2500 Du        
  20001 ****       113.0000 167.2500 138.5000 Du        
  20002 ****       113.0000 167.2500 138.7500 Du        
  20003 ****       113.0000 167.2500 139.0000 Du        
  20004 ****       113.0000 167.2500 139.2500 Du        
  20005 ****       113.0000 167.2500 139.5000 Du        
  20006 ****       113.0000 167.2500 139.7500 Du        
  20007 ****       113.0000 167.5000 137.7500 Du        
  20008 ****       113.0000 167.5000 138.0000 Du        
  20009 ****       113.0000 167.5000 138.2500 Du        
  20010 ****       113.0000 167.5000 138.5000 Du        
  20011 ****       113.0000 167.5000 138.7500 Du        
  20012 ****       113.0000 167.5000 139.0000 Du        
  20013 ****       113.0000 167.5000 139.2500 Du        
  20014 ****       113.0000 167.7500 138.7500 Du        
  20015 ****       113.0000 167.7500 139.0000 Du        
  20016 ****       113.2500 133.0000 113.2500 Du        
  20017 ****       113.2500 133.0000 113.5000 Du        
  20018 ****       113.2500 133.0000 113.7500 Du        
  20019 ****       113.2500 133.0000 114.0000 Du        
  20020 ****       113.2500 133.0000 114.2500 Du        
  20021 ****       113.2500 133.0000 114.5000 Du        
  20022 ****       113.2500 142.0000 139.2500 Du        
  20023 ****       113.2500 142.2500 139.2500 Du        
  20024 ****       113.2500 143.2500 122.2500 Du        
  20025 ****       113.2500 143.5000 122.5000 Du        
  20026 ****       113.2500 152.0000 139.0000 Du        
  20027 ****       113.2500 152.0000 139.2500 Du        
  20028 ****       113.2500 152.2500 138.7500 Du        
  20029 ****       113.2500 152.2500 139.0000 Du        
  20030 ****       113.2500 152.2500 139.2500 Du        
  20031 ****       113.2500 152.2500 139.5000 Du        
  20032 ****       113.2500 152.2500 139.7500 Du        
  20033 ****       113.2500 152.2500 140.0000 Du        
  20034 ****       113.2500 152.5000 138.5000 Du        
  20035 ****       113.2500 152.5000 138.7500 Du        
  20036 ****       113.2500 152.5000 139.0000 Du        
  20037 ****       113.2500 152.5000 139.2500 Du        
  20038 ****       113.2500 152.5000 139.5000 Du        
  20039 ****       113.2500 152.5000 139.7500 Du        
  20040 ****       113.2500 152.5000 140.0000 Du        
  20041 ****       113.2500 152.7500 138.2500 Du        
  20042 ****       113.2500 152.7500 138.5000 Du        
  20043 ****       113.2500 152.7500 138.7500 Du        
  20044 ****       113.2500 152.7500 139.0000 Du        
  20045 ****       113.2500 152.7500 139.2500 Du        
  20046 ****       113.2500 152.7500 139.5000 Du        
  20047 ****       113.2500 152.7500 139.7500 Du        
  20048 ****       113.2500 152.7500 140.0000 Du        
  20049 ****       113.2500 152.7500 140.2500 Du        
  20050 ****       113.2500 153.0000 138.0000 Du        
  20051 ****       113.2500 153.0000 138.2500 Du        
  20052 ****       113.2500 153.0000 138.5000 Du        
  20053 ****       113.2500 153.0000 138.7500 Du        
  20054 ****       113.2500 153.0000 139.0000 Du        
  20055 ****       113.2500 153.0000 139.2500 Du        
  20056 ****       113.2500 153.0000 139.5000 Du        
  20057 ****       113.2500 153.0000 139.7500 Du        
  20058 ****       113.2500 153.0000 140.0000 Du        
  20059 ****       113.2500 153.2500 138.0000 Du        
  20060 ****       113.2500 153.2500 138.2500 Du        
  20061 ****       113.2500 153.2500 138.5000 Du        
  20062 ****       113.2500 153.2500 138.7500 Du        
  20063 ****       113.2500 153.2500 139.0000 Du        
  20064 ****       113.2500 153.2500 139.2500 Du        
  20065 ****       113.2500 153.2500 139.5000 Du        
  20066 ****       113.2500 153.2500 139.7500 Du        
  20067 ****       113.2500 153.2500 140.0000 Du        
  20068 ****       113.2500 153.5000 138.0000 Du        
  20069 ****       113.2500 153.5000 138.2500 Du        
  20070 ****       113.2500 153.5000 138.5000 Du        
  20071 ****       113.2500 153.5000 138.7500 Du        
  20072 ****       113.2500 153.5000 139.0000 Du        
  20073 ****       113.2500 153.5000 139.2500 Du        
  20074 ****       113.2500 153.5000 139.5000 Du        
  20075 ****       113.2500 153.5000 139.7500 Du        
  20076 ****       113.2500 153.5000 140.0000 Du        
  20077 ****       113.2500 153.7500 138.2500 Du        
  20078 ****       113.2500 153.7500 138.5000 Du        
  20079 ****       113.2500 153.7500 138.7500 Du        
  20080 ****       113.2500 153.7500 139.0000 Du        
  20081 ****       113.2500 153.7500 139.2500 Du        
  20082 ****       113.2500 153.7500 139.5000 Du        
  20083 ****       113.2500 153.7500 139.7500 Du        
  20084 ****       113.2500 154.0000 138.5000 Du        
  20085 ****       113.2500 154.0000 138.7500 Du        
  20086 ****       113.2500 154.0000 139.0000 Du        
  20087 ****       113.2500 154.0000 139.2500 Du        
  20088 ****       113.2500 154.2500 138.7500 Du        
  20089 ****       113.2500 154.2500 139.0000 Du        
  20090 ****       113.2500 154.2500 139.2500 Du        
  20091 ****       113.2500 156.0000 107.0000 Du        
  20092 ****       113.2500 156.2500 106.7500 Du        
  20093 ****       113.2500 156.2500 107.0000 Du        
  20094 ****       113.2500 156.2500 107.2500 Du        
  20095 ****       113.2500 156.5000 106.7500 Du        
  20096 ****       113.2500 156.5000 107.0000 Du        
  20097 ****       113.2500 156.5000 107.2500 Du        
  20098 ****       113.2500 164.2500 139.2500 Du        
  20099 ****       113.2500 164.2500 139.5000 Du        
  20100 ****       113.2500 164.2500 139.7500 Du        
  20101 ****       113.2500 164.2500 140.0000 Du        
  20102 ****       113.2500 164.5000 139.2500 Du        
  20103 ****       113.2500 164.5000 139.5000 Du        
  20104 ****       113.2500 164.5000 139.7500 Du        
  20105 ****       113.2500 164.5000 140.0000 Du        
  20106 ****       113.2500 164.7500 139.0000 Du        
  20107 ****       113.2500 164.7500 139.2500 Du        
  20108 ****       113.2500 164.7500 139.5000 Du        
  20109 ****       113.2500 164.7500 139.7500 Du        
  20110 ****       113.2500 164.7500 140.0000 Du        
  20111 ****       113.2500 164.7500 140.2500 Du        
  20112 ****       113.2500 165.0000 138.7500 Du        
  20113 ****       113.2500 165.0000 139.0000 Du        
  20114 ****       113.2500 165.0000 139.2500 Du        
  20115 ****       113.2500 165.0000 139.5000 Du        
  20116 ****       113.2500 165.0000 139.7500 Du        
  20117 ****       113.2500 165.0000 140.0000 Du        
  20118 ****       113.2500 165.0000 140.2500 Du        
  20119 ****       113.2500 165.2500 138.7500 Du        
  20120 ****       113.2500 165.2500 139.0000 Du        
  20121 ****       113.2500 165.2500 139.2500 Du        
  20122 ****       113.2500 165.2500 139.5000 Du        
  20123 ****       113.2500 165.2500 139.7500 Du        
  20124 ****       113.2500 165.2500 140.0000 Du        
  20125 ****       113.2500 165.2500 140.2500 Du        
  20126 ****       113.2500 165.2500 140.5000 Du        
  20127 ****       113.2500 165.2500 140.7500 Du        
  20128 ****       113.2500 165.5000 138.5000 Du        
  20129 ****       113.2500 165.5000 138.7500 Du        
  20130 ****       113.2500 165.5000 139.0000 Du        
  20131 ****       113.2500 165.5000 139.2500 Du        
  20132 ****       113.2500 165.5000 139.5000 Du        
  20133 ****       113.2500 165.5000 139.7500 Du        
  20134 ****       113.2500 165.5000 140.0000 Du        
  20135 ****       113.2500 165.5000 140.2500 Du        
  20136 ****       113.2500 165.5000 140.5000 Du        
  20137 ****       113.2500 165.5000 140.7500 Du        
  20138 ****       113.2500 165.5000 141.0000 Du        
  20139 ****       113.2500 165.7500 138.2500 Du        
  20140 ****       113.2500 165.7500 138.5000 Du        
  20141 ****       113.2500 165.7500 138.7500 Du        
  20142 ****       113.2500 165.7500 139.0000 Du        
  20143 ****       113.2500 165.7500 139.2500 Du        
  20144 ****       113.2500 165.7500 139.5000 Du        
  20145 ****       113.2500 165.7500 139.7500 Du        
  20146 ****       113.2500 165.7500 140.0000 Du        
  20147 ****       113.2500 165.7500 140.2500 Du        
  20148 ****       113.2500 165.7500 140.5000 Du        
  20149 ****       113.2500 165.7500 140.7500 Du        
  20150 ****       113.2500 165.7500 141.0000 Du        
  20151 ****       113.2500 165.7500 141.2500 Du        
  20152 ****       113.2500 166.0000 138.0000 Du        
  20153 ****       113.2500 166.0000 138.2500 Du        
  20154 ****       113.2500 166.0000 138.5000 Du        
  20155 ****       113.2500 166.0000 138.7500 Du        
  20156 ****       113.2500 166.0000 139.0000 Du        
  20157 ****       113.2500 166.0000 139.2500 Du        
  20158 ****       113.2500 166.0000 139.5000 Du        
  20159 ****       113.2500 166.0000 139.7500 Du        
  20160 ****       113.2500 166.0000 140.0000 Du        
  20161 ****       113.2500 166.0000 140.2500 Du        
  20162 ****       113.2500 166.0000 140.5000 Du        
  20163 ****       113.2500 166.0000 140.7500 Du        
  20164 ****       113.2500 166.0000 141.0000 Du        
  20165 ****       113.2500 166.2500 137.7500 Du        
  20166 ****       113.2500 166.2500 138.0000 Du        
  20167 ****       113.2500 166.2500 138.2500 Du        
  20168 ****       113.2500 166.2500 138.5000 Du        
  20169 ****       113.2500 166.2500 138.7500 Du        
  20170 ****       113.2500 166.2500 139.0000 Du        
  20171 ****       113.2500 166.2500 139.2500 Du        
  20172 ****       113.2500 166.2500 139.5000 Du        
  20173 ****       113.2500 166.2500 139.7500 Du        
  20174 ****       113.2500 166.2500 140.0000 Du        
  20175 ****       113.2500 166.2500 140.2500 Du        
  20176 ****       113.2500 166.2500 140.5000 Du        
  20177 ****       113.2500 166.2500 140.7500 Du        
  20178 ****       113.2500 166.5000 137.5000 Du        
  20179 ****       113.2500 166.5000 137.7500 Du        
  20180 ****       113.2500 166.5000 138.0000 Du        
  20181 ****       113.2500 166.5000 138.2500 Du        
  20182 ****       113.2500 166.5000 138.5000 Du        
  20183 ****       113.2500 166.5000 138.7500 Du        
  20184 ****       113.2500 166.5000 139.0000 Du        
  20185 ****       113.2500 166.5000 139.2500 Du        
  20186 ****       113.2500 166.5000 139.5000 Du        
  20187 ****       113.2500 166.5000 139.7500 Du        
  20188 ****       113.2500 166.5000 140.0000 Du        
  20189 ****       113.2500 166.5000 140.2500 Du        
  20190 ****       113.2500 166.7500 137.2500 Du        
  20191 ****       113.2500 166.7500 137.5000 Du        
  20192 ****       113.2500 166.7500 137.7500 Du        
  20193 ****       113.2500 166.7500 138.0000 Du        
  20194 ****       113.2500 166.7500 138.2500 Du        
  20195 ****       113.2500 166.7500 138.5000 Du        
  20196 ****       113.2500 166.7500 138.7500 Du        
  20197 ****       113.2500 166.7500 139.0000 Du        
  20198 ****       113.2500 166.7500 139.2500 Du        
  20199 ****       113.2500 166.7500 139.5000 Du        
  20200 ****       113.2500 166.7500 139.7500 Du        
  20201 ****       113.2500 166.7500 140.0000 Du        
  20202 ****       113.2500 167.0000 137.5000 Du        
  20203 ****       113.2500 167.0000 137.7500 Du        
  20204 ****       113.2500 167.0000 138.0000 Du        
  20205 ****       113.2500 167.0000 138.2500 Du        
  20206 ****       113.2500 167.0000 138.5000 Du        
  20207 ****       113.2500 167.0000 138.7500 Du        
  20208 ****       113.2500 167.0000 139.0000 Du        
  20209 ****       113.2500 167.0000 139.2500 Du        
  20210 ****       113.2500 167.0000 139.5000 Du        
  20211 ****       113.2500 167.0000 139.7500 Du        
  20212 ****       113.2500 167.0000 140.0000 Du        
  20213 ****       113.2500 167.2500 137.7500 Du        
  20214 ****       113.2500 167.2500 138.0000 Du        
  20215 ****       113.2500 167.2500 138.2500 Du        
  20216 ****       113.2500 167.2500 138.5000 Du        
  20217 ****       113.2500 167.2500 138.7500 Du        
  20218 ****       113.2500 167.2500 139.0000 Du        
  20219 ****       113.2500 167.2500 139.2500 Du        
  20220 ****       113.2500 167.2500 139.5000 Du        
  20221 ****       113.2500 167.5000 138.5000 Du        
  20222 ****       113.2500 167.5000 138.7500 Du        
  20223 ****       113.2500 167.5000 139.0000 Du        
  20224 ****       113.5000 133.0000 113.2500 Du        
  20225 ****       113.5000 133.0000 113.5000 Du        
  20226 ****       113.5000 133.0000 113.7500 Du        
  20227 ****       113.5000 133.0000 114.0000 Du        
  20228 ****       113.5000 133.0000 114.2500 Du        
  20229 ****       113.5000 133.0000 114.5000 Du        
  20230 ****       113.5000 133.0000 114.7500 Du        
  20231 ****       113.5000 133.0000 115.0000 Du        
  20232 ****       113.5000 133.2500 113.7500 Du        
  20233 ****       113.5000 133.2500 114.0000 Du        
  20234 ****       113.5000 133.2500 114.2500 Du        
  20235 ****       113.5000 143.5000 122.7500 Du        
  20236 ****       113.5000 152.2500 138.7500 Du        
  20237 ****       113.5000 152.2500 139.0000 Du        
  20238 ****       113.5000 152.2500 139.2500 Du        
  20239 ****       113.5000 152.5000 138.5000 Du        
  20240 ****       113.5000 152.5000 138.7500 Du        
  20241 ****       113.5000 152.5000 139.0000 Du        
  20242 ****       113.5000 152.5000 139.2500 Du        
  20243 ****       113.5000 152.5000 139.5000 Du        
  20244 ****       113.5000 152.5000 139.7500 Du        
  20245 ****       113.5000 152.7500 138.2500 Du        
  20246 ****       113.5000 152.7500 138.5000 Du        
  20247 ****       113.5000 152.7500 138.7500 Du        
  20248 ****       113.5000 152.7500 139.0000 Du        
  20249 ****       113.5000 152.7500 139.2500 Du        
  20250 ****       113.5000 152.7500 139.5000 Du        
  20251 ****       113.5000 152.7500 139.7500 Du        
  20252 ****       113.5000 152.7500 140.0000 Du        
  20253 ****       113.5000 153.0000 138.0000 Du        
  20254 ****       113.5000 153.0000 138.2500 Du        
  20255 ****       113.5000 153.0000 138.5000 Du        
  20256 ****       113.5000 153.0000 138.7500 Du        
  20257 ****       113.5000 153.0000 139.0000 Du        
  20258 ****       113.5000 153.0000 139.2500 Du        
  20259 ****       113.5000 153.0000 139.5000 Du        
  20260 ****       113.5000 153.0000 139.7500 Du        
  20261 ****       113.5000 153.0000 140.0000 Du        
  20262 ****       113.5000 153.2500 137.7500 Du        
  20263 ****       113.5000 153.2500 138.0000 Du        
  20264 ****       113.5000 153.2500 138.2500 Du        
  20265 ****       113.5000 153.2500 138.5000 Du        
  20266 ****       113.5000 153.2500 138.7500 Du        
  20267 ****       113.5000 153.2500 139.0000 Du        
  20268 ****       113.5000 153.2500 139.2500 Du        
  20269 ****       113.5000 153.2500 139.5000 Du        
  20270 ****       113.5000 153.2500 139.7500 Du        
  20271 ****       113.5000 153.2500 140.0000 Du        
  20272 ****       113.5000 153.5000 138.0000 Du        
  20273 ****       113.5000 153.5000 138.2500 Du        
  20274 ****       113.5000 153.5000 138.5000 Du        
  20275 ****       113.5000 153.5000 138.7500 Du        
  20276 ****       113.5000 153.5000 139.0000 Du        
  20277 ****       113.5000 153.5000 139.2500 Du        
  20278 ****       113.5000 153.5000 139.5000 Du        
  20279 ****       113.5000 153.5000 139.7500 Du        
  20280 ****       113.5000 153.7500 138.2500 Du        
  20281 ****       113.5000 153.7500 138.5000 Du        
  20282 ****       113.5000 153.7500 138.7500 Du        
  20283 ****       113.5000 153.7500 139.0000 Du        
  20284 ****       113.5000 153.7500 139.2500 Du        
  20285 ****       113.5000 153.7500 139.5000 Du        
  20286 ****       113.5000 154.0000 138.5000 Du        
  20287 ****       113.5000 154.0000 138.7500 Du        
  20288 ****       113.5000 154.0000 139.0000 Du        
  20289 ****       113.5000 154.0000 139.2500 Du        
  20290 ****       113.5000 154.2500 138.7500 Du        
  20291 ****       113.5000 154.2500 139.0000 Du        
  20292 ****       113.5000 154.2500 139.2500 Du        
  20293 ****       113.5000 156.0000 107.0000 Du        
  20294 ****       113.5000 156.2500 106.7500 Du        
  20295 ****       113.5000 156.2500 107.0000 Du        
  20296 ****       113.5000 156.2500 107.2500 Du        
  20297 ****       113.5000 156.5000 106.7500 Du        
  20298 ****       113.5000 156.5000 107.0000 Du        
  20299 ****       113.5000 156.5000 107.2500 Du        
  20300 ****       113.5000 156.5000 107.5000 Du        
  20301 ****       113.5000 156.7500 107.0000 Du        
  20302 ****       113.5000 156.7500 107.2500 Du        
  20303 ****       113.5000 164.5000 139.2500 Du        
  20304 ****       113.5000 164.7500 139.0000 Du        
  20305 ****       113.5000 164.7500 139.2500 Du        
  20306 ****       113.5000 164.7500 139.5000 Du        
  20307 ****       113.5000 164.7500 139.7500 Du        
  20308 ****       113.5000 165.0000 139.0000 Du        
  20309 ****       113.5000 165.0000 139.2500 Du        
  20310 ****       113.5000 165.0000 139.5000 Du        
  20311 ****       113.5000 165.0000 139.7500 Du        
  20312 ****       113.5000 165.0000 140.0000 Du        
  20313 ****       113.5000 165.0000 140.2500 Du        
  20314 ****       113.5000 165.2500 138.7500 Du        
  20315 ****       113.5000 165.2500 139.0000 Du        
  20316 ****       113.5000 165.2500 139.2500 Du        
  20317 ****       113.5000 165.2500 139.5000 Du        
  20318 ****       113.5000 165.2500 139.7500 Du        
  20319 ****       113.5000 165.2500 140.0000 Du        
  20320 ****       113.5000 165.2500 140.2500 Du        
  20321 ****       113.5000 165.5000 138.5000 Du        
  20322 ****       113.5000 165.5000 138.7500 Du        
  20323 ****       113.5000 165.5000 139.0000 Du        
  20324 ****       113.5000 165.5000 139.2500 Du        
  20325 ****       113.5000 165.5000 139.5000 Du        
  20326 ****       113.5000 165.5000 139.7500 Du        
  20327 ****       113.5000 165.5000 140.0000 Du        
  20328 ****       113.5000 165.5000 140.2500 Du        
  20329 ****       113.5000 165.5000 140.5000 Du        
  20330 ****       113.5000 165.5000 140.7500 Du        
  20331 ****       113.5000 165.5000 141.0000 Du        
  20332 ****       113.5000 165.5000 141.2500 Du        
  20333 ****       113.5000 165.7500 138.2500 Du        
  20334 ****       113.5000 165.7500 138.5000 Du        
  20335 ****       113.5000 165.7500 138.7500 Du        
  20336 ****       113.5000 165.7500 139.0000 Du        
  20337 ****       113.5000 165.7500 139.2500 Du        
  20338 ****       113.5000 165.7500 139.5000 Du        
  20339 ****       113.5000 165.7500 139.7500 Du        
  20340 ****       113.5000 165.7500 140.0000 Du        
  20341 ****       113.5000 165.7500 140.2500 Du        
  20342 ****       113.5000 165.7500 140.5000 Du        
  20343 ****       113.5000 165.7500 140.7500 Du        
  20344 ****       113.5000 165.7500 141.0000 Du        
  20345 ****       113.5000 165.7500 141.2500 Du        
  20346 ****       113.5000 166.0000 138.0000 Du        
  20347 ****       113.5000 166.0000 138.2500 Du        
  20348 ****       113.5000 166.0000 138.5000 Du        
  20349 ****       113.5000 166.0000 138.7500 Du        
  20350 ****       113.5000 166.0000 139.0000 Du        
  20351 ****       113.5000 166.0000 139.2500 Du        
  20352 ****       113.5000 166.0000 139.5000 Du        
  20353 ****       113.5000 166.0000 139.7500 Du        
  20354 ****       113.5000 166.0000 140.0000 Du        
  20355 ****       113.5000 166.0000 140.2500 Du        
  20356 ****       113.5000 166.0000 140.5000 Du        
  20357 ****       113.5000 166.0000 140.7500 Du        
  20358 ****       113.5000 166.0000 141.0000 Du        
  20359 ****       113.5000 166.0000 141.2500 Du        
  20360 ****       113.5000 166.2500 137.7500 Du        
  20361 ****       113.5000 166.2500 138.0000 Du        
  20362 ****       113.5000 166.2500 138.2500 Du        
  20363 ****       113.5000 166.2500 138.5000 Du        
  20364 ****       113.5000 166.2500 138.7500 Du        
  20365 ****       113.5000 166.2500 139.0000 Du        
  20366 ****       113.5000 166.2500 139.2500 Du        
  20367 ****       113.5000 166.2500 139.5000 Du        
  20368 ****       113.5000 166.2500 139.7500 Du        
  20369 ****       113.5000 166.2500 140.0000 Du        
  20370 ****       113.5000 166.2500 140.2500 Du        
  20371 ****       113.5000 166.2500 140.5000 Du        
  20372 ****       113.5000 166.2500 140.7500 Du        
  20373 ****       113.5000 166.5000 137.5000 Du        
  20374 ****       113.5000 166.5000 137.7500 Du        
  20375 ****       113.5000 166.5000 138.0000 Du        
  20376 ****       113.5000 166.5000 138.2500 Du        
  20377 ****       113.5000 166.5000 138.5000 Du        
  20378 ****       113.5000 166.5000 138.7500 Du        
  20379 ****       113.5000 166.5000 139.0000 Du        
  20380 ****       113.5000 166.5000 139.2500 Du        
  20381 ****       113.5000 166.5000 139.5000 Du        
  20382 ****       113.5000 166.5000 139.7500 Du        
  20383 ****       113.5000 166.5000 140.0000 Du        
  20384 ****       113.5000 166.5000 140.2500 Du        
  20385 ****       113.5000 166.7500 137.5000 Du        
  20386 ****       113.5000 166.7500 137.7500 Du        
  20387 ****       113.5000 166.7500 138.0000 Du        
  20388 ****       113.5000 166.7500 138.2500 Du        
  20389 ****       113.5000 166.7500 138.5000 Du        
  20390 ****       113.5000 166.7500 138.7500 Du        
  20391 ****       113.5000 166.7500 139.0000 Du        
  20392 ****       113.5000 166.7500 139.2500 Du        
  20393 ****       113.5000 166.7500 139.5000 Du        
  20394 ****       113.5000 166.7500 139.7500 Du        
  20395 ****       113.5000 166.7500 140.0000 Du        
  20396 ****       113.5000 167.0000 137.7500 Du        
  20397 ****       113.5000 167.0000 138.0000 Du        
  20398 ****       113.5000 167.0000 138.2500 Du        
  20399 ****       113.5000 167.0000 138.5000 Du        
  20400 ****       113.5000 167.0000 138.7500 Du        
  20401 ****       113.5000 167.0000 139.0000 Du        
  20402 ****       113.5000 167.0000 139.2500 Du        
  20403 ****       113.5000 167.0000 139.5000 Du        
  20404 ****       113.5000 167.0000 139.7500 Du        
  20405 ****       113.5000 167.2500 138.2500 Du        
  20406 ****       113.5000 167.2500 138.5000 Du        
  20407 ****       113.5000 167.2500 138.7500 Du        
  20408 ****       113.5000 167.2500 139.0000 Du        
  20409 ****       113.5000 167.2500 139.2500 Du        
  20410 ****       113.7500 133.0000 113.2500 Du        
  20411 ****       113.7500 133.0000 113.5000 Du        
  20412 ****       113.7500 133.0000 113.7500 Du        
  20413 ****       113.7500 133.0000 114.0000 Du        
  20414 ****       113.7500 133.0000 114.2500 Du        
  20415 ****       113.7500 133.0000 114.5000 Du        
  20416 ****       113.7500 133.0000 114.7500 Du        
  20417 ****       113.7500 133.0000 115.0000 Du        
  20418 ****       113.7500 133.2500 113.5000 Du        
  20419 ****       113.7500 133.2500 113.7500 Du        
  20420 ****       113.7500 133.2500 114.0000 Du        
  20421 ****       113.7500 133.2500 114.2500 Du        
  20422 ****       113.7500 133.2500 114.5000 Du        
  20423 ****       113.7500 133.2500 114.7500 Du        
  20424 ****       113.7500 139.7500 137.2500 Du        
  20425 ****       113.7500 146.7500 106.0000 Du        
  20426 ****       113.7500 146.7500 106.2500 Du        
  20427 ****       113.7500 146.7500 106.5000 Du        
  20428 ****       113.7500 147.0000 106.0000 Du        
  20429 ****       113.7500 147.0000 106.2500 Du        
  20430 ****       113.7500 147.0000 106.5000 Du        
  20431 ****       113.7500 147.0000 106.7500 Du        
  20432 ****       113.7500 147.2500 106.0000 Du        
  20433 ****       113.7500 147.2500 106.2500 Du        
  20434 ****       113.7500 147.2500 106.5000 Du        
  20435 ****       113.7500 147.2500 106.7500 Du        
  20436 ****       113.7500 147.5000 106.0000 Du        
  20437 ****       113.7500 147.5000 106.2500 Du        
  20438 ****       113.7500 147.5000 106.5000 Du        
  20439 ****       113.7500 147.7500 106.0000 Du        
  20440 ****       113.7500 147.7500 106.2500 Du        
  20441 ****       113.7500 152.0000 139.0000 Du        
  20442 ****       113.7500 152.0000 139.2500 Du        
  20443 ****       113.7500 152.2500 138.5000 Du        
  20444 ****       113.7500 152.2500 138.7500 Du        
  20445 ****       113.7500 152.2500 139.0000 Du        
  20446 ****       113.7500 152.2500 139.2500 Du        
  20447 ****       113.7500 152.5000 138.0000 Du        
  20448 ****       113.7500 152.5000 138.2500 Du        
  20449 ****       113.7500 152.5000 138.5000 Du        
  20450 ****       113.7500 152.5000 138.7500 Du        
  20451 ****       113.7500 152.5000 139.0000 Du        
  20452 ****       113.7500 152.5000 139.2500 Du        
  20453 ****       113.7500 152.5000 139.5000 Du        
  20454 ****       113.7500 152.7500 137.7500 Du        
  20455 ****       113.7500 152.7500 138.0000 Du        
  20456 ****       113.7500 152.7500 138.2500 Du        
  20457 ****       113.7500 152.7500 138.5000 Du        
  20458 ****       113.7500 152.7500 138.7500 Du        
  20459 ****       113.7500 152.7500 139.0000 Du        
  20460 ****       113.7500 152.7500 139.2500 Du        
  20461 ****       113.7500 152.7500 139.5000 Du        
  20462 ****       113.7500 152.7500 139.7500 Du        
  20463 ****       113.7500 152.7500 140.0000 Du        
  20464 ****       113.7500 153.0000 137.5000 Du        
  20465 ****       113.7500 153.0000 137.7500 Du        
  20466 ****       113.7500 153.0000 138.0000 Du        
  20467 ****       113.7500 153.0000 138.2500 Du        
  20468 ****       113.7500 153.0000 138.5000 Du        
  20469 ****       113.7500 153.0000 138.7500 Du        
  20470 ****       113.7500 153.0000 139.0000 Du        
  20471 ****       113.7500 153.0000 139.2500 Du        
  20472 ****       113.7500 153.0000 139.5000 Du        
  20473 ****       113.7500 153.0000 139.7500 Du        
  20474 ****       113.7500 153.0000 140.0000 Du        
  20475 ****       113.7500 153.2500 137.5000 Du        
  20476 ****       113.7500 153.2500 137.7500 Du        
  20477 ****       113.7500 153.2500 138.0000 Du        
  20478 ****       113.7500 153.2500 138.2500 Du        
  20479 ****       113.7500 153.2500 138.5000 Du        
  20480 ****       113.7500 153.2500 138.7500 Du        
  20481 ****       113.7500 153.2500 139.0000 Du        
  20482 ****       113.7500 153.2500 139.2500 Du        
  20483 ****       113.7500 153.2500 139.5000 Du        
  20484 ****       113.7500 153.2500 139.7500 Du        
  20485 ****       113.7500 153.2500 140.0000 Du        
  20486 ****       113.7500 153.5000 137.7500 Du        
  20487 ****       113.7500 153.5000 138.0000 Du        
  20488 ****       113.7500 153.5000 138.2500 Du        
  20489 ****       113.7500 153.5000 138.5000 Du        
  20490 ****       113.7500 153.5000 138.7500 Du        
  20491 ****       113.7500 153.5000 139.0000 Du        
  20492 ****       113.7500 153.5000 139.2500 Du        
  20493 ****       113.7500 153.5000 139.5000 Du        
  20494 ****       113.7500 153.5000 139.7500 Du        
  20495 ****       113.7500 153.7500 138.0000 Du        
  20496 ****       113.7500 153.7500 138.2500 Du        
  20497 ****       113.7500 153.7500 138.5000 Du        
  20498 ****       113.7500 153.7500 138.7500 Du        
  20499 ****       113.7500 153.7500 139.0000 Du        
  20500 ****       113.7500 153.7500 139.2500 Du        
  20501 ****       113.7500 153.7500 139.5000 Du        
  20502 ****       113.7500 154.0000 138.2500 Du        
  20503 ****       113.7500 154.0000 138.5000 Du        
  20504 ****       113.7500 154.0000 138.7500 Du        
  20505 ****       113.7500 154.0000 139.0000 Du        
  20506 ****       113.7500 154.0000 139.2500 Du        
  20507 ****       113.7500 154.0000 139.5000 Du        
  20508 ****       113.7500 154.2500 138.7500 Du        
  20509 ****       113.7500 154.2500 139.0000 Du        
  20510 ****       113.7500 154.2500 139.2500 Du        
  20511 ****       113.7500 156.0000 107.0000 Du        
  20512 ****       113.7500 156.0000 107.2500 Du        
  20513 ****       113.7500 156.2500 106.7500 Du        
  20514 ****       113.7500 156.2500 107.0000 Du        
  20515 ****       113.7500 156.2500 107.2500 Du        
  20516 ****       113.7500 156.2500 107.5000 Du        
  20517 ****       113.7500 156.5000 106.7500 Du        
  20518 ****       113.7500 156.5000 107.0000 Du        
  20519 ****       113.7500 156.5000 107.2500 Du        
  20520 ****       113.7500 156.5000 107.5000 Du        
  20521 ****       113.7500 156.5000 107.7500 Du        
  20522 ****       113.7500 156.7500 106.7500 Du        
  20523 ****       113.7500 156.7500 107.0000 Du        
  20524 ****       113.7500 156.7500 107.2500 Du        
  20525 ****       113.7500 156.7500 107.5000 Du        
  20526 ****       113.7500 156.7500 107.7500 Du        
  20527 ****       113.7500 160.2500 144.7500 Du        
  20528 ****       113.7500 164.7500 139.0000 Du        
  20529 ****       113.7500 164.7500 139.2500 Du        
  20530 ****       113.7500 165.0000 139.0000 Du        
  20531 ****       113.7500 165.0000 139.2500 Du        
  20532 ****       113.7500 165.0000 139.5000 Du        
  20533 ****       113.7500 165.2500 138.7500 Du        
  20534 ****       113.7500 165.2500 139.0000 Du        
  20535 ****       113.7500 165.2500 139.2500 Du        
  20536 ****       113.7500 165.2500 139.5000 Du        
  20537 ****       113.7500 165.2500 139.7500 Du        
  20538 ****       113.7500 165.2500 140.0000 Du        
  20539 ****       113.7500 165.5000 138.5000 Du        
  20540 ****       113.7500 165.5000 138.7500 Du        
  20541 ****       113.7500 165.5000 139.0000 Du        
  20542 ****       113.7500 165.5000 139.2500 Du        
  20543 ****       113.7500 165.5000 139.5000 Du        
  20544 ****       113.7500 165.5000 139.7500 Du        
  20545 ****       113.7500 165.5000 140.0000 Du        
  20546 ****       113.7500 165.5000 140.2500 Du        
  20547 ****       113.7500 165.5000 141.2500 Du        
  20548 ****       113.7500 165.7500 138.2500 Du        
  20549 ****       113.7500 165.7500 138.5000 Du        
  20550 ****       113.7500 165.7500 138.7500 Du        
  20551 ****       113.7500 165.7500 139.0000 Du        
  20552 ****       113.7500 165.7500 139.2500 Du        
  20553 ****       113.7500 165.7500 139.5000 Du        
  20554 ****       113.7500 165.7500 139.7500 Du        
  20555 ****       113.7500 165.7500 140.0000 Du        
  20556 ****       113.7500 165.7500 140.2500 Du        
  20557 ****       113.7500 165.7500 140.5000 Du        
  20558 ****       113.7500 165.7500 140.7500 Du        
  20559 ****       113.7500 165.7500 141.0000 Du        
  20560 ****       113.7500 165.7500 141.2500 Du        
  20561 ****       113.7500 165.7500 141.7500 Du        
  20562 ****       113.7500 166.0000 138.0000 Du        
  20563 ****       113.7500 166.0000 138.2500 Du        
  20564 ****       113.7500 166.0000 138.5000 Du        
  20565 ****       113.7500 166.0000 138.7500 Du        
  20566 ****       113.7500 166.0000 139.0000 Du        
  20567 ****       113.7500 166.0000 139.2500 Du        
  20568 ****       113.7500 166.0000 139.5000 Du        
  20569 ****       113.7500 166.0000 139.7500 Du        
  20570 ****       113.7500 166.0000 140.0000 Du        
  20571 ****       113.7500 166.0000 140.2500 Du        
  20572 ****       113.7500 166.0000 140.5000 Du        
  20573 ****       113.7500 166.0000 140.7500 Du        
  20574 ****       113.7500 166.0000 141.0000 Du        
  20575 ****       113.7500 166.0000 141.2500 Du        
  20576 ****       113.7500 166.2500 137.7500 Du        
  20577 ****       113.7500 166.2500 138.0000 Du        
  20578 ****       113.7500 166.2500 138.2500 Du        
  20579 ****       113.7500 166.2500 138.5000 Du        
  20580 ****       113.7500 166.2500 138.7500 Du        
  20581 ****       113.7500 166.2500 139.0000 Du        
  20582 ****       113.7500 166.2500 139.2500 Du        
  20583 ****       113.7500 166.2500 139.5000 Du        
  20584 ****       113.7500 166.2500 139.7500 Du        
  20585 ****       113.7500 166.2500 140.0000 Du        
  20586 ****       113.7500 166.2500 140.2500 Du        
  20587 ****       113.7500 166.2500 140.5000 Du        
  20588 ****       113.7500 166.5000 137.7500 Du        
  20589 ****       113.7500 166.5000 138.0000 Du        
  20590 ****       113.7500 166.5000 138.2500 Du        
  20591 ****       113.7500 166.5000 138.5000 Du        
  20592 ****       113.7500 166.5000 138.7500 Du        
  20593 ****       113.7500 166.5000 139.0000 Du        
  20594 ****       113.7500 166.5000 139.2500 Du        
  20595 ****       113.7500 166.5000 139.5000 Du        
  20596 ****       113.7500 166.5000 139.7500 Du        
  20597 ****       113.7500 166.5000 140.0000 Du        
  20598 ****       113.7500 166.5000 140.2500 Du        
  20599 ****       113.7500 166.7500 137.7500 Du        
  20600 ****       113.7500 166.7500 138.0000 Du        
  20601 ****       113.7500 166.7500 138.2500 Du        
  20602 ****       113.7500 166.7500 138.5000 Du        
  20603 ****       113.7500 166.7500 138.7500 Du        
  20604 ****       113.7500 166.7500 139.0000 Du        
  20605 ****       113.7500 166.7500 139.2500 Du        
  20606 ****       113.7500 166.7500 139.5000 Du        
  20607 ****       113.7500 166.7500 139.7500 Du        
  20608 ****       113.7500 167.0000 138.0000 Du        
  20609 ****       113.7500 167.0000 138.2500 Du        
  20610 ****       113.7500 167.0000 138.5000 Du        
  20611 ****       113.7500 167.0000 138.7500 Du        
  20612 ****       113.7500 167.0000 139.0000 Du        
  20613 ****       113.7500 167.0000 139.2500 Du        
  20614 ****       113.7500 167.0000 139.5000 Du        
  20615 ****       114.0000 133.0000 113.5000 Du        
  20616 ****       114.0000 133.0000 113.7500 Du        
  20617 ****       114.0000 133.0000 114.0000 Du        
  20618 ****       114.0000 133.0000 114.2500 Du        
  20619 ****       114.0000 133.0000 114.5000 Du        
  20620 ****       114.0000 133.0000 114.7500 Du        
  20621 ****       114.0000 133.0000 115.0000 Du        
  20622 ****       114.0000 133.2500 113.5000 Du        
  20623 ****       114.0000 133.2500 113.7500 Du        
  20624 ****       114.0000 133.2500 114.0000 Du        
  20625 ****       114.0000 133.2500 114.2500 Du        
  20626 ****       114.0000 133.2500 114.5000 Du        
  20627 ****       114.0000 133.2500 114.7500 Du        
  20628 ****       114.0000 133.2500 115.0000 Du        
  20629 ****       114.0000 133.5000 114.0000 Du        
  20630 ****       114.0000 133.5000 114.2500 Du        
  20631 ****       114.0000 133.5000 114.5000 Du        
  20632 ****       114.0000 133.5000 114.7500 Du        
  20633 ****       114.0000 139.7500 137.2500 Du        
  20634 ****       114.0000 146.7500 106.0000 Du        
  20635 ****       114.0000 146.7500 106.2500 Du        
  20636 ****       114.0000 146.7500 106.5000 Du        
  20637 ****       114.0000 146.7500 106.7500 Du        
  20638 ****       114.0000 146.7500 107.0000 Du        
  20639 ****       114.0000 147.0000 106.0000 Du        
  20640 ****       114.0000 147.0000 106.2500 Du        
  20641 ****       114.0000 147.0000 106.5000 Du        
  20642 ****       114.0000 147.0000 106.7500 Du        
  20643 ****       114.0000 147.0000 107.0000 Du        
  20644 ****       114.0000 147.2500 106.0000 Du        
  20645 ****       114.0000 147.2500 106.2500 Du        
  20646 ****       114.0000 147.2500 106.5000 Du        
  20647 ****       114.0000 147.2500 106.7500 Du        
  20648 ****       114.0000 147.2500 107.0000 Du        
  20649 ****       114.0000 147.5000 106.0000 Du        
  20650 ****       114.0000 147.5000 106.2500 Du        
  20651 ****       114.0000 147.5000 106.5000 Du        
  20652 ****       114.0000 147.5000 106.7500 Du        
  20653 ****       114.0000 147.5000 107.0000 Du        
  20654 ****       114.0000 147.7500 106.0000 Du        
  20655 ****       114.0000 147.7500 106.2500 Du        
  20656 ****       114.0000 147.7500 106.5000 Du        
  20657 ****       114.0000 147.7500 106.7500 Du        
  20658 ****       114.0000 147.7500 107.0000 Du        
  20659 ****       114.0000 148.0000 106.0000 Du        
  20660 ****       114.0000 148.0000 106.2500 Du        
  20661 ****       114.0000 148.0000 106.5000 Du        
  20662 ****       114.0000 148.0000 106.7500 Du        
  20663 ****       114.0000 148.0000 107.0000 Du        
  20664 ****       114.0000 148.2500 106.0000 Du        
  20665 ****       114.0000 148.2500 106.2500 Du        
  20666 ****       114.0000 148.2500 106.5000 Du        
  20667 ****       114.0000 148.2500 106.7500 Du        
  20668 ****       114.0000 148.2500 107.0000 Du        
  20669 ****       114.0000 148.5000 106.7500 Du        
  20670 ****       114.0000 148.5000 107.0000 Du        
  20671 ****       114.0000 152.0000 138.7500 Du        
  20672 ****       114.0000 152.0000 139.0000 Du        
  20673 ****       114.0000 152.0000 139.2500 Du        
  20674 ****       114.0000 152.2500 138.2500 Du        
  20675 ****       114.0000 152.2500 138.5000 Du        
  20676 ****       114.0000 152.2500 138.7500 Du        
  20677 ****       114.0000 152.2500 139.0000 Du        
  20678 ****       114.0000 152.2500 139.2500 Du        
  20679 ****       114.0000 152.5000 138.0000 Du        
  20680 ****       114.0000 152.5000 138.2500 Du        
  20681 ****       114.0000 152.5000 138.5000 Du        
  20682 ****       114.0000 152.5000 138.7500 Du        
  20683 ****       114.0000 152.5000 139.0000 Du        
  20684 ****       114.0000 152.5000 139.2500 Du        
  20685 ****       114.0000 152.5000 139.5000 Du        
  20686 ****       114.0000 152.7500 137.5000 Du        
  20687 ****       114.0000 152.7500 137.7500 Du        
  20688 ****       114.0000 152.7500 138.0000 Du        
  20689 ****       114.0000 152.7500 138.2500 Du        
  20690 ****       114.0000 152.7500 138.5000 Du        
  20691 ****       114.0000 152.7500 138.7500 Du        
  20692 ****       114.0000 152.7500 139.0000 Du        
  20693 ****       114.0000 152.7500 139.2500 Du        
  20694 ****       114.0000 152.7500 139.5000 Du        
  20695 ****       114.0000 152.7500 139.7500 Du        
  20696 ****       114.0000 153.0000 137.2500 Du        
  20697 ****       114.0000 153.0000 137.5000 Du        
  20698 ****       114.0000 153.0000 137.7500 Du        
  20699 ****       114.0000 153.0000 138.0000 Du        
  20700 ****       114.0000 153.0000 138.2500 Du        
  20701 ****       114.0000 153.0000 138.5000 Du        
  20702 ****       114.0000 153.0000 138.7500 Du        
  20703 ****       114.0000 153.0000 139.0000 Du        
  20704 ****       114.0000 153.0000 139.2500 Du        
  20705 ****       114.0000 153.0000 139.5000 Du        
  20706 ****       114.0000 153.0000 139.7500 Du        
  20707 ****       114.0000 153.0000 140.0000 Du        
  20708 ****       114.0000 153.2500 137.2500 Du        
  20709 ****       114.0000 153.2500 137.5000 Du        
  20710 ****       114.0000 153.2500 137.7500 Du        
  20711 ****       114.0000 153.2500 138.0000 Du        
  20712 ****       114.0000 153.2500 138.2500 Du        
  20713 ****       114.0000 153.2500 138.5000 Du        
  20714 ****       114.0000 153.2500 138.7500 Du        
  20715 ****       114.0000 153.2500 139.0000 Du        
  20716 ****       114.0000 153.2500 139.2500 Du        
  20717 ****       114.0000 153.2500 139.5000 Du        
  20718 ****       114.0000 153.2500 139.7500 Du        
  20719 ****       114.0000 153.2500 140.0000 Du        
  20720 ****       114.0000 153.5000 137.2500 Du        
  20721 ****       114.0000 153.5000 137.5000 Du        
  20722 ****       114.0000 153.5000 137.7500 Du        
  20723 ****       114.0000 153.5000 138.0000 Du        
  20724 ****       114.0000 153.5000 138.2500 Du        
  20725 ****       114.0000 153.5000 138.5000 Du        
  20726 ****       114.0000 153.5000 138.7500 Du        
  20727 ****       114.0000 153.5000 139.0000 Du        
  20728 ****       114.0000 153.5000 139.2500 Du        
  20729 ****       114.0000 153.5000 139.5000 Du        
  20730 ****       114.0000 153.5000 139.7500 Du        
  20731 ****       114.0000 153.7500 137.7500 Du        
  20732 ****       114.0000 153.7500 138.0000 Du        
  20733 ****       114.0000 153.7500 138.2500 Du        
  20734 ****       114.0000 153.7500 138.5000 Du        
  20735 ****       114.0000 153.7500 138.7500 Du        
  20736 ****       114.0000 153.7500 139.0000 Du        
  20737 ****       114.0000 153.7500 139.2500 Du        
  20738 ****       114.0000 153.7500 139.5000 Du        
  20739 ****       114.0000 153.7500 139.7500 Du        
  20740 ****       114.0000 154.0000 138.2500 Du        
  20741 ****       114.0000 154.0000 138.5000 Du        
  20742 ****       114.0000 154.0000 138.7500 Du        
  20743 ****       114.0000 154.0000 139.0000 Du        
  20744 ****       114.0000 154.0000 139.2500 Du        
  20745 ****       114.0000 154.0000 139.5000 Du        
  20746 ****       114.0000 154.2500 138.5000 Du        
  20747 ****       114.0000 154.2500 138.7500 Du        
  20748 ****       114.0000 154.2500 139.0000 Du        
  20749 ****       114.0000 154.2500 139.2500 Du        
  20750 ****       114.0000 154.5000 139.0000 Du        
  20751 ****       114.0000 155.7500 107.0000 Du        
  20752 ****       114.0000 156.0000 106.7500 Du        
  20753 ****       114.0000 156.0000 107.0000 Du        
  20754 ****       114.0000 156.0000 107.2500 Du        
  20755 ****       114.0000 156.0000 107.5000 Du        
  20756 ****       114.0000 156.2500 106.7500 Du        
  20757 ****       114.0000 156.2500 107.0000 Du        
  20758 ****       114.0000 156.2500 107.2500 Du        
  20759 ****       114.0000 156.2500 107.5000 Du        
  20760 ****       114.0000 156.2500 107.7500 Du        
  20761 ****       114.0000 156.5000 106.5000 Du        
  20762 ****       114.0000 156.5000 106.7500 Du        
  20763 ****       114.0000 156.5000 107.0000 Du        
  20764 ****       114.0000 156.5000 107.2500 Du        
  20765 ****       114.0000 156.5000 107.5000 Du        
  20766 ****       114.0000 156.5000 107.7500 Du        
  20767 ****       114.0000 156.5000 108.0000 Du        
  20768 ****       114.0000 156.7500 106.5000 Du        
  20769 ****       114.0000 156.7500 106.7500 Du        
  20770 ****       114.0000 156.7500 107.0000 Du        
  20771 ****       114.0000 156.7500 107.2500 Du        
  20772 ****       114.0000 156.7500 107.5000 Du        
  20773 ****       114.0000 156.7500 107.7500 Du        
  20774 ****       114.0000 156.7500 108.0000 Du        
  20775 ****       114.0000 157.0000 106.7500 Du        
  20776 ****       114.0000 157.0000 107.0000 Du        
  20777 ****       114.0000 157.0000 107.2500 Du        
  20778 ****       114.0000 157.0000 107.5000 Du        
  20779 ****       114.0000 157.0000 107.7500 Du        
  20780 ****       114.0000 157.0000 108.0000 Du        
  20781 ****       114.0000 160.0000 144.7500 Du        
  20782 ****       114.0000 160.0000 145.0000 Du        
  20783 ****       114.0000 160.2500 144.5000 Du        
  20784 ****       114.0000 160.2500 144.7500 Du        
  20785 ****       114.0000 160.2500 145.0000 Du        
  20786 ****       114.0000 160.5000 144.7500 Du        
  20787 ****       114.0000 160.5000 145.0000 Du        
  20788 ****       114.0000 160.7500 144.7500 Du        
  20789 ****       114.0000 160.7500 145.0000 Du        
  20790 ****       114.0000 165.0000 139.0000 Du        
  20791 ****       114.0000 165.0000 139.2500 Du        
  20792 ****       114.0000 165.2500 138.7500 Du        
  20793 ****       114.0000 165.2500 139.0000 Du        
  20794 ****       114.0000 165.2500 139.2500 Du        
  20795 ****       114.0000 165.2500 139.5000 Du        
  20796 ****       114.0000 165.5000 138.5000 Du        
  20797 ****       114.0000 165.5000 138.7500 Du        
  20798 ****       114.0000 165.5000 139.0000 Du        
  20799 ****       114.0000 165.5000 139.2500 Du        
  20800 ****       114.0000 165.5000 139.5000 Du        
  20801 ****       114.0000 165.5000 139.7500 Du        
  20802 ****       114.0000 165.5000 140.0000 Du        
  20803 ****       114.0000 165.7500 138.2500 Du        
  20804 ****       114.0000 165.7500 138.5000 Du        
  20805 ****       114.0000 165.7500 138.7500 Du        
  20806 ****       114.0000 165.7500 139.0000 Du        
  20807 ****       114.0000 165.7500 139.2500 Du        
  20808 ****       114.0000 165.7500 139.5000 Du        
  20809 ****       114.0000 165.7500 139.7500 Du        
  20810 ****       114.0000 165.7500 140.0000 Du        
  20811 ****       114.0000 165.7500 140.2500 Du        
  20812 ****       114.0000 166.0000 138.0000 Du        
  20813 ****       114.0000 166.0000 138.2500 Du        
  20814 ****       114.0000 166.0000 138.5000 Du        
  20815 ****       114.0000 166.0000 138.7500 Du        
  20816 ****       114.0000 166.0000 139.0000 Du        
  20817 ****       114.0000 166.0000 139.2500 Du        
  20818 ****       114.0000 166.0000 139.5000 Du        
  20819 ****       114.0000 166.0000 139.7500 Du        
  20820 ****       114.0000 166.0000 140.0000 Du        
  20821 ****       114.0000 166.0000 140.2500 Du        
  20822 ****       114.0000 166.2500 137.7500 Du        
  20823 ****       114.0000 166.2500 138.0000 Du        
  20824 ****       114.0000 166.2500 138.2500 Du        
  20825 ****       114.0000 166.2500 138.5000 Du        
  20826 ****       114.0000 166.2500 138.7500 Du        
  20827 ****       114.0000 166.2500 139.0000 Du        
  20828 ****       114.0000 166.2500 139.2500 Du        
  20829 ****       114.0000 166.2500 139.5000 Du        
  20830 ****       114.0000 166.2500 139.7500 Du        
  20831 ****       114.0000 166.2500 140.0000 Du        
  20832 ****       114.0000 166.2500 140.2500 Du        
  20833 ****       114.0000 166.5000 137.7500 Du        
  20834 ****       114.0000 166.5000 138.0000 Du        
  20835 ****       114.0000 166.5000 138.2500 Du        
  20836 ****       114.0000 166.5000 138.5000 Du        
  20837 ****       114.0000 166.5000 138.7500 Du        
  20838 ****       114.0000 166.5000 139.0000 Du        
  20839 ****       114.0000 166.5000 139.2500 Du        
  20840 ****       114.0000 166.5000 139.5000 Du        
  20841 ****       114.0000 166.5000 139.7500 Du        
  20842 ****       114.0000 166.5000 140.0000 Du        
  20843 ****       114.0000 166.7500 138.0000 Du        
  20844 ****       114.0000 166.7500 138.2500 Du        
  20845 ****       114.0000 166.7500 138.5000 Du        
  20846 ****       114.0000 166.7500 138.7500 Du        
  20847 ****       114.0000 166.7500 139.0000 Du        
  20848 ****       114.0000 166.7500 139.2500 Du        
  20849 ****       114.0000 166.7500 139.5000 Du        
  20850 ****       114.0000 167.0000 138.5000 Du        
  20851 ****       114.0000 167.0000 138.7500 Du        
  20852 ****       114.0000 167.0000 139.0000 Du        
  20853 ****       114.0000 167.0000 139.2500 Du        
  20854 ****       114.2500 133.0000 113.5000 Du        
  20855 ****       114.2500 133.0000 113.7500 Du        
  20856 ****       114.2500 133.0000 114.0000 Du        
  20857 ****       114.2500 133.0000 114.2500 Du        
  20858 ****       114.2500 133.0000 114.5000 Du        
  20859 ****       114.2500 133.0000 114.7500 Du        
  20860 ****       114.2500 133.2500 113.7500 Du        
  20861 ****       114.2500 133.2500 114.0000 Du        
  20862 ****       114.2500 133.2500 114.2500 Du        
  20863 ****       114.2500 133.2500 114.5000 Du        
  20864 ****       114.2500 133.2500 114.7500 Du        
  20865 ****       114.2500 133.2500 115.0000 Du        
  20866 ****       114.2500 133.5000 114.0000 Du        
  20867 ****       114.2500 133.5000 114.2500 Du        
  20868 ****       114.2500 133.5000 114.5000 Du        
  20869 ****       114.2500 133.5000 114.7500 Du        
  20870 ****       114.2500 133.5000 115.0000 Du        
  20871 ****       114.2500 134.5000 121.2500 Du        
  20872 ****       114.2500 134.7500 121.2500 Du        
  20873 ****       114.2500 135.0000 121.2500 Du        
  20874 ****       114.2500 135.2500 121.0000 Du        
  20875 ****       114.2500 135.2500 121.2500 Du        
  20876 ****       114.2500 135.5000 121.0000 Du        
  20877 ****       114.2500 135.5000 121.2500 Du        
  20878 ****       114.2500 135.7500 120.7500 Du        
  20879 ****       114.2500 135.7500 121.0000 Du        
  20880 ****       114.2500 135.7500 121.2500 Du        
  20881 ****       114.2500 136.0000 120.7500 Du        
  20882 ****       114.2500 136.0000 121.0000 Du        
  20883 ****       114.2500 136.0000 121.2500 Du        
  20884 ****       114.2500 136.2500 120.7500 Du        
  20885 ****       114.2500 136.2500 121.0000 Du        
  20886 ****       114.2500 136.2500 121.2500 Du        
  20887 ****       114.2500 146.5000 106.0000 Du        
  20888 ****       114.2500 146.5000 106.2500 Du        
  20889 ****       114.2500 146.5000 106.5000 Du        
  20890 ****       114.2500 146.5000 106.7500 Du        
  20891 ****       114.2500 146.5000 107.0000 Du        
  20892 ****       114.2500 146.7500 106.0000 Du        
  20893 ****       114.2500 146.7500 106.2500 Du        
  20894 ****       114.2500 146.7500 106.5000 Du        
  20895 ****       114.2500 146.7500 106.7500 Du        
  20896 ****       114.2500 146.7500 107.0000 Du        
  20897 ****       114.2500 146.7500 107.2500 Du        
  20898 ****       114.2500 147.0000 106.0000 Du        
  20899 ****       114.2500 147.0000 106.2500 Du        
  20900 ****       114.2500 147.0000 106.5000 Du        
  20901 ****       114.2500 147.0000 106.7500 Du        
  20902 ****       114.2500 147.0000 107.0000 Du        
  20903 ****       114.2500 147.0000 107.2500 Du        
  20904 ****       114.2500 147.2500 106.0000 Du        
  20905 ****       114.2500 147.2500 106.2500 Du        
  20906 ****       114.2500 147.2500 106.5000 Du        
  20907 ****       114.2500 147.2500 106.7500 Du        
  20908 ****       114.2500 147.2500 107.0000 Du        
  20909 ****       114.2500 147.2500 107.2500 Du        
  20910 ****       114.2500 147.5000 106.0000 Du        
  20911 ****       114.2500 147.5000 106.2500 Du        
  20912 ****       114.2500 147.5000 106.5000 Du        
  20913 ****       114.2500 147.5000 106.7500 Du        
  20914 ****       114.2500 147.5000 107.0000 Du        
  20915 ****       114.2500 147.7500 106.0000 Du        
  20916 ****       114.2500 147.7500 106.2500 Du        
  20917 ****       114.2500 147.7500 106.5000 Du        
  20918 ****       114.2500 147.7500 106.7500 Du        
  20919 ****       114.2500 147.7500 107.0000 Du        
  20920 ****       114.2500 148.0000 106.0000 Du        
  20921 ****       114.2500 148.0000 106.2500 Du        
  20922 ****       114.2500 148.0000 106.5000 Du        
  20923 ****       114.2500 148.0000 106.7500 Du        
  20924 ****       114.2500 148.0000 107.0000 Du        
  20925 ****       114.2500 148.2500 106.0000 Du        
  20926 ****       114.2500 148.2500 106.2500 Du        
  20927 ****       114.2500 148.2500 106.5000 Du        
  20928 ****       114.2500 148.2500 106.7500 Du        
  20929 ****       114.2500 148.2500 107.0000 Du        
  20930 ****       114.2500 148.2500 107.2500 Du        
  20931 ****       114.2500 148.5000 106.0000 Du        
  20932 ****       114.2500 148.5000 106.2500 Du        
  20933 ****       114.2500 148.5000 106.5000 Du        
  20934 ****       114.2500 148.5000 106.7500 Du        
  20935 ****       114.2500 148.5000 107.0000 Du        
  20936 ****       114.2500 148.5000 107.2500 Du        
  20937 ****       114.2500 148.7500 106.7500 Du        
  20938 ****       114.2500 148.7500 107.0000 Du        
  20939 ****       114.2500 148.7500 107.2500 Du        
  20940 ****       114.2500 149.0000 107.0000 Du        
  20941 ****       114.2500 149.0000 107.2500 Du        
  20942 ****       114.2500 152.0000 138.5000 Du        
  20943 ****       114.2500 152.0000 138.7500 Du        
  20944 ****       114.2500 152.0000 139.0000 Du        
  20945 ****       114.2500 152.0000 139.2500 Du        
  20946 ****       114.2500 152.2500 138.0000 Du        
  20947 ****       114.2500 152.2500 138.2500 Du        
  20948 ****       114.2500 152.2500 138.5000 Du        
  20949 ****       114.2500 152.2500 138.7500 Du        
  20950 ****       114.2500 152.2500 139.0000 Du        
  20951 ****       114.2500 152.2500 139.2500 Du        
  20952 ****       114.2500 152.5000 137.7500 Du        
  20953 ****       114.2500 152.5000 138.0000 Du        
  20954 ****       114.2500 152.5000 138.2500 Du        
  20955 ****       114.2500 152.5000 138.5000 Du        
  20956 ****       114.2500 152.5000 138.7500 Du        
  20957 ****       114.2500 152.5000 139.0000 Du        
  20958 ****       114.2500 152.5000 139.2500 Du        
  20959 ****       114.2500 152.7500 137.2500 Du        
  20960 ****       114.2500 152.7500 137.5000 Du        
  20961 ****       114.2500 152.7500 137.7500 Du        
  20962 ****       114.2500 152.7500 138.0000 Du        
  20963 ****       114.2500 152.7500 138.2500 Du        
  20964 ****       114.2500 152.7500 138.5000 Du        
  20965 ****       114.2500 152.7500 138.7500 Du        
  20966 ****       114.2500 152.7500 139.0000 Du        
  20967 ****       114.2500 152.7500 139.2500 Du        
  20968 ****       114.2500 152.7500 139.5000 Du        
  20969 ****       114.2500 152.7500 139.7500 Du        
  20970 ****       114.2500 153.0000 137.0000 Du        
  20971 ****       114.2500 153.0000 137.2500 Du        
  20972 ****       114.2500 153.0000 137.5000 Du        
  20973 ****       114.2500 153.0000 137.7500 Du        
  20974 ****       114.2500 153.0000 138.0000 Du        
  20975 ****       114.2500 153.0000 138.2500 Du        
  20976 ****       114.2500 153.0000 138.5000 Du        
  20977 ****       114.2500 153.0000 138.7500 Du        
  20978 ****       114.2500 153.0000 139.0000 Du        
  20979 ****       114.2500 153.0000 139.2500 Du        
  20980 ****       114.2500 153.0000 139.5000 Du        
  20981 ****       114.2500 153.0000 139.7500 Du        
  20982 ****       114.2500 153.2500 137.0000 Du        
  20983 ****       114.2500 153.2500 137.2500 Du        
  20984 ****       114.2500 153.2500 137.5000 Du        
  20985 ****       114.2500 153.2500 137.7500 Du        
  20986 ****       114.2500 153.2500 138.0000 Du        
  20987 ****       114.2500 153.2500 138.2500 Du        
  20988 ****       114.2500 153.2500 138.5000 Du        
  20989 ****       114.2500 153.2500 138.7500 Du        
  20990 ****       114.2500 153.2500 139.0000 Du        
  20991 ****       114.2500 153.2500 139.2500 Du        
  20992 ****       114.2500 153.2500 139.5000 Du        
  20993 ****       114.2500 153.2500 139.7500 Du        
  20994 ****       114.2500 153.5000 137.2500 Du        
  20995 ****       114.2500 153.5000 137.5000 Du        
  20996 ****       114.2500 153.5000 137.7500 Du        
  20997 ****       114.2500 153.5000 138.0000 Du        
  20998 ****       114.2500 153.5000 138.2500 Du        
  20999 ****       114.2500 153.5000 138.5000 Du        
  21000 ****       114.2500 153.5000 138.7500 Du        
  21001 ****       114.2500 153.5000 139.0000 Du        
  21002 ****       114.2500 153.5000 139.2500 Du        
  21003 ****       114.2500 153.5000 139.5000 Du        
  21004 ****       114.2500 153.5000 139.7500 Du        
  21005 ****       114.2500 153.7500 137.5000 Du        
  21006 ****       114.2500 153.7500 137.7500 Du        
  21007 ****       114.2500 153.7500 138.0000 Du        
  21008 ****       114.2500 153.7500 138.2500 Du        
  21009 ****       114.2500 153.7500 138.5000 Du        
  21010 ****       114.2500 153.7500 138.7500 Du        
  21011 ****       114.2500 153.7500 139.0000 Du        
  21012 ****       114.2500 153.7500 139.2500 Du        
  21013 ****       114.2500 153.7500 139.5000 Du        
  21014 ****       114.2500 153.7500 139.7500 Du        
  21015 ****       114.2500 154.0000 138.0000 Du        
  21016 ****       114.2500 154.0000 138.2500 Du        
  21017 ****       114.2500 154.0000 138.5000 Du        
  21018 ****       114.2500 154.0000 138.7500 Du        
  21019 ****       114.2500 154.0000 139.0000 Du        
  21020 ****       114.2500 154.0000 139.2500 Du        
  21021 ****       114.2500 154.0000 139.5000 Du        
  21022 ****       114.2500 154.2500 138.2500 Du        
  21023 ****       114.2500 154.2500 138.5000 Du        
  21024 ****       114.2500 154.2500 138.7500 Du        
  21025 ****       114.2500 154.2500 139.0000 Du        
  21026 ****       114.2500 154.2500 139.2500 Du        
  21027 ****       114.2500 154.5000 138.7500 Du        
  21028 ****       114.2500 154.5000 139.0000 Du        
  21029 ****       114.2500 154.5000 139.2500 Du        
  21030 ****       114.2500 155.7500 106.7500 Du        
  21031 ****       114.2500 155.7500 107.0000 Du        
  21032 ****       114.2500 155.7500 107.2500 Du        
  21033 ****       114.2500 156.0000 106.7500 Du        
  21034 ****       114.2500 156.0000 107.0000 Du        
  21035 ****       114.2500 156.0000 107.2500 Du        
  21036 ****       114.2500 156.0000 107.5000 Du        
  21037 ****       114.2500 156.2500 106.5000 Du        
  21038 ****       114.2500 156.2500 106.7500 Du        
  21039 ****       114.2500 156.2500 107.0000 Du        
  21040 ****       114.2500 156.2500 107.2500 Du        
  21041 ****       114.2500 156.2500 107.5000 Du        
  21042 ****       114.2500 156.2500 107.7500 Du        
  21043 ****       114.2500 156.5000 106.5000 Du        
  21044 ****       114.2500 156.5000 106.7500 Du        
  21045 ****       114.2500 156.5000 107.0000 Du        
  21046 ****       114.2500 156.5000 107.2500 Du        
  21047 ****       114.2500 156.5000 107.5000 Du        
  21048 ****       114.2500 156.5000 107.7500 Du        
  21049 ****       114.2500 156.5000 108.0000 Du        
  21050 ****       114.2500 156.5000 108.2500 Du        
  21051 ****       114.2500 156.7500 106.2500 Du        
  21052 ****       114.2500 156.7500 106.5000 Du        
  21053 ****       114.2500 156.7500 106.7500 Du        
  21054 ****       114.2500 156.7500 107.0000 Du        
  21055 ****       114.2500 156.7500 107.2500 Du        
  21056 ****       114.2500 156.7500 107.5000 Du        
  21057 ****       114.2500 156.7500 107.7500 Du        
  21058 ****       114.2500 156.7500 108.0000 Du        
  21059 ****       114.2500 156.7500 108.2500 Du        
  21060 ****       114.2500 156.7500 108.5000 Du        
  21061 ****       114.2500 157.0000 106.5000 Du        
  21062 ****       114.2500 157.0000 106.7500 Du        
  21063 ****       114.2500 157.0000 107.0000 Du        
  21064 ****       114.2500 157.0000 107.2500 Du        
  21065 ****       114.2500 157.0000 107.5000 Du        
  21066 ****       114.2500 157.0000 107.7500 Du        
  21067 ****       114.2500 157.0000 108.0000 Du        
  21068 ****       114.2500 157.0000 108.2500 Du        
  21069 ****       114.2500 157.0000 108.5000 Du        
  21070 ****       114.2500 157.2500 107.2500 Du        
  21071 ****       114.2500 157.2500 107.5000 Du        
  21072 ****       114.2500 157.2500 107.7500 Du        
  21073 ****       114.2500 157.2500 108.0000 Du        
  21074 ****       114.2500 157.2500 108.2500 Du        
  21075 ****       114.2500 157.2500 108.5000 Du        
  21076 ****       114.2500 159.7500 144.7500 Du        
  21077 ****       114.2500 159.7500 145.0000 Du        
  21078 ****       114.2500 160.0000 144.5000 Du        
  21079 ****       114.2500 160.0000 144.7500 Du        
  21080 ****       114.2500 160.0000 145.0000 Du        
  21081 ****       114.2500 160.2500 144.5000 Du        
  21082 ****       114.2500 160.2500 144.7500 Du        
  21083 ****       114.2500 160.2500 145.0000 Du        
  21084 ****       114.2500 160.5000 144.7500 Du        
  21085 ****       114.2500 160.5000 145.0000 Du        
  21086 ****       114.2500 160.7500 144.7500 Du        
  21087 ****       114.2500 160.7500 145.0000 Du        
  21088 ****       114.2500 161.0000 145.0000 Du        
  21089 ****       114.2500 165.2500 138.7500 Du        
  21090 ****       114.2500 165.2500 139.0000 Du        
  21091 ****       114.2500 165.5000 138.5000 Du        
  21092 ****       114.2500 165.5000 138.7500 Du        
  21093 ****       114.2500 165.5000 139.0000 Du        
  21094 ****       114.2500 165.5000 139.2500 Du        
  21095 ****       114.2500 165.5000 139.5000 Du        
  21096 ****       114.2500 165.7500 138.2500 Du        
  21097 ****       114.2500 165.7500 138.5000 Du        
  21098 ****       114.2500 165.7500 138.7500 Du        
  21099 ****       114.2500 165.7500 139.0000 Du        
  21100 ****       114.2500 165.7500 139.2500 Du        
  21101 ****       114.2500 165.7500 139.5000 Du        
  21102 ****       114.2500 165.7500 139.7500 Du        
  21103 ****       114.2500 166.0000 138.0000 Du        
  21104 ****       114.2500 166.0000 138.2500 Du        
  21105 ****       114.2500 166.0000 138.5000 Du        
  21106 ****       114.2500 166.0000 138.7500 Du        
  21107 ****       114.2500 166.0000 139.0000 Du        
  21108 ****       114.2500 166.0000 139.2500 Du        
  21109 ****       114.2500 166.0000 139.5000 Du        
  21110 ****       114.2500 166.0000 139.7500 Du        
  21111 ****       114.2500 166.0000 140.0000 Du        
  21112 ****       114.2500 166.2500 138.0000 Du        
  21113 ****       114.2500 166.2500 138.2500 Du        
  21114 ****       114.2500 166.2500 138.5000 Du        
  21115 ****       114.2500 166.2500 138.7500 Du        
  21116 ****       114.2500 166.2500 139.0000 Du        
  21117 ****       114.2500 166.2500 139.2500 Du        
  21118 ****       114.2500 166.2500 139.5000 Du        
  21119 ****       114.2500 166.2500 139.7500 Du        
  21120 ****       114.2500 166.5000 138.0000 Du        
  21121 ****       114.2500 166.5000 138.2500 Du        
  21122 ****       114.2500 166.5000 138.5000 Du        
  21123 ****       114.2500 166.5000 138.7500 Du        
  21124 ****       114.2500 166.5000 139.0000 Du        
  21125 ****       114.2500 166.5000 139.2500 Du        
  21126 ****       114.2500 166.5000 139.5000 Du        
  21127 ****       114.2500 166.7500 138.0000 Du        
  21128 ****       114.2500 166.7500 138.2500 Du        
  21129 ****       114.2500 166.7500 138.5000 Du        
  21130 ****       114.2500 166.7500 138.7500 Du        
  21131 ****       114.2500 166.7500 139.0000 Du        
  21132 ****       114.2500 166.7500 139.2500 Du        
  21133 ****       114.5000 134.7500 121.0000 Du        
  21134 ****       114.5000 134.7500 121.2500 Du        
  21135 ****       114.5000 135.0000 121.0000 Du        
  21136 ****       114.5000 135.0000 121.2500 Du        
  21137 ****       114.5000 135.2500 120.7500 Du        
  21138 ****       114.5000 135.2500 121.0000 Du        
  21139 ****       114.5000 135.2500 121.2500 Du        
  21140 ****       114.5000 135.2500 121.5000 Du        
  21141 ****       114.5000 135.5000 120.7500 Du        
  21142 ****       114.5000 135.5000 121.0000 Du        
  21143 ****       114.5000 135.5000 121.2500 Du        
  21144 ****       114.5000 135.5000 121.5000 Du        
  21145 ****       114.5000 135.7500 120.5000 Du        
  21146 ****       114.5000 135.7500 120.7500 Du        
  21147 ****       114.5000 135.7500 121.0000 Du        
  21148 ****       114.5000 135.7500 121.2500 Du        
  21149 ****       114.5000 135.7500 121.5000 Du        
  21150 ****       114.5000 136.0000 120.5000 Du        
  21151 ****       114.5000 136.0000 120.7500 Du        
  21152 ****       114.5000 136.0000 121.0000 Du        
  21153 ****       114.5000 136.0000 121.2500 Du        
  21154 ****       114.5000 136.2500 120.5000 Du        
  21155 ****       114.5000 136.2500 120.7500 Du        
  21156 ****       114.5000 136.2500 121.0000 Du        
  21157 ****       114.5000 136.2500 121.2500 Du        
  21158 ****       114.5000 136.5000 120.2500 Du        
  21159 ****       114.5000 136.5000 120.5000 Du        
  21160 ****       114.5000 136.5000 120.7500 Du        
  21161 ****       114.5000 137.2500 119.2500 Du        
  21162 ****       114.5000 137.5000 117.5000 Du        
  21163 ****       114.5000 137.5000 117.7500 Du        
  21164 ****       114.5000 137.5000 118.0000 Du        
  21165 ****       114.5000 137.5000 118.2500 Du        
  21166 ****       114.5000 137.5000 118.5000 Du        
  21167 ****       114.5000 137.5000 118.7500 Du        
  21168 ****       114.5000 137.5000 119.0000 Du        
  21169 ****       114.5000 137.5000 119.2500 Du        
  21170 ****       114.5000 137.7500 117.5000 Du        
  21171 ****       114.5000 137.7500 117.7500 Du        
  21172 ****       114.5000 137.7500 118.0000 Du        
  21173 ****       114.5000 137.7500 118.7500 Du        
  21174 ****       114.5000 137.7500 119.0000 Du        
  21175 ****       114.5000 146.2500 107.0000 Du        
  21176 ****       114.5000 146.5000 106.0000 Du        
  21177 ****       114.5000 146.5000 106.2500 Du        
  21178 ****       114.5000 146.5000 106.5000 Du        
  21179 ****       114.5000 146.5000 106.7500 Du        
  21180 ****       114.5000 146.5000 107.0000 Du        
  21181 ****       114.5000 146.5000 107.2500 Du        
  21182 ****       114.5000 146.7500 106.0000 Du        
  21183 ****       114.5000 146.7500 106.2500 Du        
  21184 ****       114.5000 146.7500 106.5000 Du        
  21185 ****       114.5000 146.7500 106.7500 Du        
  21186 ****       114.5000 146.7500 107.0000 Du        
  21187 ****       114.5000 146.7500 107.2500 Du        
  21188 ****       114.5000 147.0000 106.0000 Du        
  21189 ****       114.5000 147.0000 106.2500 Du        
  21190 ****       114.5000 147.0000 106.5000 Du        
  21191 ****       114.5000 147.0000 106.7500 Du        
  21192 ****       114.5000 147.0000 107.0000 Du        
  21193 ****       114.5000 147.0000 107.2500 Du        
  21194 ****       114.5000 147.2500 106.0000 Du        
  21195 ****       114.5000 147.2500 106.2500 Du        
  21196 ****       114.5000 147.2500 106.5000 Du        
  21197 ****       114.5000 147.2500 106.7500 Du        
  21198 ****       114.5000 147.2500 107.0000 Du        
  21199 ****       114.5000 147.2500 107.2500 Du        
  21200 ****       114.5000 147.5000 106.0000 Du        
  21201 ****       114.5000 147.5000 106.2500 Du        
  21202 ****       114.5000 147.5000 106.5000 Du        
  21203 ****       114.5000 147.5000 106.7500 Du        
  21204 ****       114.5000 147.5000 107.0000 Du        
  21205 ****       114.5000 147.5000 107.2500 Du        
  21206 ****       114.5000 147.7500 106.0000 Du        
  21207 ****       114.5000 147.7500 106.2500 Du        
  21208 ****       114.5000 147.7500 106.5000 Du        
  21209 ****       114.5000 147.7500 106.7500 Du        
  21210 ****       114.5000 147.7500 107.0000 Du        
  21211 ****       114.5000 147.7500 107.2500 Du        
  21212 ****       114.5000 148.0000 106.0000 Du        
  21213 ****       114.5000 148.0000 106.2500 Du        
  21214 ****       114.5000 148.0000 106.5000 Du        
  21215 ****       114.5000 148.0000 106.7500 Du        
  21216 ****       114.5000 148.0000 107.0000 Du        
  21217 ****       114.5000 148.0000 107.2500 Du        
  21218 ****       114.5000 148.2500 106.0000 Du        
  21219 ****       114.5000 148.2500 106.2500 Du        
  21220 ****       114.5000 148.2500 106.5000 Du        
  21221 ****       114.5000 148.2500 106.7500 Du        
  21222 ****       114.5000 148.2500 107.0000 Du        
  21223 ****       114.5000 148.2500 107.2500 Du        
  21224 ****       114.5000 148.5000 106.0000 Du        
  21225 ****       114.5000 148.5000 106.2500 Du        
  21226 ****       114.5000 148.5000 106.5000 Du        
  21227 ****       114.5000 148.5000 106.7500 Du        
  21228 ****       114.5000 148.5000 107.0000 Du        
  21229 ****       114.5000 148.5000 107.2500 Du        
  21230 ****       114.5000 148.7500 106.0000 Du        
  21231 ****       114.5000 148.7500 106.2500 Du        
  21232 ****       114.5000 148.7500 106.5000 Du        
  21233 ****       114.5000 148.7500 106.7500 Du        
  21234 ****       114.5000 148.7500 107.0000 Du        
  21235 ****       114.5000 148.7500 107.2500 Du        
  21236 ****       114.5000 149.0000 106.5000 Du        
  21237 ****       114.5000 149.0000 106.7500 Du        
  21238 ****       114.5000 149.0000 107.0000 Du        
  21239 ****       114.5000 149.0000 107.2500 Du        
  21240 ****       114.5000 149.2500 107.0000 Du        
  21241 ****       114.5000 149.2500 107.2500 Du        
  21242 ****       114.5000 152.0000 138.7500 Du        
  21243 ****       114.5000 152.2500 138.0000 Du        
  21244 ****       114.5000 152.2500 138.2500 Du        
  21245 ****       114.5000 152.2500 138.5000 Du        
  21246 ****       114.5000 152.2500 138.7500 Du        
  21247 ****       114.5000 152.2500 139.0000 Du        
  21248 ****       114.5000 152.2500 139.2500 Du        
  21249 ****       114.5000 152.5000 137.7500 Du        
  21250 ****       114.5000 152.5000 138.0000 Du        
  21251 ****       114.5000 152.5000 138.2500 Du        
  21252 ****       114.5000 152.5000 138.5000 Du        
  21253 ****       114.5000 152.5000 138.7500 Du        
  21254 ****       114.5000 152.5000 139.0000 Du        
  21255 ****       114.5000 152.5000 139.2500 Du        
  21256 ****       114.5000 152.7500 137.2500 Du        
  21257 ****       114.5000 152.7500 137.5000 Du        
  21258 ****       114.5000 152.7500 137.7500 Du        
  21259 ****       114.5000 152.7500 138.0000 Du        
  21260 ****       114.5000 152.7500 138.2500 Du        
  21261 ****       114.5000 152.7500 138.5000 Du        
  21262 ****       114.5000 152.7500 138.7500 Du        
  21263 ****       114.5000 152.7500 139.0000 Du        
  21264 ****       114.5000 152.7500 139.2500 Du        
  21265 ****       114.5000 153.0000 137.0000 Du        
  21266 ****       114.5000 153.0000 137.2500 Du        
  21267 ****       114.5000 153.0000 137.5000 Du        
  21268 ****       114.5000 153.0000 137.7500 Du        
  21269 ****       114.5000 153.0000 138.0000 Du        
  21270 ****       114.5000 153.0000 138.2500 Du        
  21271 ****       114.5000 153.0000 138.5000 Du        
  21272 ****       114.5000 153.0000 138.7500 Du        
  21273 ****       114.5000 153.0000 139.0000 Du        
  21274 ****       114.5000 153.0000 139.2500 Du        
  21275 ****       114.5000 153.2500 137.0000 Du        
  21276 ****       114.5000 153.2500 137.2500 Du        
  21277 ****       114.5000 153.2500 137.5000 Du        
  21278 ****       114.5000 153.2500 137.7500 Du        
  21279 ****       114.5000 153.2500 138.0000 Du        
  21280 ****       114.5000 153.2500 138.2500 Du        
  21281 ****       114.5000 153.2500 138.5000 Du        
  21282 ****       114.5000 153.2500 138.7500 Du        
  21283 ****       114.5000 153.2500 139.0000 Du        
  21284 ****       114.5000 153.2500 139.2500 Du        
  21285 ****       114.5000 153.5000 137.0000 Du        
  21286 ****       114.5000 153.5000 137.2500 Du        
  21287 ****       114.5000 153.5000 137.5000 Du        
  21288 ****       114.5000 153.5000 137.7500 Du        
  21289 ****       114.5000 153.5000 138.0000 Du        
  21290 ****       114.5000 153.5000 138.2500 Du        
  21291 ****       114.5000 153.5000 138.5000 Du        
  21292 ****       114.5000 153.5000 138.7500 Du        
  21293 ****       114.5000 153.5000 139.0000 Du        
  21294 ****       114.5000 153.5000 139.2500 Du        
  21295 ****       114.5000 153.5000 139.5000 Du        
  21296 ****       114.5000 153.5000 139.7500 Du        
  21297 ****       114.5000 153.7500 137.2500 Du        
  21298 ****       114.5000 153.7500 137.5000 Du        
  21299 ****       114.5000 153.7500 137.7500 Du        
  21300 ****       114.5000 153.7500 138.0000 Du        
  21301 ****       114.5000 153.7500 138.2500 Du        
  21302 ****       114.5000 153.7500 138.5000 Du        
  21303 ****       114.5000 153.7500 138.7500 Du        
  21304 ****       114.5000 153.7500 139.0000 Du        
  21305 ****       114.5000 153.7500 139.2500 Du        
  21306 ****       114.5000 153.7500 139.5000 Du        
  21307 ****       114.5000 153.7500 139.7500 Du        
  21308 ****       114.5000 154.0000 137.7500 Du        
  21309 ****       114.5000 154.0000 138.0000 Du        
  21310 ****       114.5000 154.0000 138.2500 Du        
  21311 ****       114.5000 154.0000 138.5000 Du        
  21312 ****       114.5000 154.0000 138.7500 Du        
  21313 ****       114.5000 154.0000 139.0000 Du        
  21314 ****       114.5000 154.0000 139.2500 Du        
  21315 ****       114.5000 154.0000 139.5000 Du        
  21316 ****       114.5000 154.2500 138.0000 Du        
  21317 ****       114.5000 154.2500 138.2500 Du        
  21318 ****       114.5000 154.2500 138.5000 Du        
  21319 ****       114.5000 154.2500 138.7500 Du        
  21320 ****       114.5000 154.2500 139.0000 Du        
  21321 ****       114.5000 154.2500 139.2500 Du        
  21322 ****       114.5000 154.2500 139.5000 Du        
  21323 ****       114.5000 154.5000 138.5000 Du        
  21324 ****       114.5000 154.5000 138.7500 Du        
  21325 ****       114.5000 154.5000 139.0000 Du        
  21326 ****       114.5000 154.5000 139.2500 Du        
  21327 ****       114.5000 154.7500 138.7500 Du        
  21328 ****       114.5000 154.7500 139.0000 Du        
  21329 ****       114.5000 155.5000 107.0000 Du        
  21330 ****       114.5000 155.7500 106.7500 Du        
  21331 ****       114.5000 155.7500 107.0000 Du        
  21332 ****       114.5000 155.7500 107.2500 Du        
  21333 ****       114.5000 156.0000 106.7500 Du        
  21334 ****       114.5000 156.0000 107.0000 Du        
  21335 ****       114.5000 156.0000 107.2500 Du        
  21336 ****       114.5000 156.0000 107.5000 Du        
  21337 ****       114.5000 156.0000 107.7500 Du        
  21338 ****       114.5000 156.2500 106.5000 Du        
  21339 ****       114.5000 156.2500 106.7500 Du        
  21340 ****       114.5000 156.2500 107.0000 Du        
  21341 ****       114.5000 156.2500 107.2500 Du        
  21342 ****       114.5000 156.2500 107.5000 Du        
  21343 ****       114.5000 156.2500 107.7500 Du        
  21344 ****       114.5000 156.2500 108.0000 Du        
  21345 ****       114.5000 156.5000 106.5000 Du        
  21346 ****       114.5000 156.5000 106.7500 Du        
  21347 ****       114.5000 156.5000 107.0000 Du        
  21348 ****       114.5000 156.5000 107.2500 Du        
  21349 ****       114.5000 156.5000 107.5000 Du        
  21350 ****       114.5000 156.5000 107.7500 Du        
  21351 ****       114.5000 156.5000 108.0000 Du        
  21352 ****       114.5000 156.5000 108.2500 Du        
  21353 ****       114.5000 156.7500 106.2500 Du        
  21354 ****       114.5000 156.7500 106.5000 Du        
  21355 ****       114.5000 156.7500 106.7500 Du        
  21356 ****       114.5000 156.7500 107.0000 Du        
  21357 ****       114.5000 156.7500 107.2500 Du        
  21358 ****       114.5000 156.7500 107.5000 Du        
  21359 ****       114.5000 156.7500 107.7500 Du        
  21360 ****       114.5000 156.7500 108.0000 Du        
  21361 ****       114.5000 156.7500 108.2500 Du        
  21362 ****       114.5000 156.7500 108.5000 Du        
  21363 ****       114.5000 157.0000 106.5000 Du        
  21364 ****       114.5000 157.0000 106.7500 Du        
  21365 ****       114.5000 157.0000 107.0000 Du        
  21366 ****       114.5000 157.0000 107.2500 Du        
  21367 ****       114.5000 157.0000 107.5000 Du        
  21368 ****       114.5000 157.0000 107.7500 Du        
  21369 ****       114.5000 157.0000 108.0000 Du        
  21370 ****       114.5000 157.0000 108.2500 Du        
  21371 ****       114.5000 157.0000 108.5000 Du        
  21372 ****       114.5000 157.2500 107.0000 Du        
  21373 ****       114.5000 157.2500 107.2500 Du        
  21374 ****       114.5000 157.2500 107.5000 Du        
  21375 ****       114.5000 157.2500 107.7500 Du        
  21376 ****       114.5000 157.2500 108.0000 Du        
  21377 ****       114.5000 157.2500 108.2500 Du        
  21378 ****       114.5000 157.2500 108.5000 Du        
  21379 ****       114.5000 157.2500 108.7500 Du        
  21380 ****       114.5000 157.5000 107.7500 Du        
  21381 ****       114.5000 157.5000 108.0000 Du        
  21382 ****       114.5000 157.5000 108.2500 Du        
  21383 ****       114.5000 157.5000 108.5000 Du        
  21384 ****       114.5000 159.2500 109.7500 Du        
  21385 ****       114.5000 159.2500 110.0000 Du        
  21386 ****       114.5000 159.5000 109.7500 Du        
  21387 ****       114.5000 159.5000 110.0000 Du        
  21388 ****       114.5000 159.5000 145.2500 Du        
  21389 ****       114.5000 159.7500 109.7500 Du        
  21390 ****       114.5000 159.7500 110.0000 Du        
  21391 ****       114.5000 159.7500 144.7500 Du        
  21392 ****       114.5000 159.7500 145.0000 Du        
  21393 ****       114.5000 159.7500 145.2500 Du        
  21394 ****       114.5000 160.0000 109.7500 Du        
  21395 ****       114.5000 160.0000 144.7500 Du        
  21396 ****       114.5000 160.0000 145.0000 Du        
  21397 ****       114.5000 160.0000 145.2500 Du        
  21398 ****       114.5000 160.2500 144.5000 Du        
  21399 ****       114.5000 160.2500 144.7500 Du        
  21400 ****       114.5000 160.2500 145.0000 Du        
  21401 ****       114.5000 160.2500 145.2500 Du        
  21402 ****       114.5000 160.5000 144.7500 Du        
  21403 ****       114.5000 160.5000 145.0000 Du        
  21404 ****       114.5000 160.5000 145.2500 Du        
  21405 ****       114.5000 160.7500 144.7500 Du        
  21406 ****       114.5000 160.7500 145.0000 Du        
  21407 ****       114.5000 160.7500 145.2500 Du        
  21408 ****       114.5000 161.0000 145.0000 Du        
  21409 ****       114.5000 165.5000 138.7500 Du        
  21410 ****       114.5000 165.5000 139.0000 Du        
  21411 ****       114.5000 165.7500 138.2500 Du        
  21412 ****       114.5000 165.7500 138.5000 Du        
  21413 ****       114.5000 165.7500 138.7500 Du        
  21414 ****       114.5000 165.7500 139.0000 Du        
  21415 ****       114.5000 165.7500 139.2500 Du        
  21416 ****       114.5000 166.0000 138.0000 Du        
  21417 ****       114.5000 166.0000 138.2500 Du        
  21418 ****       114.5000 166.0000 138.5000 Du        
  21419 ****       114.5000 166.0000 138.7500 Du        
  21420 ****       114.5000 166.0000 139.0000 Du        
  21421 ****       114.5000 166.0000 139.2500 Du        
  21422 ****       114.5000 166.0000 139.5000 Du        
  21423 ****       114.5000 166.2500 138.0000 Du        
  21424 ****       114.5000 166.2500 138.2500 Du        
  21425 ****       114.5000 166.2500 138.5000 Du        
  21426 ****       114.5000 166.2500 138.7500 Du        
  21427 ****       114.5000 166.2500 139.0000 Du        
  21428 ****       114.5000 166.2500 139.2500 Du        
  21429 ****       114.5000 166.2500 139.5000 Du        
  21430 ****       114.5000 166.5000 138.0000 Du        
  21431 ****       114.5000 166.5000 138.2500 Du        
  21432 ****       114.5000 166.5000 138.5000 Du        
  21433 ****       114.5000 166.5000 138.7500 Du        
  21434 ****       114.5000 166.5000 139.0000 Du        
  21435 ****       114.5000 166.5000 139.2500 Du        
  21436 ****       114.5000 166.7500 138.2500 Du        
  21437 ****       114.5000 166.7500 138.5000 Du        
  21438 ****       114.5000 166.7500 138.7500 Du        
  21439 ****       114.5000 166.7500 139.0000 Du        
  21440 ****       114.5000 166.7500 139.2500 Du        
  21441 ****       114.7500 134.5000 121.2500 Du        
  21442 ****       114.7500 134.5000 121.5000 Du        
  21443 ****       114.7500 134.7500 121.0000 Du        
  21444 ****       114.7500 134.7500 121.2500 Du        
  21445 ****       114.7500 134.7500 121.5000 Du        
  21446 ****       114.7500 135.0000 120.7500 Du        
  21447 ****       114.7500 135.0000 121.0000 Du        
  21448 ****       114.7500 135.0000 121.2500 Du        
  21449 ****       114.7500 135.0000 121.5000 Du        
  21450 ****       114.7500 135.2500 120.7500 Du        
  21451 ****       114.7500 135.2500 121.0000 Du        
  21452 ****       114.7500 135.2500 121.2500 Du        
  21453 ****       114.7500 135.2500 121.5000 Du        
  21454 ****       114.7500 135.5000 120.5000 Du        
  21455 ****       114.7500 135.5000 120.7500 Du        
  21456 ****       114.7500 135.5000 121.0000 Du        
  21457 ****       114.7500 135.5000 121.2500 Du        
  21458 ****       114.7500 135.5000 121.5000 Du        
  21459 ****       114.7500 135.7500 120.2500 Du        
  21460 ****       114.7500 135.7500 120.5000 Du        
  21461 ****       114.7500 135.7500 120.7500 Du        
  21462 ****       114.7500 135.7500 121.0000 Du        
  21463 ****       114.7500 135.7500 121.2500 Du        
  21464 ****       114.7500 135.7500 121.5000 Du        
  21465 ****       114.7500 136.0000 120.0000 Du        
  21466 ****       114.7500 136.0000 120.2500 Du        
  21467 ****       114.7500 136.0000 120.5000 Du        
  21468 ****       114.7500 136.0000 120.7500 Du        
  21469 ****       114.7500 136.0000 121.0000 Du        
  21470 ****       114.7500 136.0000 121.2500 Du        
  21471 ****       114.7500 136.0000 121.5000 Du        
  21472 ****       114.7500 136.2500 120.0000 Du        
  21473 ****       114.7500 136.2500 120.2500 Du        
  21474 ****       114.7500 136.2500 120.5000 Du        
  21475 ****       114.7500 136.2500 120.7500 Du        
  21476 ****       114.7500 136.2500 121.0000 Du        
  21477 ****       114.7500 136.2500 121.2500 Du        
  21478 ****       114.7500 136.5000 119.7500 Du        
  21479 ****       114.7500 136.5000 120.0000 Du        
  21480 ****       114.7500 136.5000 120.2500 Du        
  21481 ****       114.7500 136.5000 120.5000 Du        
  21482 ****       114.7500 136.5000 120.7500 Du        
  21483 ****       114.7500 136.5000 121.0000 Du        
  21484 ****       114.7500 136.7500 119.5000 Du        
  21485 ****       114.7500 136.7500 119.7500 Du        
  21486 ****       114.7500 136.7500 120.0000 Du        
  21487 ****       114.7500 136.7500 120.2500 Du        
  21488 ****       114.7500 136.7500 120.5000 Du        
  21489 ****       114.7500 137.0000 117.7500 Du        
  21490 ****       114.7500 137.0000 118.7500 Du        
  21491 ****       114.7500 137.0000 119.0000 Du        
  21492 ****       114.7500 137.0000 119.2500 Du        
  21493 ****       114.7500 137.0000 119.5000 Du        
  21494 ****       114.7500 137.0000 119.7500 Du        
  21495 ****       114.7500 137.0000 120.0000 Du        
  21496 ****       114.7500 137.2500 117.0000 Du        
  21497 ****       114.7500 137.2500 117.2500 Du        
  21498 ****       114.7500 137.2500 117.5000 Du        
  21499 ****       114.7500 137.2500 117.7500 Du        
  21500 ****       114.7500 137.2500 118.0000 Du        
  21501 ****       114.7500 137.2500 118.2500 Du        
  21502 ****       114.7500 137.2500 118.5000 Du        
  21503 ****       114.7500 137.2500 118.7500 Du        
  21504 ****       114.7500 137.2500 119.0000 Du        
  21505 ****       114.7500 137.2500 119.2500 Du        
  21506 ****       114.7500 137.2500 119.5000 Du        
  21507 ****       114.7500 137.2500 119.7500 Du        
  21508 ****       114.7500 137.5000 117.0000 Du        
  21509 ****       114.7500 137.5000 117.2500 Du        
  21510 ****       114.7500 137.5000 117.5000 Du        
  21511 ****       114.7500 137.5000 117.7500 Du        
  21512 ****       114.7500 137.5000 118.0000 Du        
  21513 ****       114.7500 137.5000 118.2500 Du        
  21514 ****       114.7500 137.5000 118.5000 Du        
  21515 ****       114.7500 137.5000 118.7500 Du        
  21516 ****       114.7500 137.5000 119.0000 Du        
  21517 ****       114.7500 137.5000 119.2500 Du        
  21518 ****       114.7500 137.5000 119.5000 Du        
  21519 ****       114.7500 137.7500 117.0000 Du        
  21520 ****       114.7500 137.7500 117.2500 Du        
  21521 ****       114.7500 137.7500 117.5000 Du        
  21522 ****       114.7500 137.7500 117.7500 Du        
  21523 ****       114.7500 137.7500 118.0000 Du        
  21524 ****       114.7500 137.7500 118.7500 Du        
  21525 ****       114.7500 137.7500 119.0000 Du        
  21526 ****       114.7500 137.7500 119.2500 Du        
  21527 ****       114.7500 146.2500 106.7500 Du        
  21528 ****       114.7500 146.2500 107.0000 Du        
  21529 ****       114.7500 146.5000 106.0000 Du        
  21530 ****       114.7500 146.5000 106.2500 Du        
  21531 ****       114.7500 146.5000 106.5000 Du        
  21532 ****       114.7500 146.5000 106.7500 Du        
  21533 ****       114.7500 146.5000 107.0000 Du        
  21534 ****       114.7500 146.5000 107.2500 Du        
  21535 ****       114.7500 146.7500 106.0000 Du        
  21536 ****       114.7500 146.7500 106.2500 Du        
  21537 ****       114.7500 146.7500 106.5000 Du        
  21538 ****       114.7500 146.7500 106.7500 Du        
  21539 ****       114.7500 146.7500 107.0000 Du        
  21540 ****       114.7500 146.7500 107.2500 Du        
  21541 ****       114.7500 146.7500 107.5000 Du        
  21542 ****       114.7500 147.0000 106.0000 Du        
  21543 ****       114.7500 147.0000 106.2500 Du        
  21544 ****       114.7500 147.0000 106.5000 Du        
  21545 ****       114.7500 147.0000 106.7500 Du        
  21546 ****       114.7500 147.0000 107.0000 Du        
  21547 ****       114.7500 147.0000 107.2500 Du        
  21548 ****       114.7500 147.0000 107.5000 Du        
  21549 ****       114.7500 147.2500 106.0000 Du        
  21550 ****       114.7500 147.2500 106.2500 Du        
  21551 ****       114.7500 147.2500 106.5000 Du        
  21552 ****       114.7500 147.2500 106.7500 Du        
  21553 ****       114.7500 147.2500 107.0000 Du        
  21554 ****       114.7500 147.2500 107.2500 Du        
  21555 ****       114.7500 147.5000 106.0000 Du        
  21556 ****       114.7500 147.5000 106.2500 Du        
  21557 ****       114.7500 147.5000 106.5000 Du        
  21558 ****       114.7500 147.5000 106.7500 Du        
  21559 ****       114.7500 147.5000 107.0000 Du        
  21560 ****       114.7500 147.5000 107.2500 Du        
  21561 ****       114.7500 147.7500 106.0000 Du        
  21562 ****       114.7500 147.7500 106.2500 Du        
  21563 ****       114.7500 147.7500 106.5000 Du        
  21564 ****       114.7500 147.7500 106.7500 Du        
  21565 ****       114.7500 147.7500 107.0000 Du        
  21566 ****       114.7500 147.7500 107.2500 Du        
  21567 ****       114.7500 148.0000 106.0000 Du        
  21568 ****       114.7500 148.0000 106.2500 Du        
  21569 ****       114.7500 148.0000 106.5000 Du        
  21570 ****       114.7500 148.0000 106.7500 Du        
  21571 ****       114.7500 148.0000 107.0000 Du        
  21572 ****       114.7500 148.0000 107.2500 Du        
  21573 ****       114.7500 148.2500 106.0000 Du        
  21574 ****       114.7500 148.2500 106.2500 Du        
  21575 ****       114.7500 148.2500 106.5000 Du        
  21576 ****       114.7500 148.2500 106.7500 Du        
  21577 ****       114.7500 148.2500 107.0000 Du        
  21578 ****       114.7500 148.2500 107.2500 Du        
  21579 ****       114.7500 148.5000 106.0000 Du        
  21580 ****       114.7500 148.5000 106.2500 Du        
  21581 ****       114.7500 148.5000 106.5000 Du        
  21582 ****       114.7500 148.5000 106.7500 Du        
  21583 ****       114.7500 148.5000 107.0000 Du        
  21584 ****       114.7500 148.5000 107.2500 Du        
  21585 ****       114.7500 148.7500 106.0000 Du        
  21586 ****       114.7500 148.7500 106.2500 Du        
  21587 ****       114.7500 148.7500 106.5000 Du        
  21588 ****       114.7500 148.7500 106.7500 Du        
  21589 ****       114.7500 148.7500 107.0000 Du        
  21590 ****       114.7500 148.7500 107.2500 Du        
  21591 ****       114.7500 149.0000 106.0000 Du        
  21592 ****       114.7500 149.0000 106.2500 Du        
  21593 ****       114.7500 149.0000 106.5000 Du        
  21594 ****       114.7500 149.0000 106.7500 Du        
  21595 ****       114.7500 149.0000 107.0000 Du        
  21596 ****       114.7500 149.0000 107.2500 Du        
  21597 ****       114.7500 149.2500 106.5000 Du        
  21598 ****       114.7500 149.2500 106.7500 Du        
  21599 ****       114.7500 149.2500 107.0000 Du        
  21600 ****       114.7500 149.2500 107.2500 Du        
  21601 ****       114.7500 149.5000 106.7500 Du        
  21602 ****       114.7500 149.5000 107.0000 Du        
  21603 ****       114.7500 149.5000 107.2500 Du        
  21604 ****       114.7500 149.7500 107.0000 Du        
  21605 ****       114.7500 149.7500 107.2500 Du        
  21606 ****       114.7500 150.0000 107.0000 Du        
  21607 ****       114.7500 150.0000 107.2500 Du        
  21608 ****       114.7500 152.0000 138.2500 Du        
  21609 ****       114.7500 152.0000 138.7500 Du        
  21610 ****       114.7500 152.0000 139.0000 Du        
  21611 ****       114.7500 152.2500 138.0000 Du        
  21612 ****       114.7500 152.2500 138.2500 Du        
  21613 ****       114.7500 152.2500 138.5000 Du        
  21614 ****       114.7500 152.2500 138.7500 Du        
  21615 ****       114.7500 152.2500 139.0000 Du        
  21616 ****       114.7500 152.5000 137.7500 Du        
  21617 ****       114.7500 152.5000 138.0000 Du        
  21618 ****       114.7500 152.5000 138.2500 Du        
  21619 ****       114.7500 152.5000 138.5000 Du        
  21620 ****       114.7500 152.5000 138.7500 Du        
  21621 ****       114.7500 152.7500 137.2500 Du        
  21622 ****       114.7500 152.7500 137.5000 Du        
  21623 ****       114.7500 152.7500 137.7500 Du        
  21624 ****       114.7500 152.7500 138.0000 Du        
  21625 ****       114.7500 152.7500 138.2500 Du        
  21626 ****       114.7500 152.7500 138.5000 Du        
  21627 ****       114.7500 152.7500 138.7500 Du        
  21628 ****       114.7500 152.7500 139.0000 Du        
  21629 ****       114.7500 152.7500 139.2500 Du        
  21630 ****       114.7500 153.0000 137.0000 Du        
  21631 ****       114.7500 153.0000 137.2500 Du        
  21632 ****       114.7500 153.0000 137.5000 Du        
  21633 ****       114.7500 153.0000 137.7500 Du        
  21634 ****       114.7500 153.0000 138.0000 Du        
  21635 ****       114.7500 153.0000 138.2500 Du        
  21636 ****       114.7500 153.0000 138.5000 Du        
  21637 ****       114.7500 153.0000 138.7500 Du        
  21638 ****       114.7500 153.0000 139.0000 Du        
  21639 ****       114.7500 153.0000 139.2500 Du        
  21640 ****       114.7500 153.2500 136.7500 Du        
  21641 ****       114.7500 153.2500 137.0000 Du        
  21642 ****       114.7500 153.2500 137.2500 Du        
  21643 ****       114.7500 153.2500 137.5000 Du        
  21644 ****       114.7500 153.2500 137.7500 Du        
  21645 ****       114.7500 153.2500 138.0000 Du        
  21646 ****       114.7500 153.2500 138.2500 Du        
  21647 ****       114.7500 153.2500 138.5000 Du        
  21648 ****       114.7500 153.2500 138.7500 Du        
  21649 ****       114.7500 153.2500 139.0000 Du        
  21650 ****       114.7500 153.2500 139.2500 Du        
  21651 ****       114.7500 153.5000 137.0000 Du        
  21652 ****       114.7500 153.5000 137.2500 Du        
  21653 ****       114.7500 153.5000 137.5000 Du        
  21654 ****       114.7500 153.5000 137.7500 Du        
  21655 ****       114.7500 153.5000 138.0000 Du        
  21656 ****       114.7500 153.5000 138.2500 Du        
  21657 ****       114.7500 153.5000 138.5000 Du        
  21658 ****       114.7500 153.5000 138.7500 Du        
  21659 ****       114.7500 153.5000 139.0000 Du        
  21660 ****       114.7500 153.5000 139.2500 Du        
  21661 ****       114.7500 153.5000 139.5000 Du        
  21662 ****       114.7500 153.7500 137.0000 Du        
  21663 ****       114.7500 153.7500 137.2500 Du        
  21664 ****       114.7500 153.7500 137.5000 Du        
  21665 ****       114.7500 153.7500 137.7500 Du        
  21666 ****       114.7500 153.7500 138.0000 Du        
  21667 ****       114.7500 153.7500 138.2500 Du        
  21668 ****       114.7500 153.7500 138.5000 Du        
  21669 ****       114.7500 153.7500 138.7500 Du        
  21670 ****       114.7500 153.7500 139.0000 Du        
  21671 ****       114.7500 153.7500 139.2500 Du        
  21672 ****       114.7500 153.7500 139.5000 Du        
  21673 ****       114.7500 153.7500 139.7500 Du        
  21674 ****       114.7500 154.0000 137.5000 Du        
  21675 ****       114.7500 154.0000 137.7500 Du        
  21676 ****       114.7500 154.0000 138.0000 Du        
  21677 ****       114.7500 154.0000 138.2500 Du        
  21678 ****       114.7500 154.0000 138.5000 Du        
  21679 ****       114.7500 154.0000 138.7500 Du        
  21680 ****       114.7500 154.0000 139.0000 Du        
  21681 ****       114.7500 154.0000 139.2500 Du        
  21682 ****       114.7500 154.0000 139.5000 Du        
  21683 ****       114.7500 154.0000 139.7500 Du        
  21684 ****       114.7500 154.2500 137.7500 Du        
  21685 ****       114.7500 154.2500 138.0000 Du        
  21686 ****       114.7500 154.2500 138.2500 Du        
  21687 ****       114.7500 154.2500 138.5000 Du        
  21688 ****       114.7500 154.2500 138.7500 Du        
  21689 ****       114.7500 154.2500 139.0000 Du        
  21690 ****       114.7500 154.2500 139.2500 Du        
  21691 ****       114.7500 154.2500 139.5000 Du        
  21692 ****       114.7500 154.5000 138.2500 Du        
  21693 ****       114.7500 154.5000 138.5000 Du        
  21694 ****       114.7500 154.5000 138.7500 Du        
  21695 ****       114.7500 154.5000 139.0000 Du        
  21696 ****       114.7500 154.5000 139.2500 Du        
  21697 ****       114.7500 154.7500 138.5000 Du        
  21698 ****       114.7500 154.7500 138.7500 Du        
  21699 ****       114.7500 154.7500 139.0000 Du        
  21700 ****       114.7500 155.5000 106.7500 Du        
  21701 ****       114.7500 155.5000 107.0000 Du        
  21702 ****       114.7500 155.7500 106.7500 Du        
  21703 ****       114.7500 155.7500 107.0000 Du        
  21704 ****       114.7500 155.7500 107.2500 Du        
  21705 ****       114.7500 155.7500 107.5000 Du        
  21706 ****       114.7500 156.0000 106.5000 Du        
  21707 ****       114.7500 156.0000 106.7500 Du        
  21708 ****       114.7500 156.0000 107.0000 Du        
  21709 ****       114.7500 156.0000 107.2500 Du        
  21710 ****       114.7500 156.0000 107.5000 Du        
  21711 ****       114.7500 156.0000 107.7500 Du        
  21712 ****       114.7500 156.2500 106.2500 Du        
  21713 ****       114.7500 156.2500 106.5000 Du        
  21714 ****       114.7500 156.2500 106.7500 Du        
  21715 ****       114.7500 156.2500 107.0000 Du        
  21716 ****       114.7500 156.2500 107.2500 Du        
  21717 ****       114.7500 156.2500 107.5000 Du        
  21718 ****       114.7500 156.2500 107.7500 Du        
  21719 ****       114.7500 156.2500 108.0000 Du        
  21720 ****       114.7500 156.5000 106.2500 Du        
  21721 ****       114.7500 156.5000 106.5000 Du        
  21722 ****       114.7500 156.5000 106.7500 Du        
  21723 ****       114.7500 156.5000 107.0000 Du        
  21724 ****       114.7500 156.5000 107.2500 Du        
  21725 ****       114.7500 156.5000 107.5000 Du        
  21726 ****       114.7500 156.5000 107.7500 Du        
  21727 ****       114.7500 156.5000 108.0000 Du        
  21728 ****       114.7500 156.5000 108.2500 Du        
  21729 ****       114.7500 156.7500 106.2500 Du        
  21730 ****       114.7500 156.7500 106.5000 Du        
  21731 ****       114.7500 156.7500 106.7500 Du        
  21732 ****       114.7500 156.7500 107.0000 Du        
  21733 ****       114.7500 156.7500 107.2500 Du        
  21734 ****       114.7500 156.7500 107.5000 Du        
  21735 ****       114.7500 156.7500 107.7500 Du        
  21736 ****       114.7500 156.7500 108.0000 Du        
  21737 ****       114.7500 156.7500 108.2500 Du        
  21738 ****       114.7500 156.7500 108.5000 Du        
  21739 ****       114.7500 157.0000 106.0000 Du        
  21740 ****       114.7500 157.0000 106.2500 Du        
  21741 ****       114.7500 157.0000 106.5000 Du        
  21742 ****       114.7500 157.0000 106.7500 Du        
  21743 ****       114.7500 157.0000 107.0000 Du        
  21744 ****       114.7500 157.0000 107.2500 Du        
  21745 ****       114.7500 157.0000 107.5000 Du        
  21746 ****       114.7500 157.0000 107.7500 Du        
  21747 ****       114.7500 157.0000 108.0000 Du        
  21748 ****       114.7500 157.0000 108.2500 Du        
  21749 ****       114.7500 157.0000 108.5000 Du        
  21750 ****       114.7500 157.2500 106.7500 Du        
  21751 ****       114.7500 157.2500 107.0000 Du        
  21752 ****       114.7500 157.2500 107.2500 Du        
  21753 ****       114.7500 157.2500 107.5000 Du        
  21754 ****       114.7500 157.2500 107.7500 Du        
  21755 ****       114.7500 157.2500 108.0000 Du        
  21756 ****       114.7500 157.2500 108.2500 Du        
  21757 ****       114.7500 157.2500 108.5000 Du        
  21758 ****       114.7500 157.2500 108.7500 Du        
  21759 ****       114.7500 157.5000 107.5000 Du        
  21760 ****       114.7500 157.5000 107.7500 Du        
  21761 ****       114.7500 157.5000 108.0000 Du        
  21762 ****       114.7500 157.5000 108.2500 Du        
  21763 ****       114.7500 157.5000 108.5000 Du        
  21764 ****       114.7500 157.5000 108.7500 Du        
  21765 ****       114.7500 157.7500 107.7500 Du        
  21766 ****       114.7500 157.7500 108.0000 Du        
  21767 ****       114.7500 157.7500 108.2500 Du        
  21768 ****       114.7500 157.7500 108.5000 Du        
  21769 ****       114.7500 157.7500 108.7500 Du        
  21770 ****       114.7500 158.0000 108.0000 Du        
  21771 ****       114.7500 158.0000 108.2500 Du        
  21772 ****       114.7500 158.0000 108.5000 Du        
  21773 ****       114.7500 158.0000 108.7500 Du        
  21774 ****       114.7500 158.0000 109.0000 Du        
  21775 ****       114.7500 158.2500 108.7500 Du        
  21776 ****       114.7500 158.2500 109.0000 Du        
  21777 ****       114.7500 158.5000 109.0000 Du        
  21778 ****       114.7500 158.7500 109.0000 Du        
  21779 ****       114.7500 158.7500 109.2500 Du        
  21780 ****       114.7500 158.7500 109.5000 Du        
  21781 ****       114.7500 159.0000 109.0000 Du        
  21782 ****       114.7500 159.0000 109.2500 Du        
  21783 ****       114.7500 159.0000 109.5000 Du        
  21784 ****       114.7500 159.0000 109.7500 Du        
  21785 ****       114.7500 159.0000 110.0000 Du        
  21786 ****       114.7500 159.2500 109.2500 Du        
  21787 ****       114.7500 159.2500 109.5000 Du        
  21788 ****       114.7500 159.2500 109.7500 Du        
  21789 ****       114.7500 159.2500 110.0000 Du        
  21790 ****       114.7500 159.5000 109.5000 Du        
  21791 ****       114.7500 159.5000 109.7500 Du        
  21792 ****       114.7500 159.5000 110.0000 Du        
  21793 ****       114.7500 159.5000 145.0000 Du        
  21794 ****       114.7500 159.5000 145.2500 Du        
  21795 ****       114.7500 159.7500 109.5000 Du        
  21796 ****       114.7500 159.7500 109.7500 Du        
  21797 ****       114.7500 159.7500 110.0000 Du        
  21798 ****       114.7500 159.7500 144.7500 Du        
  21799 ****       114.7500 159.7500 145.0000 Du        
  21800 ****       114.7500 159.7500 145.2500 Du        
  21801 ****       114.7500 160.0000 109.5000 Du        
  21802 ****       114.7500 160.0000 109.7500 Du        
  21803 ****       114.7500 160.0000 144.7500 Du        
  21804 ****       114.7500 160.0000 145.0000 Du        
  21805 ****       114.7500 160.0000 145.2500 Du        
  21806 ****       114.7500 160.2500 144.7500 Du        
  21807 ****       114.7500 160.2500 145.0000 Du        
  21808 ****       114.7500 160.2500 145.2500 Du        
  21809 ****       114.7500 160.5000 144.7500 Du        
  21810 ****       114.7500 160.5000 145.0000 Du        
  21811 ****       114.7500 160.5000 145.2500 Du        
  21812 ****       114.7500 160.7500 144.7500 Du        
  21813 ****       114.7500 160.7500 145.0000 Du        
  21814 ****       114.7500 160.7500 145.2500 Du        
  21815 ****       114.7500 161.0000 145.0000 Du        
  21816 ****       114.7500 161.0000 145.2500 Du        
  21817 ****       114.7500 165.7500 138.7500 Du        
  21818 ****       114.7500 165.7500 139.0000 Du        
  21819 ****       114.7500 166.0000 138.2500 Du        
  21820 ****       114.7500 166.0000 138.5000 Du        
  21821 ****       114.7500 166.0000 138.7500 Du        
  21822 ****       114.7500 166.0000 139.0000 Du        
  21823 ****       114.7500 166.0000 139.2500 Du        
  21824 ****       114.7500 166.2500 138.0000 Du        
  21825 ****       114.7500 166.2500 138.2500 Du        
  21826 ****       114.7500 166.2500 138.5000 Du        
  21827 ****       114.7500 166.2500 138.7500 Du        
  21828 ****       114.7500 166.2500 139.0000 Du        
  21829 ****       114.7500 166.2500 139.2500 Du        
  21830 ****       114.7500 166.5000 138.0000 Du        
  21831 ****       114.7500 166.5000 138.2500 Du        
  21832 ****       114.7500 166.5000 138.5000 Du        
  21833 ****       114.7500 166.5000 138.7500 Du        
  21834 ****       114.7500 166.5000 139.0000 Du        
  21835 ****       114.7500 166.7500 138.7500 Du        
  21836 ****       115.0000 134.5000 121.2500 Du        
  21837 ****       115.0000 134.5000 121.5000 Du        
  21838 ****       115.0000 134.7500 121.0000 Du        
  21839 ****       115.0000 134.7500 121.2500 Du        
  21840 ****       115.0000 134.7500 121.5000 Du        
  21841 ****       115.0000 134.7500 121.7500 Du        
  21842 ****       115.0000 135.0000 120.7500 Du        
  21843 ****       115.0000 135.0000 121.0000 Du        
  21844 ****       115.0000 135.0000 121.2500 Du        
  21845 ****       115.0000 135.0000 121.5000 Du        
  21846 ****       115.0000 135.0000 121.7500 Du        
  21847 ****       115.0000 135.2500 120.5000 Du        
  21848 ****       115.0000 135.2500 120.7500 Du        
  21849 ****       115.0000 135.2500 121.0000 Du        
  21850 ****       115.0000 135.2500 121.2500 Du        
  21851 ****       115.0000 135.2500 121.5000 Du        
  21852 ****       115.0000 135.2500 121.7500 Du        
  21853 ****       115.0000 135.5000 120.2500 Du        
  21854 ****       115.0000 135.5000 120.5000 Du        
  21855 ****       115.0000 135.5000 120.7500 Du        
  21856 ****       115.0000 135.5000 121.0000 Du        
  21857 ****       115.0000 135.5000 121.2500 Du        
  21858 ****       115.0000 135.5000 121.5000 Du        
  21859 ****       115.0000 135.5000 121.7500 Du        
  21860 ****       115.0000 135.7500 120.0000 Du        
  21861 ****       115.0000 135.7500 120.2500 Du        
  21862 ****       115.0000 135.7500 120.5000 Du        
  21863 ****       115.0000 135.7500 120.7500 Du        
  21864 ****       115.0000 135.7500 121.0000 Du        
  21865 ****       115.0000 135.7500 121.2500 Du        
  21866 ****       115.0000 135.7500 121.5000 Du        
  21867 ****       115.0000 136.0000 120.0000 Du        
  21868 ****       115.0000 136.0000 120.2500 Du        
  21869 ****       115.0000 136.0000 120.5000 Du        
  21870 ****       115.0000 136.0000 120.7500 Du        
  21871 ****       115.0000 136.0000 121.0000 Du        
  21872 ****       115.0000 136.0000 121.2500 Du        
  21873 ****       115.0000 136.0000 121.5000 Du        
  21874 ****       115.0000 136.2500 119.7500 Du        
  21875 ****       115.0000 136.2500 120.0000 Du        
  21876 ****       115.0000 136.2500 120.2500 Du        
  21877 ****       115.0000 136.2500 120.5000 Du        
  21878 ****       115.0000 136.2500 120.7500 Du        
  21879 ****       115.0000 136.2500 121.0000 Du        
  21880 ****       115.0000 136.2500 121.2500 Du        
  21881 ****       115.0000 136.5000 119.2500 Du        
  21882 ****       115.0000 136.5000 119.5000 Du        
  21883 ****       115.0000 136.5000 119.7500 Du        
  21884 ****       115.0000 136.5000 120.0000 Du        
  21885 ****       115.0000 136.5000 120.2500 Du        
  21886 ****       115.0000 136.5000 120.5000 Du        
  21887 ****       115.0000 136.5000 120.7500 Du        
  21888 ****       115.0000 136.5000 121.0000 Du        
  21889 ****       115.0000 136.7500 117.2500 Du        
  21890 ****       115.0000 136.7500 117.7500 Du        
  21891 ****       115.0000 136.7500 118.0000 Du        
  21892 ****       115.0000 136.7500 118.2500 Du        
  21893 ****       115.0000 136.7500 118.7500 Du        
  21894 ****       115.0000 136.7500 119.0000 Du        
  21895 ****       115.0000 136.7500 119.2500 Du        
  21896 ****       115.0000 136.7500 119.5000 Du        
  21897 ****       115.0000 136.7500 119.7500 Du        
  21898 ****       115.0000 136.7500 120.0000 Du        
  21899 ****       115.0000 136.7500 120.2500 Du        
  21900 ****       115.0000 136.7500 120.5000 Du        
  21901 ****       115.0000 137.0000 116.7500 Du        
  21902 ****       115.0000 137.0000 117.0000 Du        
  21903 ****       115.0000 137.0000 117.2500 Du        
  21904 ****       115.0000 137.0000 117.5000 Du        
  21905 ****       115.0000 137.0000 117.7500 Du        
  21906 ****       115.0000 137.0000 118.0000 Du        
  21907 ****       115.0000 137.0000 118.2500 Du        
  21908 ****       115.0000 137.0000 118.5000 Du        
  21909 ****       115.0000 137.0000 118.7500 Du        
  21910 ****       115.0000 137.0000 119.0000 Du        
  21911 ****       115.0000 137.0000 119.2500 Du        
  21912 ****       115.0000 137.0000 119.5000 Du        
  21913 ****       115.0000 137.0000 119.7500 Du        
  21914 ****       115.0000 137.0000 120.0000 Du        
  21915 ****       115.0000 137.2500 116.7500 Du        
  21916 ****       115.0000 137.2500 117.0000 Du        
  21917 ****       115.0000 137.2500 117.2500 Du        
  21918 ****       115.0000 137.2500 117.5000 Du        
  21919 ****       115.0000 137.2500 117.7500 Du        
  21920 ****       115.0000 137.2500 118.0000 Du        
  21921 ****       115.0000 137.2500 118.2500 Du        
  21922 ****       115.0000 137.2500 118.5000 Du        
  21923 ****       115.0000 137.2500 118.7500 Du        
  21924 ****       115.0000 137.2500 119.0000 Du        
  21925 ****       115.0000 137.2500 119.2500 Du        
  21926 ****       115.0000 137.2500 119.5000 Du        
  21927 ****       115.0000 137.2500 119.7500 Du        
  21928 ****       115.0000 137.5000 116.7500 Du        
  21929 ****       115.0000 137.5000 117.0000 Du        
  21930 ****       115.0000 137.5000 117.2500 Du        
  21931 ****       115.0000 137.5000 117.5000 Du        
  21932 ****       115.0000 137.5000 117.7500 Du        
  21933 ****       115.0000 137.5000 118.0000 Du        
  21934 ****       115.0000 137.5000 118.2500 Du        
  21935 ****       115.0000 137.5000 118.5000 Du        
  21936 ****       115.0000 137.5000 118.7500 Du        
  21937 ****       115.0000 137.5000 119.0000 Du        
  21938 ****       115.0000 137.5000 119.2500 Du        
  21939 ****       115.0000 137.5000 119.5000 Du        
  21940 ****       115.0000 137.7500 116.7500 Du        
  21941 ****       115.0000 137.7500 117.0000 Du        
  21942 ****       115.0000 137.7500 117.2500 Du        
  21943 ****       115.0000 137.7500 117.5000 Du        
  21944 ****       115.0000 137.7500 117.7500 Du        
  21945 ****       115.0000 137.7500 118.5000 Du        
  21946 ****       115.0000 137.7500 118.7500 Du        
  21947 ****       115.0000 137.7500 119.0000 Du        
  21948 ****       115.0000 137.7500 119.2500 Du        
  21949 ****       115.0000 138.0000 131.0000 Du        
  21950 ****       115.0000 138.0000 131.2500 Du        
  21951 ****       115.0000 138.2500 131.7500 Du        
  21952 ****       115.0000 138.2500 132.0000 Du        
  21953 ****       115.0000 138.2500 132.2500 Du        
  21954 ****       115.0000 138.5000 131.7500 Du        
  21955 ****       115.0000 138.5000 132.0000 Du        
  21956 ****       115.0000 138.5000 132.2500 Du        
  21957 ****       115.0000 138.7500 132.0000 Du        
  21958 ****       115.0000 138.7500 132.2500 Du        
  21959 ****       115.0000 138.7500 132.5000 Du        
  21960 ****       115.0000 138.7500 132.7500 Du        
  21961 ****       115.0000 139.0000 132.0000 Du        
  21962 ****       115.0000 139.0000 132.2500 Du        
  21963 ****       115.0000 139.0000 132.5000 Du        
  21964 ****       115.0000 139.0000 132.7500 Du        
  21965 ****       115.0000 139.2500 132.2500 Du        
  21966 ****       115.0000 146.2500 106.0000 Du        
  21967 ****       115.0000 146.2500 106.5000 Du        
  21968 ****       115.0000 146.2500 106.7500 Du        
  21969 ****       115.0000 146.5000 106.0000 Du        
  21970 ****       115.0000 146.5000 106.2500 Du        
  21971 ****       115.0000 146.5000 106.5000 Du        
  21972 ****       115.0000 146.5000 106.7500 Du        
  21973 ****       115.0000 146.5000 107.0000 Du        
  21974 ****       115.0000 146.5000 107.2500 Du        
  21975 ****       115.0000 146.7500 106.0000 Du        
  21976 ****       115.0000 146.7500 106.2500 Du        
  21977 ****       115.0000 146.7500 106.5000 Du        
  21978 ****       115.0000 146.7500 106.7500 Du        
  21979 ****       115.0000 146.7500 107.0000 Du        
  21980 ****       115.0000 146.7500 107.2500 Du        
  21981 ****       115.0000 146.7500 107.5000 Du        
  21982 ****       115.0000 147.0000 106.0000 Du        
  21983 ****       115.0000 147.0000 106.2500 Du        
  21984 ****       115.0000 147.0000 106.5000 Du        
  21985 ****       115.0000 147.0000 106.7500 Du        
  21986 ****       115.0000 147.0000 107.0000 Du        
  21987 ****       115.0000 147.0000 107.2500 Du        
  21988 ****       115.0000 147.0000 107.5000 Du        
  21989 ****       115.0000 147.2500 106.0000 Du        
  21990 ****       115.0000 147.2500 106.2500 Du        
  21991 ****       115.0000 147.2500 106.5000 Du        
  21992 ****       115.0000 147.2500 106.7500 Du        
  21993 ****       115.0000 147.2500 107.0000 Du        
  21994 ****       115.0000 147.2500 107.2500 Du        
  21995 ****       115.0000 147.2500 107.5000 Du        
  21996 ****       115.0000 147.5000 106.0000 Du        
  21997 ****       115.0000 147.5000 106.2500 Du        
  21998 ****       115.0000 147.5000 106.5000 Du        
  21999 ****       115.0000 147.5000 106.7500 Du        
  22000 ****       115.0000 147.5000 107.0000 Du        
  22001 ****       115.0000 147.5000 107.2500 Du        
  22002 ****       115.0000 147.5000 107.5000 Du        
  22003 ****       115.0000 147.7500 106.0000 Du        
  22004 ****       115.0000 147.7500 106.2500 Du        
  22005 ****       115.0000 147.7500 106.5000 Du        
  22006 ****       115.0000 147.7500 106.7500 Du        
  22007 ****       115.0000 147.7500 107.0000 Du        
  22008 ****       115.0000 147.7500 107.2500 Du        
  22009 ****       115.0000 147.7500 107.5000 Du        
  22010 ****       115.0000 148.0000 106.0000 Du        
  22011 ****       115.0000 148.0000 106.2500 Du        
  22012 ****       115.0000 148.0000 106.5000 Du        
  22013 ****       115.0000 148.0000 106.7500 Du        
  22014 ****       115.0000 148.0000 107.0000 Du        
  22015 ****       115.0000 148.0000 107.2500 Du        
  22016 ****       115.0000 148.0000 107.5000 Du        
  22017 ****       115.0000 148.2500 106.0000 Du        
  22018 ****       115.0000 148.2500 106.2500 Du        
  22019 ****       115.0000 148.2500 106.5000 Du        
  22020 ****       115.0000 148.2500 106.7500 Du        
  22021 ****       115.0000 148.2500 107.0000 Du        
  22022 ****       115.0000 148.2500 107.2500 Du        
  22023 ****       115.0000 148.2500 107.5000 Du        
  22024 ****       115.0000 148.5000 106.0000 Du        
  22025 ****       115.0000 148.5000 106.2500 Du        
  22026 ****       115.0000 148.5000 106.5000 Du        
  22027 ****       115.0000 148.5000 106.7500 Du        
  22028 ****       115.0000 148.5000 107.0000 Du        
  22029 ****       115.0000 148.5000 107.2500 Du        
  22030 ****       115.0000 148.7500 106.0000 Du        
  22031 ****       115.0000 148.7500 106.2500 Du        
  22032 ****       115.0000 148.7500 106.5000 Du        
  22033 ****       115.0000 148.7500 106.7500 Du        
  22034 ****       115.0000 148.7500 107.0000 Du        
  22035 ****       115.0000 148.7500 107.2500 Du        
  22036 ****       115.0000 148.7500 107.5000 Du        
  22037 ****       115.0000 149.0000 106.0000 Du        
  22038 ****       115.0000 149.0000 106.2500 Du        
  22039 ****       115.0000 149.0000 106.5000 Du        
  22040 ****       115.0000 149.0000 106.7500 Du        
  22041 ****       115.0000 149.0000 107.0000 Du        
  22042 ****       115.0000 149.0000 107.2500 Du        
  22043 ****       115.0000 149.2500 106.0000 Du        
  22044 ****       115.0000 149.2500 106.2500 Du        
  22045 ****       115.0000 149.2500 106.5000 Du        
  22046 ****       115.0000 149.2500 106.7500 Du        
  22047 ****       115.0000 149.2500 107.0000 Du        
  22048 ****       115.0000 149.2500 107.2500 Du        
  22049 ****       115.0000 149.5000 106.2500 Du        
  22050 ****       115.0000 149.5000 106.5000 Du        
  22051 ****       115.0000 149.5000 106.7500 Du        
  22052 ****       115.0000 149.5000 107.0000 Du        
  22053 ****       115.0000 149.5000 107.2500 Du        
  22054 ****       115.0000 149.7500 106.5000 Du        
  22055 ****       115.0000 149.7500 106.7500 Du        
  22056 ****       115.0000 149.7500 107.0000 Du        
  22057 ****       115.0000 149.7500 107.2500 Du        
  22058 ****       115.0000 150.0000 106.7500 Du        
  22059 ****       115.0000 150.0000 107.0000 Du        
  22060 ****       115.0000 150.0000 107.2500 Du        
  22061 ****       115.0000 150.2500 106.7500 Du        
  22062 ****       115.0000 150.2500 107.0000 Du        
  22063 ****       115.0000 150.2500 107.2500 Du        
  22064 ****       115.0000 150.5000 107.0000 Du        
  22065 ****       115.0000 150.5000 107.2500 Du        
  22066 ****       115.0000 150.7500 107.0000 Du        
  22067 ****       115.0000 150.7500 107.2500 Du        
  22068 ****       115.0000 152.0000 138.2500 Du        
  22069 ****       115.0000 152.0000 138.7500 Du        
  22070 ****       115.0000 152.2500 138.0000 Du        
  22071 ****       115.0000 152.2500 138.2500 Du        
  22072 ****       115.0000 152.2500 138.5000 Du        
  22073 ****       115.0000 152.2500 138.7500 Du        
  22074 ****       115.0000 152.2500 139.0000 Du        
  22075 ****       115.0000 152.5000 137.7500 Du        
  22076 ****       115.0000 152.5000 138.0000 Du        
  22077 ****       115.0000 152.5000 138.2500 Du        
  22078 ****       115.0000 152.5000 138.5000 Du        
  22079 ****       115.0000 152.5000 138.7500 Du        
  22080 ****       115.0000 152.7500 137.2500 Du        
  22081 ****       115.0000 152.7500 137.5000 Du        
  22082 ****       115.0000 152.7500 137.7500 Du        
  22083 ****       115.0000 152.7500 138.0000 Du        
  22084 ****       115.0000 152.7500 138.2500 Du        
  22085 ****       115.0000 152.7500 138.5000 Du        
  22086 ****       115.0000 152.7500 138.7500 Du        
  22087 ****       115.0000 152.7500 139.0000 Du        
  22088 ****       115.0000 153.0000 137.0000 Du        
  22089 ****       115.0000 153.0000 137.2500 Du        
  22090 ****       115.0000 153.0000 137.5000 Du        
  22091 ****       115.0000 153.0000 137.7500 Du        
  22092 ****       115.0000 153.0000 138.0000 Du        
  22093 ****       115.0000 153.0000 138.2500 Du        
  22094 ****       115.0000 153.0000 138.5000 Du        
  22095 ****       115.0000 153.0000 138.7500 Du        
  22096 ****       115.0000 153.0000 139.0000 Du        
  22097 ****       115.0000 153.0000 139.2500 Du        
  22098 ****       115.0000 153.2500 136.7500 Du        
  22099 ****       115.0000 153.2500 137.0000 Du        
  22100 ****       115.0000 153.2500 137.2500 Du        
  22101 ****       115.0000 153.2500 137.5000 Du        
  22102 ****       115.0000 153.2500 137.7500 Du        
  22103 ****       115.0000 153.2500 138.0000 Du        
  22104 ****       115.0000 153.2500 138.2500 Du        
  22105 ****       115.0000 153.2500 138.5000 Du        
  22106 ****       115.0000 153.2500 138.7500 Du        
  22107 ****       115.0000 153.2500 139.0000 Du        
  22108 ****       115.0000 153.2500 139.2500 Du        
  22109 ****       115.0000 153.5000 136.7500 Du        
  22110 ****       115.0000 153.5000 137.0000 Du        
  22111 ****       115.0000 153.5000 137.2500 Du        
  22112 ****       115.0000 153.5000 137.5000 Du        
  22113 ****       115.0000 153.5000 137.7500 Du        
  22114 ****       115.0000 153.5000 138.0000 Du        
  22115 ****       115.0000 153.5000 138.2500 Du        
  22116 ****       115.0000 153.5000 138.5000 Du        
  22117 ****       115.0000 153.5000 138.7500 Du        
  22118 ****       115.0000 153.5000 139.0000 Du        
  22119 ****       115.0000 153.5000 139.2500 Du        
  22120 ****       115.0000 153.5000 139.5000 Du        
  22121 ****       115.0000 153.5000 139.7500 Du        
  22122 ****       115.0000 153.7500 137.0000 Du        
  22123 ****       115.0000 153.7500 137.2500 Du        
  22124 ****       115.0000 153.7500 137.5000 Du        
  22125 ****       115.0000 153.7500 137.7500 Du        
  22126 ****       115.0000 153.7500 138.0000 Du        
  22127 ****       115.0000 153.7500 138.2500 Du        
  22128 ****       115.0000 153.7500 138.5000 Du        
  22129 ****       115.0000 153.7500 138.7500 Du        
  22130 ****       115.0000 153.7500 139.0000 Du        
  22131 ****       115.0000 153.7500 139.2500 Du        
  22132 ****       115.0000 153.7500 139.5000 Du        
  22133 ****       115.0000 153.7500 139.7500 Du        
  22134 ****       115.0000 154.0000 137.2500 Du        
  22135 ****       115.0000 154.0000 137.5000 Du        
  22136 ****       115.0000 154.0000 137.7500 Du        
  22137 ****       115.0000 154.0000 138.0000 Du        
  22138 ****       115.0000 154.0000 138.2500 Du        
  22139 ****       115.0000 154.0000 138.5000 Du        
  22140 ****       115.0000 154.0000 138.7500 Du        
  22141 ****       115.0000 154.0000 139.0000 Du        
  22142 ****       115.0000 154.0000 139.2500 Du        
  22143 ****       115.0000 154.0000 139.5000 Du        
  22144 ****       115.0000 154.0000 139.7500 Du        
  22145 ****       115.0000 154.2500 137.5000 Du        
  22146 ****       115.0000 154.2500 137.7500 Du        
  22147 ****       115.0000 154.2500 138.0000 Du        
  22148 ****       115.0000 154.2500 138.2500 Du        
  22149 ****       115.0000 154.2500 138.5000 Du        
  22150 ****       115.0000 154.2500 138.7500 Du        
  22151 ****       115.0000 154.2500 139.0000 Du        
  22152 ****       115.0000 154.2500 139.2500 Du        
  22153 ****       115.0000 154.2500 139.5000 Du        
  22154 ****       115.0000 154.5000 138.0000 Du        
  22155 ****       115.0000 154.5000 138.2500 Du        
  22156 ****       115.0000 154.5000 138.5000 Du        
  22157 ****       115.0000 154.5000 138.7500 Du        
  22158 ****       115.0000 154.5000 139.0000 Du        
  22159 ****       115.0000 154.5000 139.2500 Du        
  22160 ****       115.0000 154.7500 138.2500 Du        
  22161 ****       115.0000 154.7500 138.5000 Du        
  22162 ****       115.0000 154.7500 138.7500 Du        
  22163 ****       115.0000 154.7500 139.0000 Du        
  22164 ****       115.0000 155.0000 138.7500 Du        
  22165 ****       115.0000 155.2500 106.7500 Du        
  22166 ****       115.0000 155.2500 107.0000 Du        
  22167 ****       115.0000 155.5000 106.7500 Du        
  22168 ****       115.0000 155.5000 107.0000 Du        
  22169 ****       115.0000 155.7500 106.5000 Du        
  22170 ****       115.0000 155.7500 106.7500 Du        
  22171 ****       115.0000 155.7500 107.0000 Du        
  22172 ****       115.0000 155.7500 107.2500 Du        
  22173 ****       115.0000 156.0000 106.2500 Du        
  22174 ****       115.0000 156.0000 106.5000 Du        
  22175 ****       115.0000 156.0000 106.7500 Du        
  22176 ****       115.0000 156.0000 107.0000 Du        
  22177 ****       115.0000 156.0000 107.2500 Du        
  22178 ****       115.0000 156.0000 107.5000 Du        
  22179 ****       115.0000 156.0000 107.7500 Du        
  22180 ****       115.0000 156.2500 106.2500 Du        
  22181 ****       115.0000 156.2500 106.5000 Du        
  22182 ****       115.0000 156.2500 106.7500 Du        
  22183 ****       115.0000 156.2500 107.0000 Du        
  22184 ****       115.0000 156.2500 107.2500 Du        
  22185 ****       115.0000 156.2500 107.5000 Du        
  22186 ****       115.0000 156.2500 107.7500 Du        
  22187 ****       115.0000 156.2500 108.0000 Du        
  22188 ****       115.0000 156.5000 106.2500 Du        
  22189 ****       115.0000 156.5000 106.5000 Du        
  22190 ****       115.0000 156.5000 106.7500 Du        
  22191 ****       115.0000 156.5000 107.0000 Du        
  22192 ****       115.0000 156.5000 107.2500 Du        
  22193 ****       115.0000 156.5000 107.5000 Du        
  22194 ****       115.0000 156.5000 107.7500 Du        
  22195 ****       115.0000 156.5000 108.0000 Du        
  22196 ****       115.0000 156.5000 108.2500 Du        
  22197 ****       115.0000 156.7500 106.0000 Du        
  22198 ****       115.0000 156.7500 106.2500 Du        
  22199 ****       115.0000 156.7500 106.5000 Du        
  22200 ****       115.0000 156.7500 106.7500 Du        
  22201 ****       115.0000 156.7500 107.0000 Du        
  22202 ****       115.0000 156.7500 107.2500 Du        
  22203 ****       115.0000 156.7500 107.5000 Du        
  22204 ****       115.0000 156.7500 107.7500 Du        
  22205 ****       115.0000 156.7500 108.0000 Du        
  22206 ****       115.0000 156.7500 108.2500 Du        
  22207 ****       115.0000 157.0000 106.0000 Du        
  22208 ****       115.0000 157.0000 106.2500 Du        
  22209 ****       115.0000 157.0000 106.5000 Du        
  22210 ****       115.0000 157.0000 106.7500 Du        
  22211 ****       115.0000 157.0000 107.0000 Du        
  22212 ****       115.0000 157.0000 107.2500 Du        
  22213 ****       115.0000 157.0000 107.5000 Du        
  22214 ****       115.0000 157.0000 107.7500 Du        
  22215 ****       115.0000 157.0000 108.0000 Du        
  22216 ****       115.0000 157.0000 108.2500 Du        
  22217 ****       115.0000 157.0000 108.5000 Du        
  22218 ****       115.0000 157.2500 106.0000 Du        
  22219 ****       115.0000 157.2500 106.2500 Du        
  22220 ****       115.0000 157.2500 106.5000 Du        
  22221 ****       115.0000 157.2500 106.7500 Du        
  22222 ****       115.0000 157.2500 107.0000 Du        
  22223 ****       115.0000 157.2500 107.2500 Du        
  22224 ****       115.0000 157.2500 107.5000 Du        
  22225 ****       115.0000 157.2500 107.7500 Du        
  22226 ****       115.0000 157.2500 108.0000 Du        
  22227 ****       115.0000 157.2500 108.2500 Du        
  22228 ****       115.0000 157.2500 108.5000 Du        
  22229 ****       115.0000 157.5000 107.0000 Du        
  22230 ****       115.0000 157.5000 107.2500 Du        
  22231 ****       115.0000 157.5000 107.5000 Du        
  22232 ****       115.0000 157.5000 107.7500 Du        
  22233 ****       115.0000 157.5000 108.0000 Du        
  22234 ****       115.0000 157.5000 108.2500 Du        
  22235 ****       115.0000 157.5000 108.5000 Du        
  22236 ****       115.0000 157.5000 108.7500 Du        
  22237 ****       115.0000 157.7500 107.5000 Du        
  22238 ****       115.0000 157.7500 107.7500 Du        
  22239 ****       115.0000 157.7500 108.0000 Du        
  22240 ****       115.0000 157.7500 108.2500 Du        
  22241 ****       115.0000 157.7500 108.5000 Du        
  22242 ****       115.0000 157.7500 108.7500 Du        
  22243 ****       115.0000 158.0000 107.7500 Du        
  22244 ****       115.0000 158.0000 108.0000 Du        
  22245 ****       115.0000 158.0000 108.2500 Du        
  22246 ****       115.0000 158.0000 108.5000 Du        
  22247 ****       115.0000 158.0000 108.7500 Du        
  22248 ****       115.0000 158.0000 109.0000 Du        
  22249 ****       115.0000 158.2500 108.0000 Du        
  22250 ****       115.0000 158.2500 108.2500 Du        
  22251 ****       115.0000 158.2500 108.5000 Du        
  22252 ****       115.0000 158.2500 108.7500 Du        
  22253 ****       115.0000 158.2500 109.0000 Du        
  22254 ****       115.0000 158.5000 108.5000 Du        
  22255 ****       115.0000 158.5000 108.7500 Du        
  22256 ****       115.0000 158.5000 109.0000 Du        
  22257 ****       115.0000 158.5000 109.2500 Du        
  22258 ****       115.0000 158.7500 108.7500 Du        
  22259 ****       115.0000 158.7500 109.0000 Du        
  22260 ****       115.0000 158.7500 109.2500 Du        
  22261 ****       115.0000 158.7500 109.5000 Du        
  22262 ****       115.0000 159.0000 108.7500 Du        
  22263 ****       115.0000 159.0000 109.0000 Du        
  22264 ****       115.0000 159.0000 109.2500 Du        
  22265 ****       115.0000 159.0000 109.5000 Du        
  22266 ****       115.0000 159.0000 109.7500 Du        
  22267 ****       115.0000 159.2500 108.7500 Du        
  22268 ****       115.0000 159.2500 109.0000 Du        
  22269 ****       115.0000 159.2500 109.2500 Du        
  22270 ****       115.0000 159.2500 109.5000 Du        
  22271 ****       115.0000 159.2500 109.7500 Du        
  22272 ****       115.0000 159.2500 110.0000 Du        
  22273 ****       115.0000 159.5000 109.2500 Du        
  22274 ****       115.0000 159.5000 109.5000 Du        
  22275 ****       115.0000 159.5000 109.7500 Du        
  22276 ****       115.0000 159.5000 110.0000 Du        
  22277 ****       115.0000 159.5000 145.0000 Du        
  22278 ****       115.0000 159.5000 145.2500 Du        
  22279 ****       115.0000 159.7500 109.2500 Du        
  22280 ****       115.0000 159.7500 109.5000 Du        
  22281 ****       115.0000 159.7500 109.7500 Du        
  22282 ****       115.0000 159.7500 110.0000 Du        
  22283 ****       115.0000 159.7500 144.7500 Du        
  22284 ****       115.0000 159.7500 145.0000 Du        
  22285 ****       115.0000 159.7500 145.2500 Du        
  22286 ****       115.0000 159.7500 145.5000 Du        
  22287 ****       115.0000 160.0000 109.2500 Du        
  22288 ****       115.0000 160.0000 109.5000 Du        
  22289 ****       115.0000 160.0000 109.7500 Du        
  22290 ****       115.0000 160.0000 144.7500 Du        
  22291 ****       115.0000 160.0000 145.0000 Du        
  22292 ****       115.0000 160.0000 145.2500 Du        
  22293 ****       115.0000 160.0000 145.5000 Du        
  22294 ****       115.0000 160.2500 144.7500 Du        
  22295 ****       115.0000 160.2500 145.0000 Du        
  22296 ****       115.0000 160.2500 145.2500 Du        
  22297 ****       115.0000 160.2500 145.5000 Du        
  22298 ****       115.0000 160.5000 144.7500 Du        
  22299 ****       115.0000 160.5000 145.0000 Du        
  22300 ****       115.0000 160.5000 145.2500 Du        
  22301 ****       115.0000 160.5000 145.5000 Du        
  22302 ****       115.0000 160.7500 145.0000 Du        
  22303 ****       115.0000 160.7500 145.2500 Du        
  22304 ****       115.0000 160.7500 145.5000 Du        
  22305 ****       115.0000 161.0000 145.0000 Du        
  22306 ****       115.0000 161.0000 145.2500 Du        
  22307 ****       115.0000 161.0000 145.5000 Du        
  22308 ****       115.0000 166.2500 138.2500 Du        
  22309 ****       115.0000 166.2500 138.5000 Du        
  22310 ****       115.0000 166.2500 138.7500 Du        
  22311 ****       115.0000 166.5000 138.2500 Du        
  22312 ****       115.0000 166.5000 138.5000 Du        
  22313 ****       115.0000 166.5000 138.7500 Du        
  22314 ****       115.2500 134.7500 121.2500 Du        
  22315 ****       115.2500 134.7500 121.5000 Du        
  22316 ****       115.2500 134.7500 121.7500 Du        
  22317 ****       115.2500 135.0000 121.0000 Du        
  22318 ****       115.2500 135.0000 121.2500 Du        
  22319 ****       115.2500 135.0000 121.5000 Du        
  22320 ****       115.2500 135.0000 121.7500 Du        
  22321 ****       115.2500 135.2500 120.5000 Du        
  22322 ****       115.2500 135.2500 120.7500 Du        
  22323 ****       115.2500 135.2500 121.0000 Du        
  22324 ****       115.2500 135.2500 121.2500 Du        
  22325 ****       115.2500 135.2500 121.5000 Du        
  22326 ****       115.2500 135.2500 121.7500 Du        
  22327 ****       115.2500 135.5000 120.2500 Du        
  22328 ****       115.2500 135.5000 120.5000 Du        
  22329 ****       115.2500 135.5000 120.7500 Du        
  22330 ****       115.2500 135.5000 121.0000 Du        
  22331 ****       115.2500 135.5000 121.2500 Du        
  22332 ****       115.2500 135.5000 121.5000 Du        
  22333 ****       115.2500 135.5000 121.7500 Du        
  22334 ****       115.2500 135.7500 120.0000 Du        
  22335 ****       115.2500 135.7500 120.2500 Du        
  22336 ****       115.2500 135.7500 120.5000 Du        
  22337 ****       115.2500 135.7500 120.7500 Du        
  22338 ****       115.2500 135.7500 121.0000 Du        
  22339 ****       115.2500 135.7500 121.2500 Du        
  22340 ****       115.2500 135.7500 121.5000 Du        
  22341 ****       115.2500 136.0000 119.7500 Du        
  22342 ****       115.2500 136.0000 120.0000 Du        
  22343 ****       115.2500 136.0000 120.2500 Du        
  22344 ****       115.2500 136.0000 120.5000 Du        
  22345 ****       115.2500 136.0000 120.7500 Du        
  22346 ****       115.2500 136.0000 121.0000 Du        
  22347 ****       115.2500 136.0000 121.2500 Du        
  22348 ****       115.2500 136.2500 119.5000 Du        
  22349 ****       115.2500 136.2500 119.7500 Du        
  22350 ****       115.2500 136.2500 120.0000 Du        
  22351 ****       115.2500 136.2500 120.2500 Du        
  22352 ****       115.2500 136.2500 120.5000 Du        
  22353 ****       115.2500 136.2500 120.7500 Du        
  22354 ****       115.2500 136.2500 121.0000 Du        
  22355 ****       115.2500 136.2500 121.2500 Du        
  22356 ****       115.2500 136.5000 116.0000 Du        
  22357 ****       115.2500 136.5000 116.2500 Du        
  22358 ****       115.2500 136.5000 116.5000 Du        
  22359 ****       115.2500 136.5000 116.7500 Du        
  22360 ****       115.2500 136.5000 117.0000 Du        
  22361 ****       115.2500 136.5000 117.2500 Du        
  22362 ****       115.2500 136.5000 117.7500 Du        
  22363 ****       115.2500 136.5000 118.0000 Du        
  22364 ****       115.2500 136.5000 118.2500 Du        
  22365 ****       115.2500 136.5000 118.7500 Du        
  22366 ****       115.2500 136.5000 119.0000 Du        
  22367 ****       115.2500 136.5000 119.2500 Du        
  22368 ****       115.2500 136.5000 119.5000 Du        
  22369 ****       115.2500 136.5000 119.7500 Du        
  22370 ****       115.2500 136.5000 120.0000 Du        
  22371 ****       115.2500 136.5000 120.2500 Du        
  22372 ****       115.2500 136.5000 120.5000 Du        
  22373 ****       115.2500 136.5000 120.7500 Du        
  22374 ****       115.2500 136.5000 121.0000 Du        
  22375 ****       115.2500 136.7500 116.0000 Du        
  22376 ****       115.2500 136.7500 116.2500 Du        
  22377 ****       115.2500 136.7500 116.5000 Du        
  22378 ****       115.2500 136.7500 116.7500 Du        
  22379 ****       115.2500 136.7500 117.0000 Du        
  22380 ****       115.2500 136.7500 117.2500 Du        
  22381 ****       115.2500 136.7500 117.5000 Du        
  22382 ****       115.2500 136.7500 117.7500 Du        
  22383 ****       115.2500 136.7500 118.0000 Du        
  22384 ****       115.2500 136.7500 118.2500 Du        
  22385 ****       115.2500 136.7500 118.5000 Du        
  22386 ****       115.2500 136.7500 118.7500 Du        
  22387 ****       115.2500 136.7500 119.0000 Du        
  22388 ****       115.2500 136.7500 119.2500 Du        
  22389 ****       115.2500 136.7500 119.5000 Du        
  22390 ****       115.2500 136.7500 119.7500 Du        
  22391 ****       115.2500 136.7500 120.0000 Du        
  22392 ****       115.2500 136.7500 120.2500 Du        
  22393 ****       115.2500 136.7500 120.5000 Du        
  22394 ****       115.2500 137.0000 116.0000 Du        
  22395 ****       115.2500 137.0000 116.2500 Du        
  22396 ****       115.2500 137.0000 116.5000 Du        
  22397 ****       115.2500 137.0000 116.7500 Du        
  22398 ****       115.2500 137.0000 117.0000 Du        
  22399 ****       115.2500 137.0000 117.2500 Du        
  22400 ****       115.2500 137.0000 117.5000 Du        
  22401 ****       115.2500 137.0000 117.7500 Du        
  22402 ****       115.2500 137.0000 118.0000 Du        
  22403 ****       115.2500 137.0000 118.2500 Du        
  22404 ****       115.2500 137.0000 118.5000 Du        
  22405 ****       115.2500 137.0000 118.7500 Du        
  22406 ****       115.2500 137.0000 119.0000 Du        
  22407 ****       115.2500 137.0000 119.2500 Du        
  22408 ****       115.2500 137.0000 119.5000 Du        
  22409 ****       115.2500 137.0000 119.7500 Du        
  22410 ****       115.2500 137.0000 120.0000 Du        
  22411 ****       115.2500 137.0000 120.2500 Du        
  22412 ****       115.2500 137.2500 116.2500 Du        
  22413 ****       115.2500 137.2500 116.5000 Du        
  22414 ****       115.2500 137.2500 116.7500 Du        
  22415 ****       115.2500 137.2500 117.0000 Du        
  22416 ****       115.2500 137.2500 117.2500 Du        
  22417 ****       115.2500 137.2500 117.5000 Du        
  22418 ****       115.2500 137.2500 117.7500 Du        
  22419 ****       115.2500 137.2500 118.0000 Du        
  22420 ****       115.2500 137.2500 118.2500 Du        
  22421 ****       115.2500 137.2500 118.5000 Du        
  22422 ****       115.2500 137.2500 118.7500 Du        
  22423 ****       115.2500 137.2500 119.0000 Du        
  22424 ****       115.2500 137.2500 119.2500 Du        
  22425 ****       115.2500 137.2500 119.5000 Du        
  22426 ****       115.2500 137.2500 119.7500 Du        
  22427 ****       115.2500 137.2500 120.0000 Du        
  22428 ****       115.2500 137.5000 116.2500 Du        
  22429 ****       115.2500 137.5000 116.5000 Du        
  22430 ****       115.2500 137.5000 116.7500 Du        
  22431 ****       115.2500 137.5000 117.0000 Du        
  22432 ****       115.2500 137.5000 117.2500 Du        
  22433 ****       115.2500 137.5000 117.5000 Du        
  22434 ****       115.2500 137.5000 117.7500 Du        
  22435 ****       115.2500 137.5000 118.0000 Du        
  22436 ****       115.2500 137.5000 118.2500 Du        
  22437 ****       115.2500 137.5000 118.5000 Du        
  22438 ****       115.2500 137.5000 118.7500 Du        
  22439 ****       115.2500 137.5000 119.0000 Du        
  22440 ****       115.2500 137.5000 119.2500 Du        
  22441 ****       115.2500 137.5000 119.5000 Du        
  22442 ****       115.2500 137.5000 119.7500 Du        
  22443 ****       115.2500 137.7500 116.2500 Du        
  22444 ****       115.2500 137.7500 116.5000 Du        
  22445 ****       115.2500 137.7500 116.7500 Du        
  22446 ****       115.2500 137.7500 117.0000 Du        
  22447 ****       115.2500 137.7500 117.2500 Du        
  22448 ****       115.2500 137.7500 117.5000 Du        
  22449 ****       115.2500 137.7500 118.5000 Du        
  22450 ****       115.2500 137.7500 118.7500 Du        
  22451 ****       115.2500 137.7500 119.0000 Du        
  22452 ****       115.2500 137.7500 119.2500 Du        
  22453 ****       115.2500 138.0000 131.0000 Du        
  22454 ****       115.2500 138.0000 131.2500 Du        
  22455 ****       115.2500 138.2500 131.0000 Du        
  22456 ****       115.2500 138.2500 131.2500 Du        
  22457 ****       115.2500 138.2500 131.5000 Du        
  22458 ****       115.2500 138.2500 131.7500 Du        
  22459 ****       115.2500 138.2500 132.0000 Du        
  22460 ****       115.2500 138.2500 132.2500 Du        
  22461 ****       115.2500 138.5000 130.7500 Du        
  22462 ****       115.2500 138.5000 131.0000 Du        
  22463 ****       115.2500 138.5000 131.2500 Du        
  22464 ****       115.2500 138.5000 131.5000 Du        
  22465 ****       115.2500 138.5000 131.7500 Du        
  22466 ****       115.2500 138.5000 132.0000 Du        
  22467 ****       115.2500 138.5000 132.2500 Du        
  22468 ****       115.2500 138.5000 132.5000 Du        
  22469 ****       115.2500 138.7500 130.7500 Du        
  22470 ****       115.2500 138.7500 131.0000 Du        
  22471 ****       115.2500 138.7500 131.2500 Du        
  22472 ****       115.2500 138.7500 131.5000 Du        
  22473 ****       115.2500 138.7500 131.7500 Du        
  22474 ****       115.2500 138.7500 132.0000 Du        
  22475 ****       115.2500 138.7500 132.2500 Du        
  22476 ****       115.2500 138.7500 132.5000 Du        
  22477 ****       115.2500 138.7500 132.7500 Du        
  22478 ****       115.2500 139.0000 130.7500 Du        
  22479 ****       115.2500 139.0000 131.0000 Du        
  22480 ****       115.2500 139.0000 131.2500 Du        
  22481 ****       115.2500 139.0000 131.5000 Du        
  22482 ****       115.2500 139.0000 131.7500 Du        
  22483 ****       115.2500 139.0000 132.0000 Du        
  22484 ****       115.2500 139.0000 132.2500 Du        
  22485 ****       115.2500 139.0000 132.5000 Du        
  22486 ****       115.2500 139.0000 132.7500 Du        
  22487 ****       115.2500 139.2500 131.0000 Du        
  22488 ****       115.2500 139.2500 131.2500 Du        
  22489 ****       115.2500 139.2500 131.5000 Du        
  22490 ****       115.2500 139.2500 131.7500 Du        
  22491 ****       115.2500 139.2500 132.0000 Du        
  22492 ****       115.2500 139.2500 132.2500 Du        
  22493 ****       115.2500 139.5000 131.7500 Du        
  22494 ****       115.2500 139.5000 132.0000 Du        
  22495 ****       115.2500 146.2500 106.0000 Du        
  22496 ****       115.2500 146.2500 106.2500 Du        
  22497 ****       115.2500 146.5000 106.0000 Du        
  22498 ****       115.2500 146.5000 106.2500 Du        
  22499 ****       115.2500 146.5000 106.5000 Du        
  22500 ****       115.2500 146.5000 106.7500 Du        
  22501 ****       115.2500 146.7500 106.0000 Du        
  22502 ****       115.2500 146.7500 106.2500 Du        
  22503 ****       115.2500 146.7500 106.5000 Du        
  22504 ****       115.2500 146.7500 106.7500 Du        
  22505 ****       115.2500 146.7500 107.0000 Du        
  22506 ****       115.2500 146.7500 107.2500 Du        
  22507 ****       115.2500 147.0000 106.0000 Du        
  22508 ****       115.2500 147.0000 106.2500 Du        
  22509 ****       115.2500 147.0000 106.5000 Du        
  22510 ****       115.2500 147.0000 106.7500 Du        
  22511 ****       115.2500 147.0000 107.0000 Du        
  22512 ****       115.2500 147.0000 107.2500 Du        
  22513 ****       115.2500 147.0000 107.5000 Du        
  22514 ****       115.2500 147.2500 106.0000 Du        
  22515 ****       115.2500 147.2500 106.2500 Du        
  22516 ****       115.2500 147.2500 106.5000 Du        
  22517 ****       115.2500 147.2500 106.7500 Du        
  22518 ****       115.2500 147.2500 107.0000 Du        
  22519 ****       115.2500 147.2500 107.2500 Du        
  22520 ****       115.2500 147.2500 107.5000 Du        
  22521 ****       115.2500 147.5000 106.0000 Du        
  22522 ****       115.2500 147.5000 106.2500 Du        
  22523 ****       115.2500 147.5000 106.5000 Du        
  22524 ****       115.2500 147.5000 106.7500 Du        
  22525 ****       115.2500 147.5000 107.0000 Du        
  22526 ****       115.2500 147.5000 107.2500 Du        
  22527 ****       115.2500 147.5000 107.5000 Du        
  22528 ****       115.2500 147.7500 106.0000 Du        
  22529 ****       115.2500 147.7500 106.2500 Du        
  22530 ****       115.2500 147.7500 106.5000 Du        
  22531 ****       115.2500 147.7500 106.7500 Du        
  22532 ****       115.2500 147.7500 107.0000 Du        
  22533 ****       115.2500 147.7500 107.2500 Du        
  22534 ****       115.2500 147.7500 107.5000 Du        
  22535 ****       115.2500 148.0000 106.0000 Du        
  22536 ****       115.2500 148.0000 106.2500 Du        
  22537 ****       115.2500 148.0000 106.5000 Du        
  22538 ****       115.2500 148.0000 106.7500 Du        
  22539 ****       115.2500 148.0000 107.0000 Du        
  22540 ****       115.2500 148.0000 107.2500 Du        
  22541 ****       115.2500 148.0000 107.5000 Du        
  22542 ****       115.2500 148.2500 106.0000 Du        
  22543 ****       115.2500 148.2500 106.2500 Du        
  22544 ****       115.2500 148.2500 106.5000 Du        
  22545 ****       115.2500 148.2500 106.7500 Du        
  22546 ****       115.2500 148.2500 107.0000 Du        
  22547 ****       115.2500 148.2500 107.2500 Du        
  22548 ****       115.2500 148.2500 107.5000 Du        
  22549 ****       115.2500 148.5000 106.0000 Du        
  22550 ****       115.2500 148.5000 106.2500 Du        
  22551 ****       115.2500 148.5000 106.5000 Du        
  22552 ****       115.2500 148.5000 106.7500 Du        
  22553 ****       115.2500 148.5000 107.0000 Du        
  22554 ****       115.2500 148.5000 107.2500 Du        
  22555 ****       115.2500 148.5000 107.5000 Du        
  22556 ****       115.2500 148.7500 106.0000 Du        
  22557 ****       115.2500 148.7500 106.2500 Du        
  22558 ****       115.2500 148.7500 106.5000 Du        
  22559 ****       115.2500 148.7500 106.7500 Du        
  22560 ****       115.2500 148.7500 107.0000 Du        
  22561 ****       115.2500 148.7500 107.2500 Du        
  22562 ****       115.2500 148.7500 107.5000 Du        
  22563 ****       115.2500 149.0000 106.0000 Du        
  22564 ****       115.2500 149.0000 106.2500 Du        
  22565 ****       115.2500 149.0000 106.5000 Du        
  22566 ****       115.2500 149.0000 106.7500 Du        
  22567 ****       115.2500 149.0000 107.0000 Du        
  22568 ****       115.2500 149.0000 107.2500 Du        
  22569 ****       115.2500 149.2500 106.0000 Du        
  22570 ****       115.2500 149.2500 106.2500 Du        
  22571 ****       115.2500 149.2500 106.5000 Du        
  22572 ****       115.2500 149.2500 106.7500 Du        
  22573 ****       115.2500 149.2500 107.0000 Du        
  22574 ****       115.2500 149.2500 107.2500 Du        
  22575 ****       115.2500 149.5000 106.2500 Du        
  22576 ****       115.2500 149.5000 106.5000 Du        
  22577 ****       115.2500 149.5000 106.7500 Du        
  22578 ****       115.2500 149.5000 107.0000 Du        
  22579 ****       115.2500 149.5000 107.2500 Du        
  22580 ****       115.2500 149.7500 106.2500 Du        
  22581 ****       115.2500 149.7500 106.5000 Du        
  22582 ****       115.2500 149.7500 106.7500 Du        
  22583 ****       115.2500 149.7500 107.0000 Du        
  22584 ****       115.2500 149.7500 107.2500 Du        
  22585 ****       115.2500 150.0000 106.5000 Du        
  22586 ****       115.2500 150.0000 106.7500 Du        
  22587 ****       115.2500 150.0000 107.0000 Du        
  22588 ****       115.2500 150.0000 107.2500 Du        
  22589 ****       115.2500 150.2500 106.5000 Du        
  22590 ****       115.2500 150.2500 106.7500 Du        
  22591 ****       115.2500 150.2500 107.0000 Du        
  22592 ****       115.2500 150.2500 107.2500 Du        
  22593 ****       115.2500 150.5000 106.7500 Du        
  22594 ****       115.2500 150.5000 107.0000 Du        
  22595 ****       115.2500 150.5000 107.2500 Du        
  22596 ****       115.2500 150.7500 106.7500 Du        
  22597 ****       115.2500 150.7500 107.0000 Du        
  22598 ****       115.2500 150.7500 107.2500 Du        
  22599 ****       115.2500 151.0000 106.7500 Du        
  22600 ****       115.2500 151.0000 107.0000 Du        
  22601 ****       115.2500 151.0000 107.2500 Du        
  22602 ****       115.2500 151.2500 106.7500 Du        
  22603 ****       115.2500 151.2500 107.0000 Du        
  22604 ****       115.2500 151.2500 107.2500 Du        
  22605 ****       115.2500 152.2500 138.0000 Du        
  22606 ****       115.2500 152.2500 138.2500 Du        
  22607 ****       115.2500 152.2500 138.5000 Du        
  22608 ****       115.2500 152.2500 138.7500 Du        
  22609 ****       115.2500 152.5000 137.7500 Du        
  22610 ****       115.2500 152.5000 138.0000 Du        
  22611 ****       115.2500 152.5000 138.2500 Du        
  22612 ****       115.2500 152.5000 138.5000 Du        
  22613 ****       115.2500 152.7500 137.2500 Du        
  22614 ****       115.2500 152.7500 137.5000 Du        
  22615 ****       115.2500 152.7500 137.7500 Du        
  22616 ****       115.2500 152.7500 138.0000 Du        
  22617 ****       115.2500 152.7500 138.2500 Du        
  22618 ****       115.2500 152.7500 138.5000 Du        
  22619 ****       115.2500 152.7500 138.7500 Du        
  22620 ****       115.2500 153.0000 137.0000 Du        
  22621 ****       115.2500 153.0000 137.2500 Du        
  22622 ****       115.2500 153.0000 137.5000 Du        
  22623 ****       115.2500 153.0000 137.7500 Du        
  22624 ****       115.2500 153.0000 138.0000 Du        
  22625 ****       115.2500 153.0000 138.2500 Du        
  22626 ****       115.2500 153.0000 138.5000 Du        
  22627 ****       115.2500 153.0000 138.7500 Du        
  22628 ****       115.2500 153.0000 139.0000 Du        
  22629 ****       115.2500 153.2500 136.7500 Du        
  22630 ****       115.2500 153.2500 137.0000 Du        
  22631 ****       115.2500 153.2500 137.2500 Du        
  22632 ****       115.2500 153.2500 137.5000 Du        
  22633 ****       115.2500 153.2500 137.7500 Du        
  22634 ****       115.2500 153.2500 138.0000 Du        
  22635 ****       115.2500 153.2500 138.2500 Du        
  22636 ****       115.2500 153.2500 138.5000 Du        
  22637 ****       115.2500 153.2500 138.7500 Du        
  22638 ****       115.2500 153.2500 139.0000 Du        
  22639 ****       115.2500 153.2500 139.2500 Du        
  22640 ****       115.2500 153.5000 136.7500 Du        
  22641 ****       115.2500 153.5000 137.0000 Du        
  22642 ****       115.2500 153.5000 137.2500 Du        
  22643 ****       115.2500 153.5000 137.5000 Du        
  22644 ****       115.2500 153.5000 137.7500 Du        
  22645 ****       115.2500 153.5000 138.0000 Du        
  22646 ****       115.2500 153.5000 138.2500 Du        
  22647 ****       115.2500 153.5000 138.5000 Du        
  22648 ****       115.2500 153.5000 138.7500 Du        
  22649 ****       115.2500 153.5000 139.0000 Du        
  22650 ****       115.2500 153.5000 139.2500 Du        
  22651 ****       115.2500 153.5000 139.5000 Du        
  22652 ****       115.2500 153.7500 136.7500 Du        
  22653 ****       115.2500 153.7500 137.0000 Du        
  22654 ****       115.2500 153.7500 137.2500 Du        
  22655 ****       115.2500 153.7500 137.5000 Du        
  22656 ****       115.2500 153.7500 137.7500 Du        
  22657 ****       115.2500 153.7500 138.0000 Du        
  22658 ****       115.2500 153.7500 138.2500 Du        
  22659 ****       115.2500 153.7500 138.5000 Du        
  22660 ****       115.2500 153.7500 138.7500 Du        
  22661 ****       115.2500 153.7500 139.0000 Du        
  22662 ****       115.2500 153.7500 139.2500 Du        
  22663 ****       115.2500 153.7500 139.5000 Du        
  22664 ****       115.2500 154.0000 137.0000 Du        
  22665 ****       115.2500 154.0000 137.2500 Du        
  22666 ****       115.2500 154.0000 137.5000 Du        
  22667 ****       115.2500 154.0000 137.7500 Du        
  22668 ****       115.2500 154.0000 138.0000 Du        
  22669 ****       115.2500 154.0000 138.2500 Du        
  22670 ****       115.2500 154.0000 138.5000 Du        
  22671 ****       115.2500 154.0000 138.7500 Du        
  22672 ****       115.2500 154.0000 139.0000 Du        
  22673 ****       115.2500 154.0000 139.2500 Du        
  22674 ****       115.2500 154.0000 139.5000 Du        
  22675 ****       115.2500 154.2500 137.2500 Du        
  22676 ****       115.2500 154.2500 137.5000 Du        
  22677 ****       115.2500 154.2500 137.7500 Du        
  22678 ****       115.2500 154.2500 138.0000 Du        
  22679 ****       115.2500 154.2500 138.2500 Du        
  22680 ****       115.2500 154.2500 138.5000 Du        
  22681 ****       115.2500 154.2500 138.7500 Du        
  22682 ****       115.2500 154.2500 139.0000 Du        
  22683 ****       115.2500 154.2500 139.2500 Du        
  22684 ****       115.2500 154.5000 137.7500 Du        
  22685 ****       115.2500 154.5000 138.0000 Du        
  22686 ****       115.2500 154.5000 138.2500 Du        
  22687 ****       115.2500 154.5000 138.5000 Du        
  22688 ****       115.2500 154.5000 138.7500 Du        
  22689 ****       115.2500 154.5000 139.0000 Du        
  22690 ****       115.2500 154.5000 139.2500 Du        
  22691 ****       115.2500 154.7500 138.0000 Du        
  22692 ****       115.2500 154.7500 138.2500 Du        
  22693 ****       115.2500 154.7500 138.5000 Du        
  22694 ****       115.2500 154.7500 138.7500 Du        
  22695 ****       115.2500 154.7500 139.0000 Du        
  22696 ****       115.2500 155.0000 106.5000 Du        
  22697 ****       115.2500 155.0000 106.7500 Du        
  22698 ****       115.2500 155.2500 106.5000 Du        
  22699 ****       115.2500 155.2500 106.7500 Du        
  22700 ****       115.2500 155.5000 106.5000 Du        
  22701 ****       115.2500 155.5000 106.7500 Du        
  22702 ****       115.2500 155.5000 107.0000 Du        
  22703 ****       115.2500 155.7500 106.2500 Du        
  22704 ****       115.2500 155.7500 106.5000 Du        
  22705 ****       115.2500 155.7500 106.7500 Du        
  22706 ****       115.2500 155.7500 107.0000 Du        
  22707 ****       115.2500 155.7500 107.2500 Du        
  22708 ****       115.2500 156.0000 106.2500 Du        
  22709 ****       115.2500 156.0000 106.5000 Du        
  22710 ****       115.2500 156.0000 106.7500 Du        
  22711 ****       115.2500 156.0000 107.0000 Du        
  22712 ****       115.2500 156.0000 107.2500 Du        
  22713 ****       115.2500 156.0000 107.5000 Du        
  22714 ****       115.2500 156.2500 106.0000 Du        
  22715 ****       115.2500 156.2500 106.2500 Du        
  22716 ****       115.2500 156.2500 106.5000 Du        
  22717 ****       115.2500 156.2500 106.7500 Du        
  22718 ****       115.2500 156.2500 107.0000 Du        
  22719 ****       115.2500 156.2500 107.2500 Du        
  22720 ****       115.2500 156.2500 107.5000 Du        
  22721 ****       115.2500 156.2500 107.7500 Du        
  22722 ****       115.2500 156.5000 106.2500 Du        
  22723 ****       115.2500 156.5000 106.5000 Du        
  22724 ****       115.2500 156.5000 106.7500 Du        
  22725 ****       115.2500 156.5000 107.0000 Du        
  22726 ****       115.2500 156.5000 107.2500 Du        
  22727 ****       115.2500 156.5000 107.5000 Du        
  22728 ****       115.2500 156.5000 107.7500 Du        
  22729 ****       115.2500 156.5000 108.0000 Du        
  22730 ****       115.2500 156.7500 106.0000 Du        
  22731 ****       115.2500 156.7500 106.2500 Du        
  22732 ****       115.2500 156.7500 106.5000 Du        
  22733 ****       115.2500 156.7500 106.7500 Du        
  22734 ****       115.2500 156.7500 107.0000 Du        
  22735 ****       115.2500 156.7500 107.2500 Du        
  22736 ****       115.2500 156.7500 107.5000 Du        
  22737 ****       115.2500 156.7500 107.7500 Du        
  22738 ****       115.2500 156.7500 108.0000 Du        
  22739 ****       115.2500 157.0000 106.0000 Du        
  22740 ****       115.2500 157.0000 106.2500 Du        
  22741 ****       115.2500 157.0000 106.5000 Du        
  22742 ****       115.2500 157.0000 106.7500 Du        
  22743 ****       115.2500 157.0000 107.0000 Du        
  22744 ****       115.2500 157.0000 107.2500 Du        
  22745 ****       115.2500 157.0000 107.5000 Du        
  22746 ****       115.2500 157.0000 107.7500 Du        
  22747 ****       115.2500 157.0000 108.0000 Du        
  22748 ****       115.2500 157.0000 108.2500 Du        
  22749 ****       115.2500 157.2500 106.5000 Du        
  22750 ****       115.2500 157.2500 106.7500 Du        
  22751 ****       115.2500 157.2500 107.0000 Du        
  22752 ****       115.2500 157.2500 107.2500 Du        
  22753 ****       115.2500 157.2500 107.5000 Du        
  22754 ****       115.2500 157.2500 107.7500 Du        
  22755 ****       115.2500 157.2500 108.0000 Du        
  22756 ****       115.2500 157.2500 108.2500 Du        
  22757 ****       115.2500 157.2500 108.5000 Du        
  22758 ****       115.2500 157.5000 106.7500 Du        
  22759 ****       115.2500 157.5000 107.0000 Du        
  22760 ****       115.2500 157.5000 107.2500 Du        
  22761 ****       115.2500 157.5000 107.5000 Du        
  22762 ****       115.2500 157.5000 107.7500 Du        
  22763 ****       115.2500 157.5000 108.0000 Du        
  22764 ****       115.2500 157.5000 108.2500 Du        
  22765 ****       115.2500 157.5000 108.5000 Du        
  22766 ****       115.2500 157.7500 107.2500 Du        
  22767 ****       115.2500 157.7500 107.5000 Du        
  22768 ****       115.2500 157.7500 107.7500 Du        
  22769 ****       115.2500 157.7500 108.0000 Du        
  22770 ****       115.2500 157.7500 108.2500 Du        
  22771 ****       115.2500 157.7500 108.5000 Du        
  22772 ****       115.2500 157.7500 108.7500 Du        
  22773 ****       115.2500 158.0000 107.5000 Du        
  22774 ****       115.2500 158.0000 107.7500 Du        
  22775 ****       115.2500 158.0000 108.0000 Du        
  22776 ****       115.2500 158.0000 108.2500 Du        
  22777 ****       115.2500 158.0000 108.5000 Du        
  22778 ****       115.2500 158.0000 108.7500 Du        
  22779 ****       115.2500 158.2500 107.7500 Du        
  22780 ****       115.2500 158.2500 108.0000 Du        
  22781 ****       115.2500 158.2500 108.2500 Du        
  22782 ****       115.2500 158.2500 108.5000 Du        
  22783 ****       115.2500 158.2500 108.7500 Du        
  22784 ****       115.2500 158.2500 109.0000 Du        
  22785 ****       115.2500 158.5000 108.0000 Du        
  22786 ****       115.2500 158.5000 108.2500 Du        
  22787 ****       115.2500 158.5000 108.5000 Du        
  22788 ****       115.2500 158.5000 108.7500 Du        
  22789 ****       115.2500 158.5000 109.0000 Du        
  22790 ****       115.2500 158.7500 108.2500 Du        
  22791 ****       115.2500 158.7500 108.5000 Du        
  22792 ****       115.2500 158.7500 108.7500 Du        
  22793 ****       115.2500 158.7500 109.0000 Du        
  22794 ****       115.2500 158.7500 109.2500 Du        
  22795 ****       115.2500 158.7500 109.5000 Du        
  22796 ****       115.2500 159.0000 108.5000 Du        
  22797 ****       115.2500 159.0000 108.7500 Du        
  22798 ****       115.2500 159.0000 109.0000 Du        
  22799 ****       115.2500 159.0000 109.2500 Du        
  22800 ****       115.2500 159.0000 109.5000 Du        
  22801 ****       115.2500 159.0000 109.7500 Du        
  22802 ****       115.2500 159.2500 108.5000 Du        
  22803 ****       115.2500 159.2500 108.7500 Du        
  22804 ****       115.2500 159.2500 109.0000 Du        
  22805 ****       115.2500 159.2500 109.2500 Du        
  22806 ****       115.2500 159.2500 109.5000 Du        
  22807 ****       115.2500 159.2500 109.7500 Du        
  22808 ****       115.2500 159.2500 110.0000 Du        
  22809 ****       115.2500 159.2500 145.2500 Du        
  22810 ****       115.2500 159.5000 109.0000 Du        
  22811 ****       115.2500 159.5000 109.2500 Du        
  22812 ****       115.2500 159.5000 109.5000 Du        
  22813 ****       115.2500 159.5000 109.7500 Du        
  22814 ****       115.2500 159.5000 110.0000 Du        
  22815 ****       115.2500 159.5000 145.0000 Du        
  22816 ****       115.2500 159.5000 145.2500 Du        
  22817 ****       115.2500 159.5000 145.5000 Du        
  22818 ****       115.2500 159.7500 109.0000 Du        
  22819 ****       115.2500 159.7500 109.2500 Du        
  22820 ****       115.2500 159.7500 109.5000 Du        
  22821 ****       115.2500 159.7500 109.7500 Du        
  22822 ****       115.2500 159.7500 144.7500 Du        
  22823 ****       115.2500 159.7500 145.0000 Du        
  22824 ****       115.2500 159.7500 145.2500 Du        
  22825 ****       115.2500 159.7500 145.5000 Du        
  22826 ****       115.2500 159.7500 145.7500 Du        
  22827 ****       115.2500 160.0000 109.0000 Du        
  22828 ****       115.2500 160.0000 109.2500 Du        
  22829 ****       115.2500 160.0000 109.5000 Du        
  22830 ****       115.2500 160.0000 144.7500 Du        
  22831 ****       115.2500 160.0000 145.0000 Du        
  22832 ****       115.2500 160.0000 145.2500 Du        
  22833 ****       115.2500 160.0000 145.5000 Du        
  22834 ****       115.2500 160.2500 144.7500 Du        
  22835 ****       115.2500 160.2500 145.0000 Du        
  22836 ****       115.2500 160.2500 145.2500 Du        
  22837 ****       115.2500 160.2500 145.5000 Du        
  22838 ****       115.2500 160.2500 145.7500 Du        
  22839 ****       115.2500 160.5000 144.7500 Du        
  22840 ****       115.2500 160.5000 145.0000 Du        
  22841 ****       115.2500 160.5000 145.2500 Du        
  22842 ****       115.2500 160.5000 145.5000 Du        
  22843 ****       115.2500 160.5000 145.7500 Du        
  22844 ****       115.2500 160.7500 145.0000 Du        
  22845 ****       115.2500 160.7500 145.2500 Du        
  22846 ****       115.2500 160.7500 145.5000 Du        
  22847 ****       115.2500 160.7500 145.7500 Du        
  22848 ****       115.2500 161.0000 145.0000 Du        
  22849 ****       115.2500 161.0000 145.2500 Du        
  22850 ****       115.2500 161.0000 145.5000 Du        
  22851 ****       115.2500 161.0000 145.7500 Du        
  22852 ****       115.5000 135.0000 121.5000 Du        
  22853 ****       115.5000 135.2500 121.5000 Du        
  22854 ****       115.5000 135.5000 120.7500 Du        
  22855 ****       115.5000 135.5000 121.0000 Du        
  22856 ****       115.5000 135.5000 121.2500 Du        
  22857 ****       115.5000 135.5000 121.5000 Du        
  22858 ****       115.5000 135.7500 116.0000 Du        
  22859 ****       115.5000 135.7500 116.2500 Du        
  22860 ****       115.5000 135.7500 120.2500 Du        
  22861 ****       115.5000 135.7500 120.5000 Du        
  22862 ****       115.5000 135.7500 120.7500 Du        
  22863 ****       115.5000 135.7500 121.0000 Du        
  22864 ****       115.5000 135.7500 121.2500 Du        
  22865 ****       115.5000 136.0000 115.0000 Du        
  22866 ****       115.5000 136.0000 115.2500 Du        
  22867 ****       115.5000 136.0000 115.5000 Du        
  22868 ****       115.5000 136.0000 115.7500 Du        
  22869 ****       115.5000 136.0000 116.0000 Du        
  22870 ****       115.5000 136.0000 116.2500 Du        
  22871 ****       115.5000 136.0000 116.7500 Du        
  22872 ****       115.5000 136.0000 120.0000 Du        
  22873 ****       115.5000 136.0000 120.2500 Du        
  22874 ****       115.5000 136.0000 120.5000 Du        
  22875 ****       115.5000 136.0000 120.7500 Du        
  22876 ****       115.5000 136.0000 121.0000 Du        
  22877 ****       115.5000 136.0000 121.2500 Du        
  22878 ****       115.5000 136.2500 114.7500 Du        
  22879 ****       115.5000 136.2500 115.0000 Du        
  22880 ****       115.5000 136.2500 115.2500 Du        
  22881 ****       115.5000 136.2500 115.5000 Du        
  22882 ****       115.5000 136.2500 115.7500 Du        
  22883 ****       115.5000 136.2500 116.0000 Du        
  22884 ****       115.5000 136.2500 116.2500 Du        
  22885 ****       115.5000 136.2500 116.5000 Du        
  22886 ****       115.5000 136.2500 116.7500 Du        
  22887 ****       115.5000 136.2500 117.0000 Du        
  22888 ****       115.5000 136.2500 119.7500 Du        
  22889 ****       115.5000 136.2500 120.0000 Du        
  22890 ****       115.5000 136.2500 120.2500 Du        
  22891 ****       115.5000 136.2500 120.5000 Du        
  22892 ****       115.5000 136.2500 120.7500 Du        
  22893 ****       115.5000 136.2500 121.0000 Du        
  22894 ****       115.5000 136.5000 114.5000 Du        
  22895 ****       115.5000 136.5000 114.7500 Du        
  22896 ****       115.5000 136.5000 115.0000 Du        
  22897 ****       115.5000 136.5000 115.2500 Du        
  22898 ****       115.5000 136.5000 115.5000 Du        
  22899 ****       115.5000 136.5000 115.7500 Du        
  22900 ****       115.5000 136.5000 116.0000 Du        
  22901 ****       115.5000 136.5000 116.2500 Du        
  22902 ****       115.5000 136.5000 116.5000 Du        
  22903 ****       115.5000 136.5000 116.7500 Du        
  22904 ****       115.5000 136.5000 117.0000 Du        
  22905 ****       115.5000 136.5000 117.2500 Du        
  22906 ****       115.5000 136.5000 117.7500 Du        
  22907 ****       115.5000 136.5000 119.2500 Du        
  22908 ****       115.5000 136.5000 119.5000 Du        
  22909 ****       115.5000 136.5000 119.7500 Du        
  22910 ****       115.5000 136.5000 120.0000 Du        
  22911 ****       115.5000 136.5000 120.2500 Du        
  22912 ****       115.5000 136.5000 120.5000 Du        
  22913 ****       115.5000 136.5000 120.7500 Du        
  22914 ****       115.5000 136.7500 114.7500 Du        
  22915 ****       115.5000 136.7500 115.0000 Du        
  22916 ****       115.5000 136.7500 115.2500 Du        
  22917 ****       115.5000 136.7500 115.5000 Du        
  22918 ****       115.5000 136.7500 115.7500 Du        
  22919 ****       115.5000 136.7500 116.0000 Du        
  22920 ****       115.5000 136.7500 116.2500 Du        
  22921 ****       115.5000 136.7500 116.5000 Du        
  22922 ****       115.5000 136.7500 116.7500 Du        
  22923 ****       115.5000 136.7500 117.0000 Du        
  22924 ****       115.5000 136.7500 117.2500 Du        
  22925 ****       115.5000 136.7500 117.5000 Du        
  22926 ****       115.5000 136.7500 117.7500 Du        
  22927 ****       115.5000 136.7500 118.0000 Du        
  22928 ****       115.5000 136.7500 118.2500 Du        
  22929 ****       115.5000 136.7500 118.5000 Du        
  22930 ****       115.5000 136.7500 118.7500 Du        
  22931 ****       115.5000 136.7500 119.0000 Du        
  22932 ****       115.5000 136.7500 119.2500 Du        
  22933 ****       115.5000 136.7500 119.5000 Du        
  22934 ****       115.5000 136.7500 119.7500 Du        
  22935 ****       115.5000 136.7500 120.0000 Du        
  22936 ****       115.5000 136.7500 120.2500 Du        
  22937 ****       115.5000 136.7500 120.5000 Du        
  22938 ****       115.5000 137.0000 115.0000 Du        
  22939 ****       115.5000 137.0000 115.2500 Du        
  22940 ****       115.5000 137.0000 115.5000 Du        
  22941 ****       115.5000 137.0000 115.7500 Du        
  22942 ****       115.5000 137.0000 116.0000 Du        
  22943 ****       115.5000 137.0000 116.2500 Du        
  22944 ****       115.5000 137.0000 116.5000 Du        
  22945 ****       115.5000 137.0000 116.7500 Du        
  22946 ****       115.5000 137.0000 117.0000 Du        
  22947 ****       115.5000 137.0000 117.2500 Du        
  22948 ****       115.5000 137.0000 117.5000 Du        
  22949 ****       115.5000 137.0000 117.7500 Du        
  22950 ****       115.5000 137.0000 118.0000 Du        
  22951 ****       115.5000 137.0000 118.2500 Du        
  22952 ****       115.5000 137.0000 118.5000 Du        
  22953 ****       115.5000 137.0000 118.7500 Du        
  22954 ****       115.5000 137.0000 119.0000 Du        
  22955 ****       115.5000 137.0000 119.2500 Du        
  22956 ****       115.5000 137.0000 119.5000 Du        
  22957 ****       115.5000 137.0000 119.7500 Du        
  22958 ****       115.5000 137.0000 120.0000 Du        
  22959 ****       115.5000 137.2500 115.2500 Du        
  22960 ****       115.5000 137.2500 115.5000 Du        
  22961 ****       115.5000 137.2500 115.7500 Du        
  22962 ****       115.5000 137.2500 116.0000 Du        
  22963 ****       115.5000 137.2500 116.2500 Du        
  22964 ****       115.5000 137.2500 116.5000 Du        
  22965 ****       115.5000 137.2500 116.7500 Du        
  22966 ****       115.5000 137.2500 117.0000 Du        
  22967 ****       115.5000 137.2500 117.2500 Du        
  22968 ****       115.5000 137.2500 117.5000 Du        
  22969 ****       115.5000 137.2500 117.7500 Du        
  22970 ****       115.5000 137.2500 118.0000 Du        
  22971 ****       115.5000 137.2500 118.2500 Du        
  22972 ****       115.5000 137.2500 118.5000 Du        
  22973 ****       115.5000 137.2500 118.7500 Du        
  22974 ****       115.5000 137.2500 119.0000 Du        
  22975 ****       115.5000 137.2500 119.2500 Du        
  22976 ****       115.5000 137.2500 119.5000 Du        
  22977 ****       115.5000 137.2500 119.7500 Du        
  22978 ****       115.5000 137.2500 120.0000 Du        
  22979 ****       115.5000 137.5000 115.5000 Du        
  22980 ****       115.5000 137.5000 115.7500 Du        
  22981 ****       115.5000 137.5000 116.0000 Du        
  22982 ****       115.5000 137.5000 116.2500 Du        
  22983 ****       115.5000 137.5000 116.5000 Du        
  22984 ****       115.5000 137.5000 116.7500 Du        
  22985 ****       115.5000 137.5000 117.0000 Du        
  22986 ****       115.5000 137.5000 117.2500 Du        
  22987 ****       115.5000 137.5000 117.5000 Du        
  22988 ****       115.5000 137.5000 117.7500 Du        
  22989 ****       115.5000 137.5000 118.0000 Du        
  22990 ****       115.5000 137.5000 118.2500 Du        
  22991 ****       115.5000 137.5000 118.5000 Du        
  22992 ****       115.5000 137.5000 118.7500 Du        
  22993 ****       115.5000 137.5000 119.0000 Du        
  22994 ****       115.5000 137.5000 119.2500 Du        
  22995 ****       115.5000 137.5000 119.5000 Du        
  22996 ****       115.5000 137.5000 119.7500 Du        
  22997 ****       115.5000 137.7500 115.7500 Du        
  22998 ****       115.5000 137.7500 116.0000 Du        
  22999 ****       115.5000 137.7500 116.2500 Du        
  23000 ****       115.5000 137.7500 116.5000 Du        
  23001 ****       115.5000 137.7500 116.7500 Du        
  23002 ****       115.5000 137.7500 117.0000 Du        
  23003 ****       115.5000 137.7500 117.2500 Du        
  23004 ****       115.5000 138.0000 116.0000 Du        
  23005 ****       115.5000 138.0000 116.2500 Du        
  23006 ****       115.5000 138.0000 116.5000 Du        
  23007 ****       115.5000 138.2500 131.5000 Du        
  23008 ****       115.5000 138.2500 131.7500 Du        
  23009 ****       115.5000 138.5000 131.0000 Du        
  23010 ****       115.5000 138.5000 131.2500 Du        
  23011 ****       115.5000 138.5000 131.5000 Du        
  23012 ****       115.5000 138.5000 131.7500 Du        
  23013 ****       115.5000 138.5000 132.0000 Du        
  23014 ****       115.5000 138.5000 132.2500 Du        
  23015 ****       115.5000 138.5000 137.2500 Du        
  23016 ****       115.5000 138.7500 130.7500 Du        
  23017 ****       115.5000 138.7500 131.0000 Du        
  23018 ****       115.5000 138.7500 131.2500 Du        
  23019 ****       115.5000 138.7500 131.5000 Du        
  23020 ****       115.5000 138.7500 131.7500 Du        
  23021 ****       115.5000 138.7500 132.0000 Du        
  23022 ****       115.5000 138.7500 132.2500 Du        
  23023 ****       115.5000 138.7500 132.5000 Du        
  23024 ****       115.5000 138.7500 132.7500 Du        
  23025 ****       115.5000 139.0000 130.7500 Du        
  23026 ****       115.5000 139.0000 131.0000 Du        
  23027 ****       115.5000 139.0000 131.2500 Du        
  23028 ****       115.5000 139.0000 131.5000 Du        
  23029 ****       115.5000 139.0000 131.7500 Du        
  23030 ****       115.5000 139.0000 132.0000 Du        
  23031 ****       115.5000 139.0000 132.2500 Du        
  23032 ****       115.5000 139.0000 132.5000 Du        
  23033 ****       115.5000 139.2500 130.7500 Du        
  23034 ****       115.5000 139.2500 131.0000 Du        
  23035 ****       115.5000 139.2500 131.2500 Du        
  23036 ****       115.5000 139.2500 131.5000 Du        
  23037 ****       115.5000 139.2500 131.7500 Du        
  23038 ****       115.5000 139.2500 132.0000 Du        
  23039 ****       115.5000 139.2500 132.2500 Du        
  23040 ****       115.5000 139.5000 131.0000 Du        
  23041 ****       115.5000 139.5000 131.2500 Du        
  23042 ****       115.5000 139.5000 131.5000 Du        
  23043 ****       115.5000 139.5000 131.7500 Du        
  23044 ****       115.5000 139.5000 132.0000 Du        
  23045 ****       115.5000 139.7500 131.2500 Du        
  23046 ****       115.5000 146.5000 106.0000 Du        
  23047 ****       115.5000 146.5000 106.2500 Du        
  23048 ****       115.5000 146.5000 106.5000 Du        
  23049 ****       115.5000 146.7500 106.0000 Du        
  23050 ****       115.5000 146.7500 106.2500 Du        
  23051 ****       115.5000 146.7500 106.5000 Du        
  23052 ****       115.5000 146.7500 106.7500 Du        
  23053 ****       115.5000 147.0000 106.0000 Du        
  23054 ****       115.5000 147.0000 106.2500 Du        
  23055 ****       115.5000 147.0000 106.5000 Du        
  23056 ****       115.5000 147.0000 106.7500 Du        
  23057 ****       115.5000 147.0000 107.0000 Du        
  23058 ****       115.5000 147.0000 107.2500 Du        
  23059 ****       115.5000 147.0000 107.5000 Du        
  23060 ****       115.5000 147.2500 106.0000 Du        
  23061 ****       115.5000 147.2500 106.2500 Du        
  23062 ****       115.5000 147.2500 106.5000 Du        
  23063 ****       115.5000 147.2500 106.7500 Du        
  23064 ****       115.5000 147.2500 107.0000 Du        
  23065 ****       115.5000 147.2500 107.2500 Du        
  23066 ****       115.5000 147.2500 107.5000 Du        
  23067 ****       115.5000 147.2500 107.7500 Du        
  23068 ****       115.5000 147.5000 106.0000 Du        
  23069 ****       115.5000 147.5000 106.2500 Du        
  23070 ****       115.5000 147.5000 106.5000 Du        
  23071 ****       115.5000 147.5000 106.7500 Du        
  23072 ****       115.5000 147.5000 107.0000 Du        
  23073 ****       115.5000 147.5000 107.2500 Du        
  23074 ****       115.5000 147.5000 107.5000 Du        
  23075 ****       115.5000 147.7500 106.0000 Du        
  23076 ****       115.5000 147.7500 106.2500 Du        
  23077 ****       115.5000 147.7500 106.5000 Du        
  23078 ****       115.5000 147.7500 106.7500 Du        
  23079 ****       115.5000 147.7500 107.0000 Du        
  23080 ****       115.5000 147.7500 107.2500 Du        
  23081 ****       115.5000 147.7500 107.5000 Du        
  23082 ****       115.5000 148.0000 106.0000 Du        
  23083 ****       115.5000 148.0000 106.2500 Du        
  23084 ****       115.5000 148.0000 106.5000 Du        
  23085 ****       115.5000 148.0000 106.7500 Du        
  23086 ****       115.5000 148.0000 107.0000 Du        
  23087 ****       115.5000 148.0000 107.2500 Du        
  23088 ****       115.5000 148.0000 107.5000 Du        
  23089 ****       115.5000 148.2500 106.0000 Du        
  23090 ****       115.5000 148.2500 106.2500 Du        
  23091 ****       115.5000 148.2500 106.5000 Du        
  23092 ****       115.5000 148.2500 106.7500 Du        
  23093 ****       115.5000 148.2500 107.0000 Du        
  23094 ****       115.5000 148.2500 107.2500 Du        
  23095 ****       115.5000 148.2500 107.5000 Du        
  23096 ****       115.5000 148.5000 106.2500 Du        
  23097 ****       115.5000 148.5000 106.5000 Du        
  23098 ****       115.5000 148.5000 106.7500 Du        
  23099 ****       115.5000 148.5000 107.0000 Du        
  23100 ****       115.5000 148.5000 107.2500 Du        
  23101 ****       115.5000 148.5000 107.5000 Du        
  23102 ****       115.5000 148.7500 106.0000 Du        
  23103 ****       115.5000 148.7500 106.2500 Du        
  23104 ****       115.5000 148.7500 106.5000 Du        
  23105 ****       115.5000 148.7500 106.7500 Du        
  23106 ****       115.5000 148.7500 107.0000 Du        
  23107 ****       115.5000 148.7500 107.2500 Du        
  23108 ****       115.5000 148.7500 107.5000 Du        
  23109 ****       115.5000 149.0000 106.0000 Du        
  23110 ****       115.5000 149.0000 106.2500 Du        
  23111 ****       115.5000 149.0000 106.5000 Du        
  23112 ****       115.5000 149.0000 106.7500 Du        
  23113 ****       115.5000 149.0000 107.0000 Du        
  23114 ****       115.5000 149.0000 107.2500 Du        
  23115 ****       115.5000 149.2500 106.2500 Du        
  23116 ****       115.5000 149.2500 106.5000 Du        
  23117 ****       115.5000 149.2500 106.7500 Du        
  23118 ****       115.5000 149.2500 107.0000 Du        
  23119 ****       115.5000 149.2500 107.2500 Du        
  23120 ****       115.5000 149.5000 106.0000 Du        
  23121 ****       115.5000 149.5000 106.2500 Du        
  23122 ****       115.5000 149.5000 106.5000 Du        
  23123 ****       115.5000 149.5000 106.7500 Du        
  23124 ****       115.5000 149.5000 107.0000 Du        
  23125 ****       115.5000 149.5000 107.2500 Du        
  23126 ****       115.5000 149.7500 106.2500 Du        
  23127 ****       115.5000 149.7500 106.5000 Du        
  23128 ****       115.5000 149.7500 106.7500 Du        
  23129 ****       115.5000 149.7500 107.0000 Du        
  23130 ****       115.5000 149.7500 107.2500 Du        
  23131 ****       115.5000 150.0000 106.2500 Du        
  23132 ****       115.5000 150.0000 106.5000 Du        
  23133 ****       115.5000 150.0000 106.7500 Du        
  23134 ****       115.5000 150.0000 107.0000 Du        
  23135 ****       115.5000 150.0000 107.2500 Du        
  23136 ****       115.5000 150.2500 106.5000 Du        
  23137 ****       115.5000 150.2500 106.7500 Du        
  23138 ****       115.5000 150.2500 107.0000 Du        
  23139 ****       115.5000 150.2500 107.2500 Du        
  23140 ****       115.5000 150.5000 106.5000 Du        
  23141 ****       115.5000 150.5000 106.7500 Du        
  23142 ****       115.5000 150.5000 107.0000 Du        
  23143 ****       115.5000 150.5000 107.2500 Du        
  23144 ****       115.5000 150.7500 106.5000 Du        
  23145 ****       115.5000 150.7500 106.7500 Du        
  23146 ****       115.5000 150.7500 107.0000 Du        
  23147 ****       115.5000 150.7500 107.2500 Du        
  23148 ****       115.5000 151.0000 106.7500 Du        
  23149 ****       115.5000 151.0000 107.0000 Du        
  23150 ****       115.5000 151.0000 107.2500 Du        
  23151 ****       115.5000 151.2500 106.7500 Du        
  23152 ****       115.5000 151.2500 107.0000 Du        
  23153 ****       115.5000 151.2500 107.2500 Du        
  23154 ****       115.5000 152.5000 138.2500 Du        
  23155 ****       115.5000 152.7500 137.7500 Du        
  23156 ****       115.5000 152.7500 138.0000 Du        
  23157 ****       115.5000 152.7500 138.2500 Du        
  23158 ****       115.5000 153.0000 137.0000 Du        
  23159 ****       115.5000 153.0000 137.2500 Du        
  23160 ****       115.5000 153.0000 137.5000 Du        
  23161 ****       115.5000 153.0000 137.7500 Du        
  23162 ****       115.5000 153.0000 138.0000 Du        
  23163 ****       115.5000 153.0000 138.2500 Du        
  23164 ****       115.5000 153.0000 138.5000 Du        
  23165 ****       115.5000 153.2500 106.2500 Du        
  23166 ****       115.5000 153.2500 137.0000 Du        
  23167 ****       115.5000 153.2500 137.2500 Du        
  23168 ****       115.5000 153.2500 137.5000 Du        
  23169 ****       115.5000 153.2500 137.7500 Du        
  23170 ****       115.5000 153.2500 138.0000 Du        
  23171 ****       115.5000 153.2500 138.2500 Du        
  23172 ****       115.5000 153.2500 138.5000 Du        
  23173 ****       115.5000 153.2500 138.7500 Du        
  23174 ****       115.5000 153.2500 139.0000 Du        
  23175 ****       115.5000 153.5000 106.2500 Du        
  23176 ****       115.5000 153.5000 136.7500 Du        
  23177 ****       115.5000 153.5000 137.0000 Du        
  23178 ****       115.5000 153.5000 137.2500 Du        
  23179 ****       115.5000 153.5000 137.5000 Du        
  23180 ****       115.5000 153.5000 137.7500 Du        
  23181 ****       115.5000 153.5000 138.0000 Du        
  23182 ****       115.5000 153.5000 138.2500 Du        
  23183 ****       115.5000 153.5000 138.5000 Du        
  23184 ****       115.5000 153.5000 138.7500 Du        
  23185 ****       115.5000 153.5000 139.0000 Du        
  23186 ****       115.5000 153.5000 139.2500 Du        
  23187 ****       115.5000 153.7500 106.2500 Du        
  23188 ****       115.5000 153.7500 136.7500 Du        
  23189 ****       115.5000 153.7500 137.0000 Du        
  23190 ****       115.5000 153.7500 137.2500 Du        
  23191 ****       115.5000 153.7500 137.5000 Du        
  23192 ****       115.5000 153.7500 137.7500 Du        
  23193 ****       115.5000 153.7500 138.0000 Du        
  23194 ****       115.5000 153.7500 138.2500 Du        
  23195 ****       115.5000 153.7500 138.5000 Du        
  23196 ****       115.5000 153.7500 138.7500 Du        
  23197 ****       115.5000 153.7500 139.0000 Du        
  23198 ****       115.5000 153.7500 139.2500 Du        
  23199 ****       115.5000 154.0000 136.7500 Du        
  23200 ****       115.5000 154.0000 137.0000 Du        
  23201 ****       115.5000 154.0000 137.2500 Du        
  23202 ****       115.5000 154.0000 137.5000 Du        
  23203 ****       115.5000 154.0000 137.7500 Du        
  23204 ****       115.5000 154.0000 138.0000 Du        
  23205 ****       115.5000 154.0000 138.2500 Du        
  23206 ****       115.5000 154.0000 138.5000 Du        
  23207 ****       115.5000 154.0000 138.7500 Du        
  23208 ****       115.5000 154.0000 139.0000 Du        
  23209 ****       115.5000 154.0000 139.2500 Du        
  23210 ****       115.5000 154.2500 137.2500 Du        
  23211 ****       115.5000 154.2500 137.5000 Du        
  23212 ****       115.5000 154.2500 137.7500 Du        
  23213 ****       115.5000 154.2500 138.0000 Du        
  23214 ****       115.5000 154.2500 138.2500 Du        
  23215 ****       115.5000 154.2500 138.5000 Du        
  23216 ****       115.5000 154.2500 138.7500 Du        
  23217 ****       115.5000 154.2500 139.0000 Du        
  23218 ****       115.5000 154.2500 139.2500 Du        
  23219 ****       115.5000 154.5000 137.7500 Du        
  23220 ****       115.5000 154.5000 138.0000 Du        
  23221 ****       115.5000 154.5000 138.2500 Du        
  23222 ****       115.5000 154.5000 138.5000 Du        
  23223 ****       115.5000 154.5000 138.7500 Du        
  23224 ****       115.5000 154.5000 139.0000 Du        
  23225 ****       115.5000 154.7500 138.0000 Du        
  23226 ****       115.5000 154.7500 138.2500 Du        
  23227 ****       115.5000 154.7500 138.5000 Du        
  23228 ****       115.5000 154.7500 138.7500 Du        
  23229 ****       115.5000 155.0000 106.2500 Du        
  23230 ****       115.5000 155.0000 106.5000 Du        
  23231 ****       115.5000 155.2500 106.2500 Du        
  23232 ****       115.5000 155.2500 106.5000 Du        
  23233 ****       115.5000 155.2500 106.7500 Du        
  23234 ****       115.5000 155.5000 106.5000 Du        
  23235 ****       115.5000 155.5000 106.7500 Du        
  23236 ****       115.5000 155.7500 106.2500 Du        
  23237 ****       115.5000 155.7500 106.5000 Du        
  23238 ****       115.5000 155.7500 106.7500 Du        
  23239 ****       115.5000 155.7500 107.0000 Du        
  23240 ****       115.5000 156.0000 106.2500 Du        
  23241 ****       115.5000 156.0000 106.5000 Du        
  23242 ****       115.5000 156.0000 106.7500 Du        
  23243 ****       115.5000 156.0000 107.0000 Du        
  23244 ****       115.5000 156.2500 106.2500 Du        
  23245 ****       115.5000 156.2500 106.5000 Du        
  23246 ****       115.5000 156.2500 106.7500 Du        
  23247 ****       115.5000 156.2500 107.0000 Du        
  23248 ****       115.5000 156.2500 107.2500 Du        
  23249 ****       115.5000 156.5000 106.7500 Du        
  23250 ****       115.5000 156.5000 107.0000 Du        
  23251 ****       115.5000 156.7500 106.7500 Du        
  23252 ****       115.5000 156.7500 107.0000 Du        
  23253 ****       115.5000 156.7500 107.2500 Du        
  23254 ****       115.5000 156.7500 107.5000 Du        
  23255 ****       115.5000 157.0000 107.0000 Du        
  23256 ****       115.5000 157.0000 107.2500 Du        
  23257 ****       115.5000 157.0000 107.5000 Du        
  23258 ****       115.5000 157.0000 107.7500 Du        
  23259 ****       115.5000 157.2500 107.2500 Du        
  23260 ****       115.5000 157.2500 107.5000 Du        
  23261 ****       115.5000 157.2500 107.7500 Du        
  23262 ****       115.5000 157.2500 108.0000 Du        
  23263 ****       115.5000 157.5000 107.7500 Du        
  23264 ****       115.5000 157.5000 108.0000 Du        
  23265 ****       115.5000 157.5000 108.2500 Du        
  23266 ****       115.5000 157.7500 107.7500 Du        
  23267 ****       115.5000 157.7500 108.0000 Du        
  23268 ****       115.5000 157.7500 108.2500 Du        
  23269 ****       115.5000 157.7500 108.5000 Du        
  23270 ****       115.5000 158.0000 107.7500 Du        
  23271 ****       115.5000 158.0000 108.0000 Du        
  23272 ****       115.5000 158.0000 108.2500 Du        
  23273 ****       115.5000 158.0000 108.5000 Du        
  23274 ****       115.5000 158.2500 108.0000 Du        
  23275 ****       115.5000 158.2500 108.2500 Du        
  23276 ****       115.5000 158.2500 108.5000 Du        
  23277 ****       115.5000 158.2500 108.7500 Du        
  23278 ****       115.5000 158.5000 108.2500 Du        
  23279 ****       115.5000 158.5000 108.5000 Du        
  23280 ****       115.5000 158.5000 108.7500 Du        
  23281 ****       115.5000 158.7500 108.2500 Du        
  23282 ****       115.5000 158.7500 108.5000 Du        
  23283 ****       115.5000 158.7500 108.7500 Du        
  23284 ****       115.5000 158.7500 109.0000 Du        
  23285 ****       115.5000 159.0000 108.5000 Du        
  23286 ****       115.5000 159.0000 108.7500 Du        
  23287 ****       115.5000 159.0000 109.0000 Du        
  23288 ****       115.5000 159.0000 109.2500 Du        
  23289 ****       115.5000 159.0000 109.5000 Du        
  23290 ****       115.5000 159.0000 145.2500 Du        
  23291 ****       115.5000 159.2500 108.7500 Du        
  23292 ****       115.5000 159.2500 109.0000 Du        
  23293 ****       115.5000 159.2500 109.2500 Du        
  23294 ****       115.5000 159.2500 109.5000 Du        
  23295 ****       115.5000 159.2500 109.7500 Du        
  23296 ****       115.5000 159.2500 145.0000 Du        
  23297 ****       115.5000 159.2500 145.2500 Du        
  23298 ****       115.5000 159.2500 145.5000 Du        
  23299 ****       115.5000 159.5000 109.0000 Du        
  23300 ****       115.5000 159.5000 109.2500 Du        
  23301 ****       115.5000 159.5000 109.5000 Du        
  23302 ****       115.5000 159.5000 109.7500 Du        
  23303 ****       115.5000 159.5000 145.0000 Du        
  23304 ****       115.5000 159.5000 145.2500 Du        
  23305 ****       115.5000 159.5000 145.5000 Du        
  23306 ****       115.5000 159.7500 109.0000 Du        
  23307 ****       115.5000 159.7500 109.2500 Du        
  23308 ****       115.5000 159.7500 109.5000 Du        
  23309 ****       115.5000 159.7500 144.7500 Du        
  23310 ****       115.5000 159.7500 145.0000 Du        
  23311 ****       115.5000 159.7500 145.2500 Du        
  23312 ****       115.5000 159.7500 145.5000 Du        
  23313 ****       115.5000 159.7500 145.7500 Du        
  23314 ****       115.5000 160.0000 144.7500 Du        
  23315 ****       115.5000 160.0000 145.0000 Du        
  23316 ****       115.5000 160.0000 145.2500 Du        
  23317 ****       115.5000 160.0000 145.5000 Du        
  23318 ****       115.5000 160.0000 145.7500 Du        
  23319 ****       115.5000 160.2500 144.7500 Du        
  23320 ****       115.5000 160.2500 145.0000 Du        
  23321 ****       115.5000 160.2500 145.2500 Du        
  23322 ****       115.5000 160.2500 145.5000 Du        
  23323 ****       115.5000 160.2500 145.7500 Du        
  23324 ****       115.5000 160.2500 146.0000 Du        
  23325 ****       115.5000 160.5000 144.7500 Du        
  23326 ****       115.5000 160.5000 145.0000 Du        
  23327 ****       115.5000 160.5000 145.2500 Du        
  23328 ****       115.5000 160.5000 145.5000 Du        
  23329 ****       115.5000 160.5000 145.7500 Du        
  23330 ****       115.5000 160.5000 146.0000 Du        
  23331 ****       115.5000 160.7500 145.0000 Du        
  23332 ****       115.5000 160.7500 145.2500 Du        
  23333 ****       115.5000 160.7500 145.5000 Du        
  23334 ****       115.5000 160.7500 145.7500 Du        
  23335 ****       115.5000 160.7500 146.0000 Du        
  23336 ****       115.5000 161.0000 145.2500 Du        
  23337 ****       115.5000 161.0000 145.5000 Du        
  23338 ****       115.5000 161.0000 145.7500 Du        
  23339 ****       115.5000 161.0000 146.0000 Du        
  23340 ****       115.5000 161.0000 146.2500 Du        
  23341 ****       115.5000 161.2500 145.7500 Du        
  23342 ****       115.5000 161.2500 146.0000 Du        
  23343 ****       115.7500 135.5000 121.0000 Du        
  23344 ****       115.7500 135.5000 121.2500 Du        
  23345 ****       115.7500 135.7500 116.0000 Du        
  23346 ****       115.7500 135.7500 116.2500 Du        
  23347 ****       115.7500 135.7500 120.5000 Du        
  23348 ****       115.7500 135.7500 120.7500 Du        
  23349 ****       115.7500 135.7500 121.0000 Du        
  23350 ****       115.7500 136.0000 115.2500 Du        
  23351 ****       115.7500 136.0000 115.5000 Du        
  23352 ****       115.7500 136.0000 115.7500 Du        
  23353 ****       115.7500 136.0000 116.0000 Du        
  23354 ****       115.7500 136.0000 116.2500 Du        
  23355 ****       115.7500 136.0000 116.5000 Du        
  23356 ****       115.7500 136.0000 116.7500 Du        
  23357 ****       115.7500 136.0000 117.0000 Du        
  23358 ****       115.7500 136.0000 120.2500 Du        
  23359 ****       115.7500 136.0000 120.5000 Du        
  23360 ****       115.7500 136.0000 120.7500 Du        
  23361 ****       115.7500 136.0000 121.0000 Du        
  23362 ****       115.7500 136.2500 114.7500 Du        
  23363 ****       115.7500 136.2500 115.0000 Du        
  23364 ****       115.7500 136.2500 115.2500 Du        
  23365 ****       115.7500 136.2500 115.5000 Du        
  23366 ****       115.7500 136.2500 115.7500 Du        
  23367 ****       115.7500 136.2500 116.0000 Du        
  23368 ****       115.7500 136.2500 116.2500 Du        
  23369 ****       115.7500 136.2500 116.5000 Du        
  23370 ****       115.7500 136.2500 116.7500 Du        
  23371 ****       115.7500 136.2500 117.0000 Du        
  23372 ****       115.7500 136.2500 117.2500 Du        
  23373 ****       115.7500 136.2500 119.7500 Du        
  23374 ****       115.7500 136.2500 120.0000 Du        
  23375 ****       115.7500 136.2500 120.2500 Du        
  23376 ****       115.7500 136.2500 120.5000 Du        
  23377 ****       115.7500 136.2500 120.7500 Du        
  23378 ****       115.7500 136.5000 114.2500 Du        
  23379 ****       115.7500 136.5000 114.5000 Du        
  23380 ****       115.7500 136.5000 114.7500 Du        
  23381 ****       115.7500 136.5000 115.0000 Du        
  23382 ****       115.7500 136.5000 115.2500 Du        
  23383 ****       115.7500 136.5000 115.5000 Du        
  23384 ****       115.7500 136.5000 115.7500 Du        
  23385 ****       115.7500 136.5000 116.0000 Du        
  23386 ****       115.7500 136.5000 116.2500 Du        
  23387 ****       115.7500 136.5000 116.5000 Du        
  23388 ****       115.7500 136.5000 116.7500 Du        
  23389 ****       115.7500 136.5000 117.0000 Du        
  23390 ****       115.7500 136.5000 117.2500 Du        
  23391 ****       115.7500 136.5000 117.7500 Du        
  23392 ****       115.7500 136.5000 119.5000 Du        
  23393 ****       115.7500 136.5000 119.7500 Du        
  23394 ****       115.7500 136.5000 120.0000 Du        
  23395 ****       115.7500 136.5000 120.2500 Du        
  23396 ****       115.7500 136.5000 120.5000 Du        
  23397 ****       115.7500 136.7500 114.2500 Du        
  23398 ****       115.7500 136.7500 114.5000 Du        
  23399 ****       115.7500 136.7500 114.7500 Du        
  23400 ****       115.7500 136.7500 115.0000 Du        
  23401 ****       115.7500 136.7500 115.2500 Du        
  23402 ****       115.7500 136.7500 115.5000 Du        
  23403 ****       115.7500 136.7500 115.7500 Du        
  23404 ****       115.7500 136.7500 116.0000 Du        
  23405 ****       115.7500 136.7500 116.2500 Du        
  23406 ****       115.7500 136.7500 116.5000 Du        
  23407 ****       115.7500 136.7500 116.7500 Du        
  23408 ****       115.7500 136.7500 117.0000 Du        
  23409 ****       115.7500 136.7500 117.2500 Du        
  23410 ****       115.7500 136.7500 117.5000 Du        
  23411 ****       115.7500 136.7500 117.7500 Du        
  23412 ****       115.7500 136.7500 118.0000 Du        
  23413 ****       115.7500 136.7500 118.2500 Du        
  23414 ****       115.7500 136.7500 118.5000 Du        
  23415 ****       115.7500 136.7500 118.7500 Du        
  23416 ****       115.7500 136.7500 119.0000 Du        
  23417 ****       115.7500 136.7500 119.2500 Du        
  23418 ****       115.7500 136.7500 119.5000 Du        
  23419 ****       115.7500 136.7500 119.7500 Du        
  23420 ****       115.7500 136.7500 120.0000 Du        
  23421 ****       115.7500 136.7500 120.2500 Du        
  23422 ****       115.7500 136.7500 120.5000 Du        
  23423 ****       115.7500 137.0000 114.5000 Du        
  23424 ****       115.7500 137.0000 114.7500 Du        
  23425 ****       115.7500 137.0000 115.0000 Du        
  23426 ****       115.7500 137.0000 115.2500 Du        
  23427 ****       115.7500 137.0000 115.5000 Du        
  23428 ****       115.7500 137.0000 115.7500 Du        
  23429 ****       115.7500 137.0000 116.0000 Du        
  23430 ****       115.7500 137.0000 116.2500 Du        
  23431 ****       115.7500 137.0000 116.5000 Du        
  23432 ****       115.7500 137.0000 116.7500 Du        
  23433 ****       115.7500 137.0000 117.0000 Du        
  23434 ****       115.7500 137.0000 117.2500 Du        
  23435 ****       115.7500 137.0000 117.5000 Du        
  23436 ****       115.7500 137.0000 117.7500 Du        
  23437 ****       115.7500 137.0000 118.0000 Du        
  23438 ****       115.7500 137.0000 118.2500 Du        
  23439 ****       115.7500 137.0000 118.5000 Du        
  23440 ****       115.7500 137.0000 118.7500 Du        
  23441 ****       115.7500 137.0000 119.0000 Du        
  23442 ****       115.7500 137.0000 119.2500 Du        
  23443 ****       115.7500 137.0000 119.5000 Du        
  23444 ****       115.7500 137.0000 119.7500 Du        
  23445 ****       115.7500 137.0000 120.0000 Du        
  23446 ****       115.7500 137.0000 120.2500 Du        
  23447 ****       115.7500 137.2500 114.7500 Du        
  23448 ****       115.7500 137.2500 115.0000 Du        
  23449 ****       115.7500 137.2500 115.2500 Du        
  23450 ****       115.7500 137.2500 115.5000 Du        
  23451 ****       115.7500 137.2500 115.7500 Du        
  23452 ****       115.7500 137.2500 116.0000 Du        
  23453 ****       115.7500 137.2500 116.2500 Du        
  23454 ****       115.7500 137.2500 116.5000 Du        
  23455 ****       115.7500 137.2500 116.7500 Du        
  23456 ****       115.7500 137.2500 117.0000 Du        
  23457 ****       115.7500 137.2500 117.2500 Du        
  23458 ****       115.7500 137.2500 117.5000 Du        
  23459 ****       115.7500 137.2500 117.7500 Du        
  23460 ****       115.7500 137.2500 118.0000 Du        
  23461 ****       115.7500 137.2500 118.2500 Du        
  23462 ****       115.7500 137.2500 118.5000 Du        
  23463 ****       115.7500 137.2500 118.7500 Du        
  23464 ****       115.7500 137.2500 119.0000 Du        
  23465 ****       115.7500 137.2500 119.2500 Du        
  23466 ****       115.7500 137.2500 119.5000 Du        
  23467 ****       115.7500 137.2500 119.7500 Du        
  23468 ****       115.7500 137.2500 120.0000 Du        
  23469 ****       115.7500 137.5000 115.0000 Du        
  23470 ****       115.7500 137.5000 115.2500 Du        
  23471 ****       115.7500 137.5000 115.5000 Du        
  23472 ****       115.7500 137.5000 115.7500 Du        
  23473 ****       115.7500 137.5000 116.0000 Du        
  23474 ****       115.7500 137.5000 116.2500 Du        
  23475 ****       115.7500 137.5000 116.5000 Du        
  23476 ****       115.7500 137.5000 116.7500 Du        
  23477 ****       115.7500 137.5000 117.0000 Du        
  23478 ****       115.7500 137.5000 117.2500 Du        
  23479 ****       115.7500 137.5000 117.5000 Du        
  23480 ****       115.7500 137.5000 117.7500 Du        
  23481 ****       115.7500 137.5000 118.0000 Du        
  23482 ****       115.7500 137.5000 118.2500 Du        
  23483 ****       115.7500 137.5000 118.5000 Du        
  23484 ****       115.7500 137.5000 118.7500 Du        
  23485 ****       115.7500 137.5000 119.0000 Du        
  23486 ****       115.7500 137.5000 119.2500 Du        
  23487 ****       115.7500 137.5000 119.5000 Du        
  23488 ****       115.7500 137.5000 119.7500 Du        
  23489 ****       115.7500 137.7500 115.2500 Du        
  23490 ****       115.7500 137.7500 115.5000 Du        
  23491 ****       115.7500 137.7500 115.7500 Du        
  23492 ****       115.7500 137.7500 116.0000 Du        
  23493 ****       115.7500 137.7500 116.2500 Du        
  23494 ****       115.7500 137.7500 116.5000 Du        
  23495 ****       115.7500 137.7500 116.7500 Du        
  23496 ****       115.7500 137.7500 117.0000 Du        
  23497 ****       115.7500 137.7500 117.2500 Du        
  23498 ****       115.7500 137.7500 119.0000 Du        
  23499 ****       115.7500 137.7500 119.2500 Du        
  23500 ****       115.7500 137.7500 119.5000 Du        
  23501 ****       115.7500 138.0000 115.7500 Du        
  23502 ****       115.7500 138.0000 116.0000 Du        
  23503 ****       115.7500 138.0000 116.2500 Du        
  23504 ****       115.7500 138.0000 116.5000 Du        
  23505 ****       115.7500 138.0000 136.7500 Du        
  23506 ****       115.7500 138.0000 137.0000 Du        
  23507 ****       115.7500 138.0000 137.2500 Du        
  23508 ****       115.7500 138.2500 131.5000 Du        
  23509 ****       115.7500 138.2500 131.7500 Du        
  23510 ****       115.7500 138.2500 132.0000 Du        
  23511 ****       115.7500 138.2500 136.7500 Du        
  23512 ****       115.7500 138.2500 137.0000 Du        
  23513 ****       115.7500 138.2500 137.2500 Du        
  23514 ****       115.7500 138.5000 131.0000 Du        
  23515 ****       115.7500 138.5000 131.2500 Du        
  23516 ****       115.7500 138.5000 131.5000 Du        
  23517 ****       115.7500 138.5000 131.7500 Du        
  23518 ****       115.7500 138.5000 132.0000 Du        
  23519 ****       115.7500 138.5000 132.2500 Du        
  23520 ****       115.7500 138.5000 136.7500 Du        
  23521 ****       115.7500 138.5000 137.0000 Du        
  23522 ****       115.7500 138.5000 137.2500 Du        
  23523 ****       115.7500 138.5000 137.5000 Du        
  23524 ****       115.7500 138.7500 130.7500 Du        
  23525 ****       115.7500 138.7500 131.0000 Du        
  23526 ****       115.7500 138.7500 131.2500 Du        
  23527 ****       115.7500 138.7500 131.5000 Du        
  23528 ****       115.7500 138.7500 131.7500 Du        
  23529 ****       115.7500 138.7500 132.0000 Du        
  23530 ****       115.7500 138.7500 132.2500 Du        
  23531 ****       115.7500 138.7500 137.0000 Du        
  23532 ****       115.7500 138.7500 137.2500 Du        
  23533 ****       115.7500 139.0000 130.7500 Du        
  23534 ****       115.7500 139.0000 131.0000 Du        
  23535 ****       115.7500 139.0000 131.2500 Du        
  23536 ****       115.7500 139.0000 131.5000 Du        
  23537 ****       115.7500 139.0000 131.7500 Du        
  23538 ****       115.7500 139.0000 132.0000 Du        
  23539 ****       115.7500 139.0000 132.2500 Du        
  23540 ****       115.7500 139.0000 137.2500 Du        
  23541 ****       115.7500 139.0000 137.7500 Du        
  23542 ****       115.7500 139.2500 130.7500 Du        
  23543 ****       115.7500 139.2500 131.0000 Du        
  23544 ****       115.7500 139.2500 131.2500 Du        
  23545 ****       115.7500 139.2500 131.5000 Du        
  23546 ****       115.7500 139.2500 131.7500 Du        
  23547 ****       115.7500 139.2500 132.0000 Du        
  23548 ****       115.7500 139.2500 132.2500 Du        
  23549 ****       115.7500 139.5000 131.0000 Du        
  23550 ****       115.7500 139.5000 131.2500 Du        
  23551 ****       115.7500 139.5000 131.5000 Du        
  23552 ****       115.7500 139.5000 131.7500 Du        
  23553 ****       115.7500 139.7500 131.2500 Du        
  23554 ****       115.7500 139.7500 138.0000 Du        
  23555 ****       115.7500 146.5000 106.0000 Du        
  23556 ****       115.7500 146.7500 106.0000 Du        
  23557 ****       115.7500 146.7500 106.2500 Du        
  23558 ****       115.7500 146.7500 106.5000 Du        
  23559 ****       115.7500 147.0000 106.0000 Du        
  23560 ****       115.7500 147.0000 106.2500 Du        
  23561 ****       115.7500 147.0000 106.5000 Du        
  23562 ****       115.7500 147.0000 106.7500 Du        
  23563 ****       115.7500 147.0000 107.0000 Du        
  23564 ****       115.7500 147.2500 106.0000 Du        
  23565 ****       115.7500 147.2500 106.2500 Du        
  23566 ****       115.7500 147.2500 106.5000 Du        
  23567 ****       115.7500 147.2500 106.7500 Du        
  23568 ****       115.7500 147.2500 107.0000 Du        
  23569 ****       115.7500 147.2500 107.2500 Du        
  23570 ****       115.7500 147.2500 107.5000 Du        
  23571 ****       115.7500 147.5000 106.0000 Du        
  23572 ****       115.7500 147.5000 106.2500 Du        
  23573 ****       115.7500 147.5000 106.5000 Du        
  23574 ****       115.7500 147.5000 106.7500 Du        
  23575 ****       115.7500 147.5000 107.0000 Du        
  23576 ****       115.7500 147.5000 107.2500 Du        
  23577 ****       115.7500 147.5000 107.5000 Du        
  23578 ****       115.7500 147.5000 107.7500 Du        
  23579 ****       115.7500 147.7500 106.0000 Du        
  23580 ****       115.7500 147.7500 106.2500 Du        
  23581 ****       115.7500 147.7500 106.5000 Du        
  23582 ****       115.7500 147.7500 106.7500 Du        
  23583 ****       115.7500 147.7500 107.0000 Du        
  23584 ****       115.7500 147.7500 107.2500 Du        
  23585 ****       115.7500 147.7500 107.5000 Du        
  23586 ****       115.7500 147.7500 107.7500 Du        
  23587 ****       115.7500 148.0000 106.0000 Du        
  23588 ****       115.7500 148.0000 106.2500 Du        
  23589 ****       115.7500 148.0000 106.5000 Du        
  23590 ****       115.7500 148.0000 106.7500 Du        
  23591 ****       115.7500 148.0000 107.0000 Du        
  23592 ****       115.7500 148.0000 107.2500 Du        
  23593 ****       115.7500 148.0000 107.5000 Du        
  23594 ****       115.7500 148.0000 107.7500 Du        
  23595 ****       115.7500 148.2500 106.0000 Du        
  23596 ****       115.7500 148.2500 106.2500 Du        
  23597 ****       115.7500 148.2500 106.5000 Du        
  23598 ****       115.7500 148.2500 106.7500 Du        
  23599 ****       115.7500 148.2500 107.0000 Du        
  23600 ****       115.7500 148.2500 107.2500 Du        
  23601 ****       115.7500 148.2500 107.5000 Du        
  23602 ****       115.7500 148.5000 106.5000 Du        
  23603 ****       115.7500 148.5000 106.7500 Du        
  23604 ****       115.7500 148.5000 107.0000 Du        
  23605 ****       115.7500 148.5000 107.2500 Du        
  23606 ****       115.7500 148.5000 107.5000 Du        
  23607 ****       115.7500 148.7500 106.2500 Du        
  23608 ****       115.7500 148.7500 106.5000 Du        
  23609 ****       115.7500 148.7500 106.7500 Du        
  23610 ****       115.7500 148.7500 107.0000 Du        
  23611 ****       115.7500 148.7500 107.2500 Du        
  23612 ****       115.7500 148.7500 107.5000 Du        
  23613 ****       115.7500 149.0000 106.0000 Du        
  23614 ****       115.7500 149.0000 106.2500 Du        
  23615 ****       115.7500 149.0000 106.5000 Du        
  23616 ****       115.7500 149.0000 106.7500 Du        
  23617 ****       115.7500 149.0000 107.0000 Du        
  23618 ****       115.7500 149.0000 107.2500 Du        
  23619 ****       115.7500 149.0000 107.5000 Du        
  23620 ****       115.7500 149.2500 106.0000 Du        
  23621 ****       115.7500 149.2500 106.2500 Du        
  23622 ****       115.7500 149.2500 106.5000 Du        
  23623 ****       115.7500 149.2500 106.7500 Du        
  23624 ****       115.7500 149.2500 107.0000 Du        
  23625 ****       115.7500 149.2500 107.2500 Du        
  23626 ****       115.7500 149.5000 106.0000 Du        
  23627 ****       115.7500 149.5000 106.2500 Du        
  23628 ****       115.7500 149.5000 106.5000 Du        
  23629 ****       115.7500 149.5000 106.7500 Du        
  23630 ****       115.7500 149.5000 107.0000 Du        
  23631 ****       115.7500 149.5000 107.2500 Du        
  23632 ****       115.7500 149.7500 106.0000 Du        
  23633 ****       115.7500 149.7500 106.2500 Du        
  23634 ****       115.7500 149.7500 106.5000 Du        
  23635 ****       115.7500 149.7500 106.7500 Du        
  23636 ****       115.7500 149.7500 107.0000 Du        
  23637 ****       115.7500 149.7500 107.2500 Du        
  23638 ****       115.7500 150.0000 106.0000 Du        
  23639 ****       115.7500 150.0000 106.2500 Du        
  23640 ****       115.7500 150.0000 106.5000 Du        
  23641 ****       115.7500 150.0000 106.7500 Du        
  23642 ****       115.7500 150.0000 107.0000 Du        
  23643 ****       115.7500 150.0000 107.2500 Du        
  23644 ****       115.7500 150.2500 106.2500 Du        
  23645 ****       115.7500 150.2500 106.5000 Du        
  23646 ****       115.7500 150.2500 106.7500 Du        
  23647 ****       115.7500 150.2500 107.0000 Du        
  23648 ****       115.7500 150.2500 107.2500 Du        
  23649 ****       115.7500 150.5000 106.2500 Du        
  23650 ****       115.7500 150.5000 106.5000 Du        
  23651 ****       115.7500 150.5000 106.7500 Du        
  23652 ****       115.7500 150.5000 107.0000 Du        
  23653 ****       115.7500 150.5000 107.2500 Du        
  23654 ****       115.7500 150.7500 106.2500 Du        
  23655 ****       115.7500 150.7500 106.5000 Du        
  23656 ****       115.7500 150.7500 106.7500 Du        
  23657 ****       115.7500 150.7500 107.0000 Du        
  23658 ****       115.7500 150.7500 107.2500 Du        
  23659 ****       115.7500 151.0000 106.7500 Du        
  23660 ****       115.7500 151.0000 107.0000 Du        
  23661 ****       115.7500 151.0000 107.2500 Du        
  23662 ****       115.7500 151.2500 106.7500 Du        
  23663 ****       115.7500 151.2500 107.0000 Du        
  23664 ****       115.7500 151.2500 107.2500 Du        
  23665 ****       115.7500 152.7500 137.7500 Du        
  23666 ****       115.7500 152.7500 138.0000 Du        
  23667 ****       115.7500 152.7500 138.2500 Du        
  23668 ****       115.7500 153.0000 106.0000 Du        
  23669 ****       115.7500 153.0000 106.2500 Du        
  23670 ****       115.7500 153.0000 137.0000 Du        
  23671 ****       115.7500 153.0000 137.2500 Du        
  23672 ****       115.7500 153.0000 137.5000 Du        
  23673 ****       115.7500 153.0000 137.7500 Du        
  23674 ****       115.7500 153.0000 138.0000 Du        
  23675 ****       115.7500 153.0000 138.2500 Du        
  23676 ****       115.7500 153.2500 106.0000 Du        
  23677 ****       115.7500 153.2500 106.2500 Du        
  23678 ****       115.7500 153.2500 137.0000 Du        
  23679 ****       115.7500 153.2500 137.2500 Du        
  23680 ****       115.7500 153.2500 137.5000 Du        
  23681 ****       115.7500 153.2500 137.7500 Du        
  23682 ****       115.7500 153.2500 138.0000 Du        
  23683 ****       115.7500 153.2500 138.2500 Du        
  23684 ****       115.7500 153.2500 138.5000 Du        
  23685 ****       115.7500 153.2500 138.7500 Du        
  23686 ****       115.7500 153.5000 106.0000 Du        
  23687 ****       115.7500 153.5000 106.2500 Du        
  23688 ****       115.7500 153.5000 136.7500 Du        
  23689 ****       115.7500 153.5000 137.0000 Du        
  23690 ****       115.7500 153.5000 137.2500 Du        
  23691 ****       115.7500 153.5000 137.5000 Du        
  23692 ****       115.7500 153.5000 137.7500 Du        
  23693 ****       115.7500 153.5000 138.0000 Du        
  23694 ****       115.7500 153.5000 138.2500 Du        
  23695 ****       115.7500 153.5000 138.5000 Du        
  23696 ****       115.7500 153.5000 138.7500 Du        
  23697 ****       115.7500 153.5000 139.0000 Du        
  23698 ****       115.7500 153.7500 106.0000 Du        
  23699 ****       115.7500 153.7500 106.2500 Du        
  23700 ****       115.7500 153.7500 136.7500 Du        
  23701 ****       115.7500 153.7500 137.0000 Du        
  23702 ****       115.7500 153.7500 137.2500 Du        
  23703 ****       115.7500 153.7500 137.5000 Du        
  23704 ****       115.7500 153.7500 137.7500 Du        
  23705 ****       115.7500 153.7500 138.0000 Du        
  23706 ****       115.7500 153.7500 138.2500 Du        
  23707 ****       115.7500 153.7500 138.5000 Du        
  23708 ****       115.7500 153.7500 138.7500 Du        
  23709 ****       115.7500 153.7500 139.0000 Du        
  23710 ****       115.7500 153.7500 139.2500 Du        
  23711 ****       115.7500 154.0000 106.0000 Du        
  23712 ****       115.7500 154.0000 106.2500 Du        
  23713 ****       115.7500 154.0000 136.7500 Du        
  23714 ****       115.7500 154.0000 137.0000 Du        
  23715 ****       115.7500 154.0000 137.2500 Du        
  23716 ****       115.7500 154.0000 137.5000 Du        
  23717 ****       115.7500 154.0000 137.7500 Du        
  23718 ****       115.7500 154.0000 138.0000 Du        
  23719 ****       115.7500 154.0000 138.2500 Du        
  23720 ****       115.7500 154.0000 138.5000 Du        
  23721 ****       115.7500 154.0000 138.7500 Du        
  23722 ****       115.7500 154.0000 139.0000 Du        
  23723 ****       115.7500 154.0000 139.2500 Du        
  23724 ****       115.7500 154.2500 106.0000 Du        
  23725 ****       115.7500 154.2500 106.2500 Du        
  23726 ****       115.7500 154.2500 137.2500 Du        
  23727 ****       115.7500 154.2500 137.5000 Du        
  23728 ****       115.7500 154.2500 137.7500 Du        
  23729 ****       115.7500 154.2500 138.0000 Du        
  23730 ****       115.7500 154.2500 138.2500 Du        
  23731 ****       115.7500 154.2500 138.5000 Du        
  23732 ****       115.7500 154.2500 138.7500 Du        
  23733 ****       115.7500 154.2500 139.0000 Du        
  23734 ****       115.7500 154.5000 106.0000 Du        
  23735 ****       115.7500 154.5000 106.2500 Du        
  23736 ****       115.7500 154.5000 137.5000 Du        
  23737 ****       115.7500 154.5000 137.7500 Du        
  23738 ****       115.7500 154.5000 138.0000 Du        
  23739 ****       115.7500 154.5000 138.2500 Du        
  23740 ****       115.7500 154.5000 138.5000 Du        
  23741 ****       115.7500 154.5000 138.7500 Du        
  23742 ****       115.7500 154.5000 139.0000 Du        
  23743 ****       115.7500 154.7500 106.0000 Du        
  23744 ****       115.7500 154.7500 106.2500 Du        
  23745 ****       115.7500 154.7500 138.0000 Du        
  23746 ****       115.7500 154.7500 138.2500 Du        
  23747 ****       115.7500 154.7500 138.5000 Du        
  23748 ****       115.7500 155.0000 106.0000 Du        
  23749 ****       115.7500 155.0000 106.2500 Du        
  23750 ****       115.7500 155.0000 106.5000 Du        
  23751 ****       115.7500 155.2500 106.0000 Du        
  23752 ****       115.7500 155.2500 106.2500 Du        
  23753 ****       115.7500 155.2500 106.5000 Du        
  23754 ****       115.7500 155.5000 106.2500 Du        
  23755 ****       115.7500 155.5000 106.5000 Du        
  23756 ****       115.7500 155.7500 106.0000 Du        
  23757 ****       115.7500 155.7500 106.2500 Du        
  23758 ****       115.7500 155.7500 106.5000 Du        
  23759 ****       115.7500 155.7500 106.7500 Du        
  23760 ****       115.7500 156.0000 106.2500 Du        
  23761 ****       115.7500 156.0000 106.5000 Du        
  23762 ****       115.7500 156.0000 106.7500 Du        
  23763 ****       115.7500 156.2500 106.2500 Du        
  23764 ****       115.7500 156.2500 106.5000 Du        
  23765 ****       115.7500 156.2500 106.7500 Du        
  23766 ****       115.7500 156.2500 107.0000 Du        
  23767 ****       115.7500 157.2500 107.7500 Du        
  23768 ****       115.7500 157.7500 107.7500 Du        
  23769 ****       115.7500 157.7500 108.0000 Du        
  23770 ****       115.7500 157.7500 108.2500 Du        
  23771 ****       115.7500 158.0000 108.0000 Du        
  23772 ****       115.7500 158.0000 108.2500 Du        
  23773 ****       115.7500 158.0000 108.5000 Du        
  23774 ****       115.7500 158.2500 108.0000 Du        
  23775 ****       115.7500 158.2500 108.2500 Du        
  23776 ****       115.7500 158.2500 108.5000 Du        
  23777 ****       115.7500 158.2500 108.7500 Du        
  23778 ****       115.7500 158.5000 108.0000 Du        
  23779 ****       115.7500 158.5000 108.2500 Du        
  23780 ****       115.7500 158.5000 108.5000 Du        
  23781 ****       115.7500 158.5000 108.7500 Du        
  23782 ****       115.7500 158.7500 108.2500 Du        
  23783 ****       115.7500 158.7500 108.5000 Du        
  23784 ****       115.7500 158.7500 108.7500 Du        
  23785 ****       115.7500 158.7500 109.0000 Du        
  23786 ****       115.7500 159.0000 108.2500 Du        
  23787 ****       115.7500 159.0000 108.5000 Du        
  23788 ****       115.7500 159.0000 108.7500 Du        
  23789 ****       115.7500 159.0000 109.0000 Du        
  23790 ****       115.7500 159.0000 109.2500 Du        
  23791 ****       115.7500 159.0000 109.5000 Du        
  23792 ****       115.7500 159.0000 145.2500 Du        
  23793 ****       115.7500 159.2500 108.7500 Du        
  23794 ****       115.7500 159.2500 109.0000 Du        
  23795 ****       115.7500 159.2500 109.2500 Du        
  23796 ****       115.7500 159.2500 109.5000 Du        
  23797 ****       115.7500 159.2500 109.7500 Du        
  23798 ****       115.7500 159.2500 145.0000 Du        
  23799 ****       115.7500 159.2500 145.2500 Du        
  23800 ****       115.7500 159.2500 145.5000 Du        
  23801 ****       115.7500 159.2500 145.7500 Du        
  23802 ****       115.7500 159.5000 109.0000 Du        
  23803 ****       115.7500 159.5000 109.2500 Du        
  23804 ****       115.7500 159.5000 109.5000 Du        
  23805 ****       115.7500 159.5000 145.0000 Du        
  23806 ****       115.7500 159.5000 145.2500 Du        
  23807 ****       115.7500 159.5000 145.5000 Du        
  23808 ****       115.7500 159.5000 145.7500 Du        
  23809 ****       115.7500 159.7500 109.0000 Du        
  23810 ****       115.7500 159.7500 109.2500 Du        
  23811 ****       115.7500 159.7500 109.5000 Du        
  23812 ****       115.7500 159.7500 144.7500 Du        
  23813 ****       115.7500 159.7500 145.0000 Du        
  23814 ****       115.7500 159.7500 145.2500 Du        
  23815 ****       115.7500 159.7500 145.5000 Du        
  23816 ****       115.7500 159.7500 145.7500 Du        
  23817 ****       115.7500 160.0000 144.7500 Du        
  23818 ****       115.7500 160.0000 145.0000 Du        
  23819 ****       115.7500 160.0000 145.2500 Du        
  23820 ****       115.7500 160.0000 145.5000 Du        
  23821 ****       115.7500 160.0000 145.7500 Du        
  23822 ****       115.7500 160.0000 146.0000 Du        
  23823 ****       115.7500 160.2500 144.7500 Du        
  23824 ****       115.7500 160.2500 145.0000 Du        
  23825 ****       115.7500 160.2500 145.2500 Du        
  23826 ****       115.7500 160.2500 145.5000 Du        
  23827 ****       115.7500 160.2500 145.7500 Du        
  23828 ****       115.7500 160.2500 146.0000 Du        
  23829 ****       115.7500 160.5000 145.0000 Du        
  23830 ****       115.7500 160.5000 145.2500 Du        
  23831 ****       115.7500 160.5000 145.5000 Du        
  23832 ****       115.7500 160.5000 145.7500 Du        
  23833 ****       115.7500 160.5000 146.0000 Du        
  23834 ****       115.7500 160.7500 145.0000 Du        
  23835 ****       115.7500 160.7500 145.2500 Du        
  23836 ****       115.7500 160.7500 145.5000 Du        
  23837 ****       115.7500 160.7500 145.7500 Du        
  23838 ****       115.7500 160.7500 146.0000 Du        
  23839 ****       115.7500 160.7500 146.2500 Du        
  23840 ****       115.7500 161.0000 145.2500 Du        
  23841 ****       115.7500 161.0000 145.5000 Du        
  23842 ****       115.7500 161.0000 145.7500 Du        
  23843 ****       115.7500 161.0000 146.0000 Du        
  23844 ****       115.7500 161.0000 146.2500 Du        
  23845 ****       115.7500 161.2500 145.5000 Du        
  23846 ****       115.7500 161.2500 145.7500 Du        
  23847 ****       115.7500 161.2500 146.0000 Du        
  23848 ****       115.7500 161.2500 146.2500 Du        
  23849 ****       116.0000 134.2500 139.0000 Du        
  23850 ****       116.0000 134.2500 139.2500 Du        
  23851 ****       116.0000 134.5000 138.7500 Du        
  23852 ****       116.0000 134.5000 139.0000 Du        
  23853 ****       116.0000 134.7500 138.7500 Du        
  23854 ****       116.0000 134.7500 139.0000 Du        
  23855 ****       116.0000 135.0000 138.7500 Du        
  23856 ****       116.0000 135.5000 138.5000 Du        
  23857 ****       116.0000 135.7500 138.0000 Du        
  23858 ****       116.0000 135.7500 138.2500 Du        
  23859 ****       116.0000 135.7500 138.5000 Du        
  23860 ****       116.0000 136.0000 115.7500 Du        
  23861 ****       116.0000 136.0000 116.0000 Du        
  23862 ****       116.0000 136.0000 116.2500 Du        
  23863 ****       116.0000 136.0000 116.5000 Du        
  23864 ****       116.0000 136.0000 116.7500 Du        
  23865 ****       116.0000 136.0000 120.5000 Du        
  23866 ****       116.0000 136.0000 120.7500 Du        
  23867 ****       116.0000 136.0000 138.2500 Du        
  23868 ****       116.0000 136.0000 138.5000 Du        
  23869 ****       116.0000 136.2500 115.0000 Du        
  23870 ****       116.0000 136.2500 115.2500 Du        
  23871 ****       116.0000 136.2500 115.5000 Du        
  23872 ****       116.0000 136.2500 115.7500 Du        
  23873 ****       116.0000 136.2500 116.0000 Du        
  23874 ****       116.0000 136.2500 116.2500 Du        
  23875 ****       116.0000 136.2500 116.5000 Du        
  23876 ****       116.0000 136.2500 116.7500 Du        
  23877 ****       116.0000 136.2500 117.0000 Du        
  23878 ****       116.0000 136.2500 120.0000 Du        
  23879 ****       116.0000 136.2500 120.2500 Du        
  23880 ****       116.0000 136.2500 120.5000 Du        
  23881 ****       116.0000 136.2500 120.7500 Du        
  23882 ****       116.0000 136.2500 138.2500 Du        
  23883 ****       116.0000 136.5000 114.5000 Du        
  23884 ****       116.0000 136.5000 114.7500 Du        
  23885 ****       116.0000 136.5000 115.0000 Du        
  23886 ****       116.0000 136.5000 115.2500 Du        
  23887 ****       116.0000 136.5000 115.5000 Du        
  23888 ****       116.0000 136.5000 115.7500 Du        
  23889 ****       116.0000 136.5000 116.0000 Du        
  23890 ****       116.0000 136.5000 116.2500 Du        
  23891 ****       116.0000 136.5000 116.5000 Du        
  23892 ****       116.0000 136.5000 116.7500 Du        
  23893 ****       116.0000 136.5000 117.0000 Du        
  23894 ****       116.0000 136.5000 117.2500 Du        
  23895 ****       116.0000 136.5000 119.7500 Du        
  23896 ****       116.0000 136.5000 120.0000 Du        
  23897 ****       116.0000 136.5000 120.2500 Du        
  23898 ****       116.0000 136.5000 120.5000 Du        
  23899 ****       116.0000 136.5000 137.5000 Du        
  23900 ****       116.0000 136.5000 137.7500 Du        
  23901 ****       116.0000 136.5000 138.0000 Du        
  23902 ****       116.0000 136.7500 114.2500 Du        
  23903 ****       116.0000 136.7500 114.5000 Du        
  23904 ****       116.0000 136.7500 114.7500 Du        
  23905 ****       116.0000 136.7500 115.0000 Du        
  23906 ****       116.0000 136.7500 115.2500 Du        
  23907 ****       116.0000 136.7500 115.5000 Du        
  23908 ****       116.0000 136.7500 115.7500 Du        
  23909 ****       116.0000 136.7500 116.0000 Du        
  23910 ****       116.0000 136.7500 116.2500 Du        
  23911 ****       116.0000 136.7500 116.5000 Du        
  23912 ****       116.0000 136.7500 116.7500 Du        
  23913 ****       116.0000 136.7500 117.0000 Du        
  23914 ****       116.0000 136.7500 117.2500 Du        
  23915 ****       116.0000 136.7500 117.5000 Du        
  23916 ****       116.0000 136.7500 117.7500 Du        
  23917 ****       116.0000 136.7500 118.7500 Du        
  23918 ****       116.0000 136.7500 119.0000 Du        
  23919 ****       116.0000 136.7500 119.2500 Du        
  23920 ****       116.0000 136.7500 119.5000 Du        
  23921 ****       116.0000 136.7500 119.7500 Du        
  23922 ****       116.0000 136.7500 120.0000 Du        
  23923 ****       116.0000 136.7500 120.2500 Du        
  23924 ****       116.0000 136.7500 137.5000 Du        
  23925 ****       116.0000 136.7500 137.7500 Du        
  23926 ****       116.0000 136.7500 138.0000 Du        
  23927 ****       116.0000 137.0000 114.2500 Du        
  23928 ****       116.0000 137.0000 114.5000 Du        
  23929 ****       116.0000 137.0000 114.7500 Du        
  23930 ****       116.0000 137.0000 115.0000 Du        
  23931 ****       116.0000 137.0000 115.2500 Du        
  23932 ****       116.0000 137.0000 115.5000 Du        
  23933 ****       116.0000 137.0000 115.7500 Du        
  23934 ****       116.0000 137.0000 116.0000 Du        
  23935 ****       116.0000 137.0000 116.2500 Du        
  23936 ****       116.0000 137.0000 116.5000 Du        
  23937 ****       116.0000 137.0000 116.7500 Du        
  23938 ****       116.0000 137.0000 117.0000 Du        
  23939 ****       116.0000 137.0000 117.2500 Du        
  23940 ****       116.0000 137.0000 117.5000 Du        
  23941 ****       116.0000 137.0000 117.7500 Du        
  23942 ****       116.0000 137.0000 118.0000 Du        
  23943 ****       116.0000 137.0000 118.2500 Du        
  23944 ****       116.0000 137.0000 118.5000 Du        
  23945 ****       116.0000 137.0000 118.7500 Du        
  23946 ****       116.0000 137.0000 119.0000 Du        
  23947 ****       116.0000 137.0000 119.2500 Du        
  23948 ****       116.0000 137.0000 119.5000 Du        
  23949 ****       116.0000 137.0000 119.7500 Du        
  23950 ****       116.0000 137.0000 120.0000 Du        
  23951 ****       116.0000 137.0000 137.2500 Du        
  23952 ****       116.0000 137.0000 137.5000 Du        
  23953 ****       116.0000 137.0000 137.7500 Du        
  23954 ****       116.0000 137.0000 138.0000 Du        
  23955 ****       116.0000 137.2500 114.5000 Du        
  23956 ****       116.0000 137.2500 114.7500 Du        
  23957 ****       116.0000 137.2500 115.0000 Du        
  23958 ****       116.0000 137.2500 115.2500 Du        
  23959 ****       116.0000 137.2500 115.5000 Du        
  23960 ****       116.0000 137.2500 115.7500 Du        
  23961 ****       116.0000 137.2500 116.0000 Du        
  23962 ****       116.0000 137.2500 116.2500 Du        
  23963 ****       116.0000 137.2500 116.5000 Du        
  23964 ****       116.0000 137.2500 116.7500 Du        
  23965 ****       116.0000 137.2500 117.0000 Du        
  23966 ****       116.0000 137.2500 117.2500 Du        
  23967 ****       116.0000 137.2500 117.5000 Du        
  23968 ****       116.0000 137.2500 117.7500 Du        
  23969 ****       116.0000 137.2500 118.0000 Du        
  23970 ****       116.0000 137.2500 118.2500 Du        
  23971 ****       116.0000 137.2500 118.5000 Du        
  23972 ****       116.0000 137.2500 118.7500 Du        
  23973 ****       116.0000 137.2500 119.0000 Du        
  23974 ****       116.0000 137.2500 119.2500 Du        
  23975 ****       116.0000 137.2500 119.5000 Du        
  23976 ****       116.0000 137.2500 119.7500 Du        
  23977 ****       116.0000 137.2500 120.0000 Du        
  23978 ****       116.0000 137.2500 137.2500 Du        
  23979 ****       116.0000 137.2500 137.7500 Du        
  23980 ****       116.0000 137.5000 114.7500 Du        
  23981 ****       116.0000 137.5000 115.0000 Du        
  23982 ****       116.0000 137.5000 115.2500 Du        
  23983 ****       116.0000 137.5000 115.5000 Du        
  23984 ****       116.0000 137.5000 115.7500 Du        
  23985 ****       116.0000 137.5000 116.0000 Du        
  23986 ****       116.0000 137.5000 116.2500 Du        
  23987 ****       116.0000 137.5000 116.5000 Du        
  23988 ****       116.0000 137.5000 116.7500 Du        
  23989 ****       116.0000 137.5000 117.0000 Du        
  23990 ****       116.0000 137.5000 117.2500 Du        
  23991 ****       116.0000 137.5000 117.5000 Du        
  23992 ****       116.0000 137.5000 117.7500 Du        
  23993 ****       116.0000 137.5000 118.0000 Du        
  23994 ****       116.0000 137.5000 118.2500 Du        
  23995 ****       116.0000 137.5000 118.5000 Du        
  23996 ****       116.0000 137.5000 118.7500 Du        
  23997 ****       116.0000 137.5000 119.0000 Du        
  23998 ****       116.0000 137.5000 119.2500 Du        
  23999 ****       116.0000 137.5000 119.5000 Du        
  24000 ****       116.0000 137.5000 119.7500 Du        
  24001 ****       116.0000 137.5000 137.0000 Du        
  24002 ****       116.0000 137.5000 137.2500 Du        
  24003 ****       116.0000 137.5000 137.5000 Du        
  24004 ****       116.0000 137.5000 137.7500 Du        
  24005 ****       116.0000 137.7500 115.2500 Du        
  24006 ****       116.0000 137.7500 115.5000 Du        
  24007 ****       116.0000 137.7500 115.7500 Du        
  24008 ****       116.0000 137.7500 116.0000 Du        
  24009 ****       116.0000 137.7500 116.2500 Du        
  24010 ****       116.0000 137.7500 116.5000 Du        
  24011 ****       116.0000 137.7500 116.7500 Du        
  24012 ****       116.0000 137.7500 117.0000 Du        
  24013 ****       116.0000 137.7500 117.2500 Du        
  24014 ****       116.0000 137.7500 118.7500 Du        
  24015 ****       116.0000 137.7500 119.0000 Du        
  24016 ****       116.0000 137.7500 119.2500 Du        
  24017 ****       116.0000 137.7500 119.5000 Du        
  24018 ****       116.0000 137.7500 136.7500 Du        
  24019 ****       116.0000 137.7500 137.5000 Du        
  24020 ****       116.0000 137.7500 137.7500 Du        
  24021 ****       116.0000 138.0000 116.0000 Du        
  24022 ****       116.0000 138.0000 116.2500 Du        
  24023 ****       116.0000 138.0000 136.5000 Du        
  24024 ****       116.0000 138.0000 136.7500 Du        
  24025 ****       116.0000 138.0000 137.0000 Du        
  24026 ****       116.0000 138.0000 137.2500 Du        
  24027 ****       116.0000 138.2500 131.5000 Du        
  24028 ****       116.0000 138.2500 131.7500 Du        
  24029 ****       116.0000 138.2500 136.5000 Du        
  24030 ****       116.0000 138.2500 136.7500 Du        
  24031 ****       116.0000 138.2500 137.0000 Du        
  24032 ****       116.0000 138.2500 137.2500 Du        
  24033 ****       116.0000 138.5000 131.0000 Du        
  24034 ****       116.0000 138.5000 131.2500 Du        
  24035 ****       116.0000 138.5000 131.5000 Du        
  24036 ****       116.0000 138.5000 131.7500 Du        
  24037 ****       116.0000 138.5000 132.0000 Du        
  24038 ****       116.0000 138.5000 132.2500 Du        
  24039 ****       116.0000 138.5000 136.7500 Du        
  24040 ****       116.0000 138.5000 137.0000 Du        
  24041 ****       116.0000 138.5000 137.2500 Du        
  24042 ****       116.0000 138.5000 137.5000 Du        
  24043 ****       116.0000 138.7500 131.0000 Du        
  24044 ****       116.0000 138.7500 131.2500 Du        
  24045 ****       116.0000 138.7500 131.5000 Du        
  24046 ****       116.0000 138.7500 131.7500 Du        
  24047 ****       116.0000 138.7500 132.0000 Du        
  24048 ****       116.0000 138.7500 132.2500 Du        
  24049 ****       116.0000 138.7500 137.0000 Du        
  24050 ****       116.0000 138.7500 137.2500 Du        
  24051 ****       116.0000 138.7500 137.5000 Du        
  24052 ****       116.0000 138.7500 137.7500 Du        
  24053 ****       116.0000 139.0000 130.7500 Du        
  24054 ****       116.0000 139.0000 131.0000 Du        
  24055 ****       116.0000 139.0000 131.2500 Du        
  24056 ****       116.0000 139.0000 131.5000 Du        
  24057 ****       116.0000 139.0000 131.7500 Du        
  24058 ****       116.0000 139.0000 132.0000 Du        
  24059 ****       116.0000 139.0000 132.2500 Du        
  24060 ****       116.0000 139.0000 137.2500 Du        
  24061 ****       116.0000 139.0000 137.5000 Du        
  24062 ****       116.0000 139.0000 137.7500 Du        
  24063 ****       116.0000 139.2500 131.0000 Du        
  24064 ****       116.0000 139.2500 131.2500 Du        
  24065 ****       116.0000 139.2500 131.5000 Du        
  24066 ****       116.0000 139.2500 131.7500 Du        
  24067 ****       116.0000 139.2500 132.0000 Du        
  24068 ****       116.0000 139.2500 132.2500 Du        
  24069 ****       116.0000 139.2500 137.7500 Du        
  24070 ****       116.0000 139.5000 131.0000 Du        
  24071 ****       116.0000 139.5000 131.2500 Du        
  24072 ****       116.0000 139.5000 131.5000 Du        
  24073 ****       116.0000 139.5000 131.7500 Du        
  24074 ****       116.0000 139.5000 137.7500 Du        
  24075 ****       116.0000 139.7500 138.0000 Du        
  24076 ****       116.0000 140.0000 138.0000 Du        
  24077 ****       116.0000 146.7500 106.0000 Du        
  24078 ****       116.0000 147.0000 106.0000 Du        
  24079 ****       116.0000 147.0000 106.2500 Du        
  24080 ****       116.0000 147.0000 106.5000 Du        
  24081 ****       116.0000 147.2500 106.0000 Du        
  24082 ****       116.0000 147.2500 106.2500 Du        
  24083 ****       116.0000 147.2500 106.5000 Du        
  24084 ****       116.0000 147.2500 106.7500 Du        
  24085 ****       116.0000 147.2500 107.0000 Du        
  24086 ****       116.0000 147.2500 107.2500 Du        
  24087 ****       116.0000 147.5000 106.5000 Du        
  24088 ****       116.0000 147.5000 106.7500 Du        
  24089 ****       116.0000 147.5000 107.0000 Du        
  24090 ****       116.0000 147.5000 107.2500 Du        
  24091 ****       116.0000 147.5000 107.5000 Du        
  24092 ****       116.0000 147.5000 107.7500 Du        
  24093 ****       116.0000 147.7500 106.2500 Du        
  24094 ****       116.0000 147.7500 106.5000 Du        
  24095 ****       116.0000 147.7500 106.7500 Du        
  24096 ****       116.0000 147.7500 107.0000 Du        
  24097 ****       116.0000 147.7500 107.2500 Du        
  24098 ****       116.0000 147.7500 107.5000 Du        
  24099 ****       116.0000 147.7500 107.7500 Du        
  24100 ****       116.0000 147.7500 108.0000 Du        
  24101 ****       116.0000 148.0000 106.2500 Du        
  24102 ****       116.0000 148.0000 106.5000 Du        
  24103 ****       116.0000 148.0000 106.7500 Du        
  24104 ****       116.0000 148.0000 107.0000 Du        
  24105 ****       116.0000 148.0000 107.2500 Du        
  24106 ****       116.0000 148.0000 107.5000 Du        
  24107 ****       116.0000 148.0000 107.7500 Du        
  24108 ****       116.0000 148.2500 106.2500 Du        
  24109 ****       116.0000 148.2500 106.5000 Du        
  24110 ****       116.0000 148.2500 106.7500 Du        
  24111 ****       116.0000 148.2500 107.0000 Du        
  24112 ****       116.0000 148.2500 107.2500 Du        
  24113 ****       116.0000 148.2500 107.5000 Du        
  24114 ****       116.0000 148.2500 107.7500 Du        
  24115 ****       116.0000 148.5000 106.5000 Du        
  24116 ****       116.0000 148.5000 106.7500 Du        
  24117 ****       116.0000 148.5000 107.0000 Du        
  24118 ****       116.0000 148.5000 107.2500 Du        
  24119 ****       116.0000 148.5000 107.5000 Du        
  24120 ****       116.0000 148.7500 106.5000 Du        
  24121 ****       116.0000 148.7500 106.7500 Du        
  24122 ****       116.0000 148.7500 107.0000 Du        
  24123 ****       116.0000 148.7500 107.2500 Du        
  24124 ****       116.0000 148.7500 107.5000 Du        
  24125 ****       116.0000 149.0000 106.2500 Du        
  24126 ****       116.0000 149.0000 106.5000 Du        
  24127 ****       116.0000 149.0000 106.7500 Du        
  24128 ****       116.0000 149.0000 107.0000 Du        
  24129 ****       116.0000 149.0000 107.2500 Du        
  24130 ****       116.0000 149.0000 107.5000 Du        
  24131 ****       116.0000 149.2500 106.0000 Du        
  24132 ****       116.0000 149.2500 106.2500 Du        
  24133 ****       116.0000 149.2500 106.5000 Du        
  24134 ****       116.0000 149.2500 106.7500 Du        
  24135 ****       116.0000 149.2500 107.0000 Du        
  24136 ****       116.0000 149.2500 107.2500 Du        
  24137 ****       116.0000 149.5000 106.2500 Du        
  24138 ****       116.0000 149.5000 106.5000 Du        
  24139 ****       116.0000 149.5000 106.7500 Du        
  24140 ****       116.0000 149.5000 107.0000 Du        
  24141 ****       116.0000 149.5000 107.2500 Du        
  24142 ****       116.0000 149.7500 106.0000 Du        
  24143 ****       116.0000 149.7500 106.2500 Du        
  24144 ****       116.0000 149.7500 106.5000 Du        
  24145 ****       116.0000 149.7500 106.7500 Du        
  24146 ****       116.0000 149.7500 107.0000 Du        
  24147 ****       116.0000 149.7500 107.2500 Du        
  24148 ****       116.0000 150.0000 106.0000 Du        
  24149 ****       116.0000 150.0000 106.2500 Du        
  24150 ****       116.0000 150.0000 106.5000 Du        
  24151 ****       116.0000 150.0000 106.7500 Du        
  24152 ****       116.0000 150.0000 107.0000 Du        
  24153 ****       116.0000 150.0000 107.2500 Du        
  24154 ****       116.0000 150.2500 106.0000 Du        
  24155 ****       116.0000 150.2500 106.2500 Du        
  24156 ****       116.0000 150.2500 106.5000 Du        
  24157 ****       116.0000 150.2500 106.7500 Du        
  24158 ****       116.0000 150.2500 107.0000 Du        
  24159 ****       116.0000 150.2500 107.2500 Du        
  24160 ****       116.0000 150.5000 106.2500 Du        
  24161 ****       116.0000 150.5000 106.5000 Du        
  24162 ****       116.0000 150.5000 106.7500 Du        
  24163 ****       116.0000 150.5000 107.0000 Du        
  24164 ****       116.0000 150.5000 107.2500 Du        
  24165 ****       116.0000 150.7500 106.2500 Du        
  24166 ****       116.0000 150.7500 106.5000 Du        
  24167 ****       116.0000 150.7500 106.7500 Du        
  24168 ****       116.0000 150.7500 107.0000 Du        
  24169 ****       116.0000 150.7500 107.2500 Du        
  24170 ****       116.0000 151.0000 106.7500 Du        
  24171 ****       116.0000 151.0000 107.0000 Du        
  24172 ****       116.0000 151.0000 107.2500 Du        
  24173 ****       116.0000 151.2500 106.7500 Du        
  24174 ****       116.0000 151.2500 107.0000 Du        
  24175 ****       116.0000 151.2500 107.2500 Du        
  24176 ****       116.0000 153.0000 106.0000 Du        
  24177 ****       116.0000 153.0000 106.2500 Du        
  24178 ****       116.0000 153.0000 137.2500 Du        
  24179 ****       116.0000 153.0000 137.5000 Du        
  24180 ****       116.0000 153.0000 137.7500 Du        
  24181 ****       116.0000 153.0000 138.0000 Du        
  24182 ****       116.0000 153.0000 138.2500 Du        
  24183 ****       116.0000 153.2500 106.0000 Du        
  24184 ****       116.0000 153.2500 106.2500 Du        
  24185 ****       116.0000 153.2500 137.0000 Du        
  24186 ****       116.0000 153.2500 137.2500 Du        
  24187 ****       116.0000 153.2500 137.5000 Du        
  24188 ****       116.0000 153.2500 137.7500 Du        
  24189 ****       116.0000 153.2500 138.0000 Du        
  24190 ****       116.0000 153.2500 138.2500 Du        
  24191 ****       116.0000 153.5000 106.0000 Du        
  24192 ****       116.0000 153.5000 106.2500 Du        
  24193 ****       116.0000 153.5000 136.7500 Du        
  24194 ****       116.0000 153.5000 137.0000 Du        
  24195 ****       116.0000 153.5000 137.2500 Du        
  24196 ****       116.0000 153.5000 137.5000 Du        
  24197 ****       116.0000 153.5000 137.7500 Du        
  24198 ****       116.0000 153.5000 138.0000 Du        
  24199 ****       116.0000 153.5000 138.2500 Du        
  24200 ****       116.0000 153.5000 138.5000 Du        
  24201 ****       116.0000 153.7500 106.0000 Du        
  24202 ****       116.0000 153.7500 106.2500 Du        
  24203 ****       116.0000 153.7500 136.7500 Du        
  24204 ****       116.0000 153.7500 137.0000 Du        
  24205 ****       116.0000 153.7500 137.2500 Du        
  24206 ****       116.0000 153.7500 137.5000 Du        
  24207 ****       116.0000 153.7500 137.7500 Du        
  24208 ****       116.0000 153.7500 138.0000 Du        
  24209 ****       116.0000 153.7500 138.2500 Du        
  24210 ****       116.0000 153.7500 138.5000 Du        
  24211 ****       116.0000 153.7500 138.7500 Du        
  24212 ****       116.0000 153.7500 139.0000 Du        
  24213 ****       116.0000 154.0000 106.0000 Du        
  24214 ****       116.0000 154.0000 106.2500 Du        
  24215 ****       116.0000 154.0000 137.0000 Du        
  24216 ****       116.0000 154.0000 137.2500 Du        
  24217 ****       116.0000 154.0000 137.5000 Du        
  24218 ****       116.0000 154.0000 137.7500 Du        
  24219 ****       116.0000 154.0000 138.0000 Du        
  24220 ****       116.0000 154.0000 138.2500 Du        
  24221 ****       116.0000 154.0000 138.5000 Du        
  24222 ****       116.0000 154.0000 138.7500 Du        
  24223 ****       116.0000 154.0000 139.0000 Du        
  24224 ****       116.0000 154.2500 106.0000 Du        
  24225 ****       116.0000 154.2500 106.2500 Du        
  24226 ****       116.0000 154.2500 137.2500 Du        
  24227 ****       116.0000 154.2500 137.5000 Du        
  24228 ****       116.0000 154.2500 137.7500 Du        
  24229 ****       116.0000 154.2500 138.0000 Du        
  24230 ****       116.0000 154.2500 138.2500 Du        
  24231 ****       116.0000 154.2500 138.5000 Du        
  24232 ****       116.0000 154.2500 138.7500 Du        
  24233 ****       116.0000 154.2500 139.0000 Du        
  24234 ****       116.0000 154.5000 106.0000 Du        
  24235 ****       116.0000 154.5000 106.2500 Du        
  24236 ****       116.0000 154.5000 137.5000 Du        
  24237 ****       116.0000 154.5000 137.7500 Du        
  24238 ****       116.0000 154.5000 138.0000 Du        
  24239 ****       116.0000 154.5000 138.2500 Du        
  24240 ****       116.0000 154.5000 138.5000 Du        
  24241 ****       116.0000 154.5000 138.7500 Du        
  24242 ****       116.0000 154.7500 106.0000 Du        
  24243 ****       116.0000 154.7500 106.2500 Du        
  24244 ****       116.0000 154.7500 138.0000 Du        
  24245 ****       116.0000 154.7500 138.2500 Du        
  24246 ****       116.0000 155.0000 106.0000 Du        
  24247 ****       116.0000 155.0000 106.2500 Du        
  24248 ****       116.0000 155.2500 106.0000 Du        
  24249 ****       116.0000 155.2500 106.2500 Du        
  24250 ****       116.0000 155.7500 106.0000 Du        
  24251 ****       116.0000 155.7500 106.2500 Du        
  24252 ****       116.0000 155.7500 106.5000 Du        
  24253 ****       116.0000 156.0000 106.5000 Du        
  24254 ****       116.0000 156.2500 106.5000 Du        
  24255 ****       116.0000 156.2500 106.7500 Du        
  24256 ****       116.0000 158.0000 108.0000 Du        
  24257 ****       116.0000 158.0000 108.2500 Du        
  24258 ****       116.0000 158.2500 108.0000 Du        
  24259 ****       116.0000 158.2500 108.2500 Du        
  24260 ****       116.0000 158.2500 108.5000 Du        
  24261 ****       116.0000 158.5000 108.5000 Du        
  24262 ****       116.0000 158.5000 108.7500 Du        
  24263 ****       116.0000 158.7500 108.5000 Du        
  24264 ****       116.0000 158.7500 108.7500 Du        
  24265 ****       116.0000 158.7500 109.0000 Du        
  24266 ****       116.0000 159.0000 108.5000 Du        
  24267 ****       116.0000 159.0000 108.7500 Du        
  24268 ****       116.0000 159.0000 109.0000 Du        
  24269 ****       116.0000 159.0000 109.2500 Du        
  24270 ****       116.0000 159.0000 145.2500 Du        
  24271 ****       116.0000 159.2500 108.7500 Du        
  24272 ****       116.0000 159.2500 109.0000 Du        
  24273 ****       116.0000 159.2500 109.2500 Du        
  24274 ****       116.0000 159.2500 109.5000 Du        
  24275 ****       116.0000 159.2500 109.7500 Du        
  24276 ****       116.0000 159.2500 145.0000 Du        
  24277 ****       116.0000 159.2500 145.2500 Du        
  24278 ****       116.0000 159.2500 145.5000 Du        
  24279 ****       116.0000 159.5000 109.2500 Du        
  24280 ****       116.0000 159.5000 109.5000 Du        
  24281 ****       116.0000 159.5000 145.0000 Du        
  24282 ****       116.0000 159.5000 145.2500 Du        
  24283 ****       116.0000 159.5000 145.5000 Du        
  24284 ****       116.0000 159.5000 145.7500 Du        
  24285 ****       116.0000 159.7500 144.7500 Du        
  24286 ****       116.0000 159.7500 145.0000 Du        
  24287 ****       116.0000 159.7500 145.2500 Du        
  24288 ****       116.0000 159.7500 145.5000 Du        
  24289 ****       116.0000 159.7500 145.7500 Du        
  24290 ****       116.0000 160.0000 144.7500 Du        
  24291 ****       116.0000 160.0000 145.0000 Du        
  24292 ****       116.0000 160.0000 145.2500 Du        
  24293 ****       116.0000 160.0000 145.5000 Du        
  24294 ****       116.0000 160.0000 145.7500 Du        
  24295 ****       116.0000 160.0000 146.0000 Du        
  24296 ****       116.0000 160.2500 144.7500 Du        
  24297 ****       116.0000 160.2500 145.0000 Du        
  24298 ****       116.0000 160.2500 145.2500 Du        
  24299 ****       116.0000 160.2500 145.5000 Du        
  24300 ****       116.0000 160.2500 145.7500 Du        
  24301 ****       116.0000 160.2500 146.0000 Du        
  24302 ****       116.0000 160.5000 145.0000 Du        
  24303 ****       116.0000 160.5000 145.2500 Du        
  24304 ****       116.0000 160.5000 145.5000 Du        
  24305 ****       116.0000 160.5000 145.7500 Du        
  24306 ****       116.0000 160.5000 146.0000 Du        
  24307 ****       116.0000 160.5000 146.2500 Du        
  24308 ****       116.0000 160.7500 145.0000 Du        
  24309 ****       116.0000 160.7500 145.2500 Du        
  24310 ****       116.0000 160.7500 145.5000 Du        
  24311 ****       116.0000 160.7500 145.7500 Du        
  24312 ****       116.0000 160.7500 146.0000 Du        
  24313 ****       116.0000 160.7500 146.2500 Du        
  24314 ****       116.0000 161.0000 145.2500 Du        
  24315 ****       116.0000 161.0000 145.5000 Du        
  24316 ****       116.0000 161.0000 145.7500 Du        
  24317 ****       116.0000 161.0000 146.0000 Du        
  24318 ****       116.0000 161.0000 146.2500 Du        
  24319 ****       116.0000 161.2500 145.5000 Du        
  24320 ****       116.0000 161.2500 145.7500 Du        
  24321 ****       116.0000 161.2500 146.0000 Du        
  24322 ****       116.0000 161.2500 146.2500 Du        
  24323 ****       116.0000 161.5000 146.0000 Du        
  24324 ****       116.0000 161.5000 146.2500 Du        
  24325 ****       116.2500 134.0000 139.0000 Du        
  24326 ****       116.2500 134.0000 139.2500 Du        
  24327 ****       116.2500 134.2500 139.0000 Du        
  24328 ****       116.2500 134.2500 139.2500 Du        
  24329 ****       116.2500 134.5000 139.0000 Du        
  24330 ****       116.2500 134.7500 138.7500 Du        
  24331 ****       116.2500 134.7500 139.0000 Du        
  24332 ****       116.2500 135.0000 138.7500 Du        
  24333 ****       116.2500 135.5000 138.2500 Du        
  24334 ****       116.2500 135.5000 138.5000 Du        
  24335 ****       116.2500 135.7500 138.0000 Du        
  24336 ****       116.2500 135.7500 138.2500 Du        
  24337 ****       116.2500 135.7500 138.5000 Du        
  24338 ****       116.2500 136.0000 137.7500 Du        
  24339 ****       116.2500 136.0000 138.0000 Du        
  24340 ****       116.2500 136.0000 138.2500 Du        
  24341 ****       116.2500 136.0000 138.5000 Du        
  24342 ****       116.2500 136.2500 115.7500 Du        
  24343 ****       116.2500 136.2500 116.0000 Du        
  24344 ****       116.2500 136.2500 116.2500 Du        
  24345 ****       116.2500 136.2500 116.5000 Du        
  24346 ****       116.2500 136.2500 116.7500 Du        
  24347 ****       116.2500 136.2500 137.7500 Du        
  24348 ****       116.2500 136.2500 138.0000 Du        
  24349 ****       116.2500 136.2500 138.2500 Du        
  24350 ****       116.2500 136.5000 114.7500 Du        
  24351 ****       116.2500 136.5000 115.0000 Du        
  24352 ****       116.2500 136.5000 115.2500 Du        
  24353 ****       116.2500 136.5000 115.5000 Du        
  24354 ****       116.2500 136.5000 115.7500 Du        
  24355 ****       116.2500 136.5000 116.0000 Du        
  24356 ****       116.2500 136.5000 116.2500 Du        
  24357 ****       116.2500 136.5000 116.5000 Du        
  24358 ****       116.2500 136.5000 116.7500 Du        
  24359 ****       116.2500 136.5000 117.0000 Du        
  24360 ****       116.2500 136.5000 137.2500 Du        
  24361 ****       116.2500 136.5000 137.5000 Du        
  24362 ****       116.2500 136.5000 137.7500 Du        
  24363 ****       116.2500 136.5000 138.0000 Du        
  24364 ****       116.2500 136.5000 138.2500 Du        
  24365 ****       116.2500 136.7500 114.5000 Du        
  24366 ****       116.2500 136.7500 114.7500 Du        
  24367 ****       116.2500 136.7500 115.0000 Du        
  24368 ****       116.2500 136.7500 115.2500 Du        
  24369 ****       116.2500 136.7500 115.5000 Du        
  24370 ****       116.2500 136.7500 115.7500 Du        
  24371 ****       116.2500 136.7500 116.0000 Du        
  24372 ****       116.2500 136.7500 116.2500 Du        
  24373 ****       116.2500 136.7500 116.5000 Du        
  24374 ****       116.2500 136.7500 116.7500 Du        
  24375 ****       116.2500 136.7500 117.0000 Du        
  24376 ****       116.2500 136.7500 117.2500 Du        
  24377 ****       116.2500 136.7500 119.2500 Du        
  24378 ****       116.2500 136.7500 119.5000 Du        
  24379 ****       116.2500 136.7500 119.7500 Du        
  24380 ****       116.2500 136.7500 120.0000 Du        
  24381 ****       116.2500 136.7500 137.2500 Du        
  24382 ****       116.2500 136.7500 137.5000 Du        
  24383 ****       116.2500 136.7500 137.7500 Du        
  24384 ****       116.2500 136.7500 138.0000 Du        
  24385 ****       116.2500 137.0000 114.2500 Du        
  24386 ****       116.2500 137.0000 114.5000 Du        
  24387 ****       116.2500 137.0000 114.7500 Du        
  24388 ****       116.2500 137.0000 115.0000 Du        
  24389 ****       116.2500 137.0000 115.2500 Du        
  24390 ****       116.2500 137.0000 115.5000 Du        
  24391 ****       116.2500 137.0000 115.7500 Du        
  24392 ****       116.2500 137.0000 116.0000 Du        
  24393 ****       116.2500 137.0000 116.2500 Du        
  24394 ****       116.2500 137.0000 116.5000 Du        
  24395 ****       116.2500 137.0000 116.7500 Du        
  24396 ****       116.2500 137.0000 117.0000 Du        
  24397 ****       116.2500 137.0000 117.2500 Du        
  24398 ****       116.2500 137.0000 117.5000 Du        
  24399 ****       116.2500 137.0000 118.0000 Du        
  24400 ****       116.2500 137.0000 118.7500 Du        
  24401 ****       116.2500 137.0000 119.0000 Du        
  24402 ****       116.2500 137.0000 119.2500 Du        
  24403 ****       116.2500 137.0000 119.5000 Du        
  24404 ****       116.2500 137.0000 119.7500 Du        
  24405 ****       116.2500 137.0000 137.2500 Du        
  24406 ****       116.2500 137.0000 137.5000 Du        
  24407 ****       116.2500 137.0000 137.7500 Du        
  24408 ****       116.2500 137.0000 138.0000 Du        
  24409 ****       116.2500 137.2500 114.5000 Du        
  24410 ****       116.2500 137.2500 114.7500 Du        
  24411 ****       116.2500 137.2500 115.0000 Du        
  24412 ****       116.2500 137.2500 115.2500 Du        
  24413 ****       116.2500 137.2500 115.5000 Du        
  24414 ****       116.2500 137.2500 115.7500 Du        
  24415 ****       116.2500 137.2500 116.0000 Du        
  24416 ****       116.2500 137.2500 116.2500 Du        
  24417 ****       116.2500 137.2500 116.5000 Du        
  24418 ****       116.2500 137.2500 116.7500 Du        
  24419 ****       116.2500 137.2500 117.0000 Du        
  24420 ****       116.2500 137.2500 117.2500 Du        
  24421 ****       116.2500 137.2500 117.5000 Du        
  24422 ****       116.2500 137.2500 117.7500 Du        
  24423 ****       116.2500 137.2500 118.0000 Du        
  24424 ****       116.2500 137.2500 118.5000 Du        
  24425 ****       116.2500 137.2500 118.7500 Du        
  24426 ****       116.2500 137.2500 119.0000 Du        
  24427 ****       116.2500 137.2500 119.2500 Du        
  24428 ****       116.2500 137.2500 119.5000 Du        
  24429 ****       116.2500 137.2500 119.7500 Du        
  24430 ****       116.2500 137.2500 137.2500 Du        
  24431 ****       116.2500 137.2500 137.5000 Du        
  24432 ****       116.2500 137.2500 137.7500 Du        
  24433 ****       116.2500 137.5000 115.0000 Du        
  24434 ****       116.2500 137.5000 115.2500 Du        
  24435 ****       116.2500 137.5000 115.5000 Du        
  24436 ****       116.2500 137.5000 115.7500 Du        
  24437 ****       116.2500 137.5000 116.0000 Du        
  24438 ****       116.2500 137.5000 116.2500 Du        
  24439 ****       116.2500 137.5000 116.5000 Du        
  24440 ****       116.2500 137.5000 116.7500 Du        
  24441 ****       116.2500 137.5000 117.0000 Du        
  24442 ****       116.2500 137.5000 117.2500 Du        
  24443 ****       116.2500 137.5000 117.5000 Du        
  24444 ****       116.2500 137.5000 117.7500 Du        
  24445 ****       116.2500 137.5000 118.0000 Du        
  24446 ****       116.2500 137.5000 118.5000 Du        
  24447 ****       116.2500 137.5000 118.7500 Du        
  24448 ****       116.2500 137.5000 119.0000 Du        
  24449 ****       116.2500 137.5000 119.2500 Du        
  24450 ****       116.2500 137.5000 119.5000 Du        
  24451 ****       116.2500 137.5000 119.7500 Du        
  24452 ****       116.2500 137.5000 137.5000 Du        
  24453 ****       116.2500 137.5000 137.7500 Du        
  24454 ****       116.2500 137.7500 115.7500 Du        
  24455 ****       116.2500 137.7500 116.0000 Du        
  24456 ****       116.2500 137.7500 116.2500 Du        
  24457 ****       116.2500 137.7500 116.5000 Du        
  24458 ****       116.2500 137.7500 116.7500 Du        
  24459 ****       116.2500 137.7500 117.0000 Du        
  24460 ****       116.2500 137.7500 117.2500 Du        
  24461 ****       116.2500 137.7500 118.7500 Du        
  24462 ****       116.2500 137.7500 119.0000 Du        
  24463 ****       116.2500 137.7500 119.2500 Du        
  24464 ****       116.2500 137.7500 119.5000 Du        
  24465 ****       116.2500 137.7500 137.5000 Du        
  24466 ****       116.2500 138.0000 137.0000 Du        
  24467 ****       116.2500 138.0000 137.2500 Du        
  24468 ****       116.2500 138.0000 137.5000 Du        
  24469 ****       116.2500 138.2500 131.7500 Du        
  24470 ****       116.2500 138.2500 136.7500 Du        
  24471 ****       116.2500 138.2500 137.0000 Du        
  24472 ****       116.2500 138.2500 137.2500 Du        
  24473 ****       116.2500 138.5000 131.2500 Du        
  24474 ****       116.2500 138.5000 131.5000 Du        
  24475 ****       116.2500 138.5000 131.7500 Du        
  24476 ****       116.2500 138.5000 132.0000 Du        
  24477 ****       116.2500 138.5000 137.0000 Du        
  24478 ****       116.2500 138.5000 137.2500 Du        
  24479 ****       116.2500 138.7500 131.0000 Du        
  24480 ****       116.2500 138.7500 131.2500 Du        
  24481 ****       116.2500 138.7500 131.5000 Du        
  24482 ****       116.2500 138.7500 131.7500 Du        
  24483 ****       116.2500 138.7500 132.0000 Du        
  24484 ****       116.2500 138.7500 132.2500 Du        
  24485 ****       116.2500 138.7500 137.0000 Du        
  24486 ****       116.2500 138.7500 137.2500 Du        
  24487 ****       116.2500 138.7500 137.5000 Du        
  24488 ****       116.2500 139.0000 131.0000 Du        
  24489 ****       116.2500 139.0000 131.2500 Du        
  24490 ****       116.2500 139.0000 131.5000 Du        
  24491 ****       116.2500 139.0000 131.7500 Du        
  24492 ****       116.2500 139.0000 132.0000 Du        
  24493 ****       116.2500 139.0000 132.2500 Du        
  24494 ****       116.2500 139.0000 137.2500 Du        
  24495 ****       116.2500 139.0000 137.5000 Du        
  24496 ****       116.2500 139.0000 137.7500 Du        
  24497 ****       116.2500 139.2500 131.0000 Du        
  24498 ****       116.2500 139.2500 131.2500 Du        
  24499 ****       116.2500 139.2500 131.5000 Du        
  24500 ****       116.2500 139.2500 131.7500 Du        
  24501 ****       116.2500 139.2500 132.0000 Du        
  24502 ****       116.2500 139.2500 132.2500 Du        
  24503 ****       116.2500 139.2500 137.7500 Du        
  24504 ****       116.2500 139.5000 131.2500 Du        
  24505 ****       116.2500 139.5000 131.5000 Du        
  24506 ****       116.2500 139.5000 131.7500 Du        
  24507 ****       116.2500 139.5000 137.7500 Du        
  24508 ****       116.2500 139.7500 137.7500 Du        
  24509 ****       116.2500 140.0000 138.0000 Du        
  24510 ****       116.2500 146.7500 138.7500 Du        
  24511 ****       116.2500 147.0000 138.2500 Du        
  24512 ****       116.2500 147.0000 138.5000 Du        
  24513 ****       116.2500 147.0000 138.7500 Du        
  24514 ****       116.2500 147.0000 139.0000 Du        
  24515 ****       116.2500 147.2500 106.0000 Du        
  24516 ****       116.2500 147.2500 106.2500 Du        
  24517 ****       116.2500 147.2500 138.0000 Du        
  24518 ****       116.2500 147.2500 138.2500 Du        
  24519 ****       116.2500 147.2500 138.5000 Du        
  24520 ****       116.2500 147.2500 138.7500 Du        
  24521 ****       116.2500 147.5000 138.0000 Du        
  24522 ****       116.2500 147.5000 138.2500 Du        
  24523 ****       116.2500 147.5000 138.5000 Du        
  24524 ****       116.2500 147.5000 138.7500 Du        
  24525 ****       116.2500 147.7500 106.5000 Du        
  24526 ****       116.2500 147.7500 106.7500 Du        
  24527 ****       116.2500 147.7500 107.2500 Du        
  24528 ****       116.2500 147.7500 107.5000 Du        
  24529 ****       116.2500 147.7500 107.7500 Du        
  24530 ****       116.2500 147.7500 138.0000 Du        
  24531 ****       116.2500 147.7500 138.2500 Du        
  24532 ****       116.2500 147.7500 138.5000 Du        
  24533 ****       116.2500 147.7500 138.7500 Du        
  24534 ****       116.2500 148.0000 106.7500 Du        
  24535 ****       116.2500 148.0000 107.0000 Du        
  24536 ****       116.2500 148.0000 107.2500 Du        
  24537 ****       116.2500 148.0000 107.5000 Du        
  24538 ****       116.2500 148.0000 107.7500 Du        
  24539 ****       116.2500 148.0000 138.0000 Du        
  24540 ****       116.2500 148.0000 138.2500 Du        
  24541 ****       116.2500 148.0000 138.5000 Du        
  24542 ****       116.2500 148.2500 106.5000 Du        
  24543 ****       116.2500 148.2500 106.7500 Du        
  24544 ****       116.2500 148.2500 107.0000 Du        
  24545 ****       116.2500 148.2500 107.2500 Du        
  24546 ****       116.2500 148.2500 107.5000 Du        
  24547 ****       116.2500 148.2500 107.7500 Du        
  24548 ****       116.2500 148.2500 138.2500 Du        
  24549 ****       116.2500 148.2500 138.5000 Du        
  24550 ****       116.2500 148.5000 106.7500 Du        
  24551 ****       116.2500 148.5000 107.0000 Du        
  24552 ****       116.2500 148.5000 107.2500 Du        
  24553 ****       116.2500 148.5000 107.5000 Du        
  24554 ****       116.2500 148.7500 106.5000 Du        
  24555 ****       116.2500 148.7500 106.7500 Du        
  24556 ****       116.2500 148.7500 107.0000 Du        
  24557 ****       116.2500 148.7500 107.2500 Du        
  24558 ****       116.2500 149.0000 106.5000 Du        
  24559 ****       116.2500 149.0000 106.7500 Du        
  24560 ****       116.2500 149.0000 107.0000 Du        
  24561 ****       116.2500 149.0000 107.2500 Du        
  24562 ****       116.2500 149.2500 106.5000 Du        
  24563 ****       116.2500 149.2500 106.7500 Du        
  24564 ****       116.2500 149.2500 107.0000 Du        
  24565 ****       116.2500 149.2500 107.2500 Du        
  24566 ****       116.2500 149.5000 106.2500 Du        
  24567 ****       116.2500 149.5000 106.5000 Du        
  24568 ****       116.2500 149.5000 106.7500 Du        
  24569 ****       116.2500 149.5000 107.0000 Du        
  24570 ****       116.2500 149.5000 107.2500 Du        
  24571 ****       116.2500 149.7500 106.2500 Du        
  24572 ****       116.2500 149.7500 106.5000 Du        
  24573 ****       116.2500 149.7500 106.7500 Du        
  24574 ****       116.2500 149.7500 107.0000 Du        
  24575 ****       116.2500 149.7500 107.2500 Du        
  24576 ****       116.2500 150.0000 106.2500 Du        
  24577 ****       116.2500 150.0000 106.5000 Du        
  24578 ****       116.2500 150.0000 106.7500 Du        
  24579 ****       116.2500 150.0000 107.0000 Du        
  24580 ****       116.2500 150.0000 107.2500 Du        
  24581 ****       116.2500 150.2500 106.0000 Du        
  24582 ****       116.2500 150.2500 106.2500 Du        
  24583 ****       116.2500 150.2500 106.5000 Du        
  24584 ****       116.2500 150.2500 106.7500 Du        
  24585 ****       116.2500 150.2500 107.0000 Du        
  24586 ****       116.2500 150.2500 107.2500 Du        
  24587 ****       116.2500 150.5000 106.2500 Du        
  24588 ****       116.2500 150.5000 106.5000 Du        
  24589 ****       116.2500 150.5000 106.7500 Du        
  24590 ****       116.2500 150.5000 107.0000 Du        
  24591 ****       116.2500 150.5000 107.2500 Du        
  24592 ****       116.2500 150.7500 106.0000 Du        
  24593 ****       116.2500 150.7500 106.2500 Du        
  24594 ****       116.2500 150.7500 106.5000 Du        
  24595 ****       116.2500 150.7500 106.7500 Du        
  24596 ****       116.2500 150.7500 107.0000 Du        
  24597 ****       116.2500 150.7500 107.2500 Du        
  24598 ****       116.2500 151.0000 106.7500 Du        
  24599 ****       116.2500 151.0000 107.0000 Du        
  24600 ****       116.2500 151.0000 107.2500 Du        
  24601 ****       116.2500 151.2500 106.7500 Du        
  24602 ****       116.2500 151.2500 107.0000 Du        
  24603 ****       116.2500 153.0000 137.2500 Du        
  24604 ****       116.2500 153.0000 137.5000 Du        
  24605 ****       116.2500 153.0000 137.7500 Du        
  24606 ****       116.2500 153.2500 137.0000 Du        
  24607 ****       116.2500 153.2500 137.2500 Du        
  24608 ****       116.2500 153.2500 137.5000 Du        
  24609 ****       116.2500 153.2500 137.7500 Du        
  24610 ****       116.2500 153.2500 138.0000 Du        
  24611 ****       116.2500 153.2500 138.2500 Du        
  24612 ****       116.2500 153.5000 136.7500 Du        
  24613 ****       116.2500 153.5000 137.0000 Du        
  24614 ****       116.2500 153.5000 137.2500 Du        
  24615 ****       116.2500 153.5000 137.5000 Du        
  24616 ****       116.2500 153.5000 137.7500 Du        
  24617 ****       116.2500 153.5000 138.0000 Du        
  24618 ****       116.2500 153.5000 138.2500 Du        
  24619 ****       116.2500 153.7500 136.7500 Du        
  24620 ****       116.2500 153.7500 137.0000 Du        
  24621 ****       116.2500 153.7500 137.2500 Du        
  24622 ****       116.2500 153.7500 137.5000 Du        
  24623 ****       116.2500 153.7500 137.7500 Du        
  24624 ****       116.2500 153.7500 138.0000 Du        
  24625 ****       116.2500 153.7500 138.2500 Du        
  24626 ****       116.2500 153.7500 138.5000 Du        
  24627 ****       116.2500 153.7500 138.7500 Du        
  24628 ****       116.2500 154.0000 106.0000 Du        
  24629 ****       116.2500 154.0000 106.2500 Du        
  24630 ****       116.2500 154.0000 137.0000 Du        
  24631 ****       116.2500 154.0000 137.2500 Du        
  24632 ****       116.2500 154.0000 137.5000 Du        
  24633 ****       116.2500 154.0000 137.7500 Du        
  24634 ****       116.2500 154.0000 138.0000 Du        
  24635 ****       116.2500 154.0000 138.2500 Du        
  24636 ****       116.2500 154.0000 138.5000 Du        
  24637 ****       116.2500 154.0000 138.7500 Du        
  24638 ****       116.2500 154.0000 139.0000 Du        
  24639 ****       116.2500 154.2500 106.0000 Du        
  24640 ****       116.2500 154.2500 106.2500 Du        
  24641 ****       116.2500 154.2500 137.2500 Du        
  24642 ****       116.2500 154.2500 137.5000 Du        
  24643 ****       116.2500 154.2500 137.7500 Du        
  24644 ****       116.2500 154.2500 138.0000 Du        
  24645 ****       116.2500 154.2500 138.2500 Du        
  24646 ****       116.2500 154.2500 138.5000 Du        
  24647 ****       116.2500 154.2500 138.7500 Du        
  24648 ****       116.2500 154.5000 106.0000 Du        
  24649 ****       116.2500 154.5000 106.2500 Du        
  24650 ****       116.2500 154.5000 137.7500 Du        
  24651 ****       116.2500 154.5000 138.0000 Du        
  24652 ****       116.2500 154.5000 138.2500 Du        
  24653 ****       116.2500 154.5000 138.5000 Du        
  24654 ****       116.2500 154.7500 106.0000 Du        
  24655 ****       116.2500 154.7500 106.2500 Du        
  24656 ****       116.2500 155.0000 106.0000 Du        
  24657 ****       116.2500 155.0000 106.2500 Du        
  24658 ****       116.2500 155.2500 106.0000 Du        
  24659 ****       116.2500 158.7500 108.7500 Du        
  24660 ****       116.2500 158.7500 109.0000 Du        
  24661 ****       116.2500 159.0000 108.7500 Du        
  24662 ****       116.2500 159.0000 109.0000 Du        
  24663 ****       116.2500 159.0000 109.2500 Du        
  24664 ****       116.2500 159.2500 108.7500 Du        
  24665 ****       116.2500 159.2500 109.0000 Du        
  24666 ****       116.2500 159.2500 109.2500 Du        
  24667 ****       116.2500 159.2500 109.5000 Du        
  24668 ****       116.2500 159.2500 145.0000 Du        
  24669 ****       116.2500 159.2500 145.2500 Du        
  24670 ****       116.2500 159.5000 144.7500 Du        
  24671 ****       116.2500 159.5000 145.0000 Du        
  24672 ****       116.2500 159.5000 145.2500 Du        
  24673 ****       116.2500 159.5000 145.5000 Du        
  24674 ****       116.2500 159.7500 144.7500 Du        
  24675 ****       116.2500 159.7500 145.0000 Du        
  24676 ****       116.2500 159.7500 145.2500 Du        
  24677 ****       116.2500 159.7500 145.5000 Du        
  24678 ****       116.2500 159.7500 145.7500 Du        
  24679 ****       116.2500 160.0000 144.7500 Du        
  24680 ****       116.2500 160.0000 145.0000 Du        
  24681 ****       116.2500 160.0000 145.2500 Du        
  24682 ****       116.2500 160.0000 145.5000 Du        
  24683 ****       116.2500 160.0000 145.7500 Du        
  24684 ****       116.2500 160.0000 146.0000 Du        
  24685 ****       116.2500 160.2500 144.7500 Du        
  24686 ****       116.2500 160.2500 145.0000 Du        
  24687 ****       116.2500 160.2500 145.2500 Du        
  24688 ****       116.2500 160.2500 145.5000 Du        
  24689 ****       116.2500 160.2500 145.7500 Du        
  24690 ****       116.2500 160.2500 146.0000 Du        
  24691 ****       116.2500 160.5000 145.0000 Du        
  24692 ****       116.2500 160.5000 145.2500 Du        
  24693 ****       116.2500 160.5000 145.5000 Du        
  24694 ****       116.2500 160.5000 145.7500 Du        
  24695 ****       116.2500 160.5000 146.0000 Du        
  24696 ****       116.2500 160.5000 146.2500 Du        
  24697 ****       116.2500 160.7500 145.0000 Du        
  24698 ****       116.2500 160.7500 145.2500 Du        
  24699 ****       116.2500 160.7500 145.5000 Du        
  24700 ****       116.2500 160.7500 145.7500 Du        
  24701 ****       116.2500 160.7500 146.0000 Du        
  24702 ****       116.2500 160.7500 146.2500 Du        
  24703 ****       116.2500 161.0000 145.2500 Du        
  24704 ****       116.2500 161.0000 145.5000 Du        
  24705 ****       116.2500 161.0000 145.7500 Du        
  24706 ****       116.2500 161.0000 146.0000 Du        
  24707 ****       116.2500 161.0000 146.2500 Du        
  24708 ****       116.2500 161.2500 145.7500 Du        
  24709 ****       116.2500 161.2500 146.0000 Du        
  24710 ****       116.2500 161.2500 146.2500 Du        
  24711 ****       116.2500 161.5000 146.0000 Du        
  24712 ****       116.2500 161.5000 146.2500 Du        
  24713 ****       116.5000 133.7500 139.2500 Du        
  24714 ****       116.5000 134.0000 139.0000 Du        
  24715 ****       116.5000 134.0000 139.2500 Du        
  24716 ****       116.5000 134.2500 139.2500 Du        
  24717 ****       116.5000 135.2500 138.5000 Du        
  24718 ****       116.5000 135.5000 138.2500 Du        
  24719 ****       116.5000 135.7500 138.0000 Du        
  24720 ****       116.5000 135.7500 138.2500 Du        
  24721 ****       116.5000 135.7500 138.5000 Du        
  24722 ****       116.5000 136.0000 137.7500 Du        
  24723 ****       116.5000 136.0000 138.0000 Du        
  24724 ****       116.5000 136.0000 138.2500 Du        
  24725 ****       116.5000 136.2500 137.7500 Du        
  24726 ****       116.5000 136.2500 138.0000 Du        
  24727 ****       116.5000 136.2500 138.2500 Du        
  24728 ****       116.5000 136.5000 115.2500 Du        
  24729 ****       116.5000 136.5000 115.5000 Du        
  24730 ****       116.5000 136.5000 115.7500 Du        
  24731 ****       116.5000 136.5000 116.0000 Du        
  24732 ****       116.5000 136.5000 116.2500 Du        
  24733 ****       116.5000 136.5000 137.5000 Du        
  24734 ****       116.5000 136.5000 137.7500 Du        
  24735 ****       116.5000 136.5000 138.0000 Du        
  24736 ****       116.5000 136.7500 115.0000 Du        
  24737 ****       116.5000 136.7500 115.2500 Du        
  24738 ****       116.5000 136.7500 115.5000 Du        
  24739 ****       116.5000 136.7500 115.7500 Du        
  24740 ****       116.5000 136.7500 116.0000 Du        
  24741 ****       116.5000 136.7500 116.2500 Du        
  24742 ****       116.5000 136.7500 116.5000 Du        
  24743 ****       116.5000 136.7500 116.7500 Du        
  24744 ****       116.5000 136.7500 137.5000 Du        
  24745 ****       116.5000 136.7500 137.7500 Du        
  24746 ****       116.5000 136.7500 138.0000 Du        
  24747 ****       116.5000 137.0000 114.7500 Du        
  24748 ****       116.5000 137.0000 115.0000 Du        
  24749 ****       116.5000 137.0000 115.2500 Du        
  24750 ****       116.5000 137.0000 115.5000 Du        
  24751 ****       116.5000 137.0000 115.7500 Du        
  24752 ****       116.5000 137.0000 116.0000 Du        
  24753 ****       116.5000 137.0000 116.2500 Du        
  24754 ****       116.5000 137.0000 116.5000 Du        
  24755 ****       116.5000 137.0000 116.7500 Du        
  24756 ****       116.5000 137.0000 117.0000 Du        
  24757 ****       116.5000 137.0000 137.7500 Du        
  24758 ****       116.5000 137.2500 114.7500 Du        
  24759 ****       116.5000 137.2500 115.0000 Du        
  24760 ****       116.5000 137.2500 115.2500 Du        
  24761 ****       116.5000 137.2500 115.5000 Du        
  24762 ****       116.5000 137.2500 115.7500 Du        
  24763 ****       116.5000 137.2500 116.0000 Du        
  24764 ****       116.5000 137.2500 116.2500 Du        
  24765 ****       116.5000 137.2500 116.5000 Du        
  24766 ****       116.5000 137.2500 116.7500 Du        
  24767 ****       116.5000 137.2500 117.0000 Du        
  24768 ****       116.5000 137.2500 117.2500 Du        
  24769 ****       116.5000 137.2500 117.5000 Du        
  24770 ****       116.5000 137.5000 115.5000 Du        
  24771 ****       116.5000 137.5000 115.7500 Du        
  24772 ****       116.5000 137.5000 116.0000 Du        
  24773 ****       116.5000 137.5000 116.2500 Du        
  24774 ****       116.5000 137.5000 116.5000 Du        
  24775 ****       116.5000 137.5000 116.7500 Du        
  24776 ****       116.5000 137.5000 117.0000 Du        
  24777 ****       116.5000 137.5000 117.2500 Du        
  24778 ****       116.5000 137.5000 118.7500 Du        
  24779 ****       116.5000 137.5000 119.0000 Du        
  24780 ****       116.5000 137.5000 119.2500 Du        
  24781 ****       116.5000 137.5000 119.5000 Du        
  24782 ****       116.5000 137.7500 116.2500 Du        
  24783 ****       116.5000 137.7500 116.5000 Du        
  24784 ****       116.5000 137.7500 116.7500 Du        
  24785 ****       116.5000 137.7500 117.0000 Du        
  24786 ****       116.5000 137.7500 119.0000 Du        
  24787 ****       116.5000 137.7500 119.2500 Du        
  24788 ****       116.5000 138.7500 131.2500 Du        
  24789 ****       116.5000 138.7500 131.5000 Du        
  24790 ****       116.5000 138.7500 132.0000 Du        
  24791 ****       116.5000 139.0000 131.0000 Du        
  24792 ****       116.5000 139.0000 131.2500 Du        
  24793 ****       116.5000 139.0000 131.5000 Du        
  24794 ****       116.5000 139.0000 131.7500 Du        
  24795 ****       116.5000 139.0000 132.0000 Du        
  24796 ****       116.5000 139.2500 131.2500 Du        
  24797 ****       116.5000 147.0000 138.2500 Du        
  24798 ****       116.5000 147.0000 138.5000 Du        
  24799 ****       116.5000 147.2500 138.0000 Du        
  24800 ****       116.5000 147.2500 138.2500 Du        
  24801 ****       116.5000 147.2500 138.5000 Du        
  24802 ****       116.5000 147.5000 137.7500 Du        
  24803 ****       116.5000 147.5000 138.0000 Du        
  24804 ****       116.5000 147.5000 138.2500 Du        
  24805 ****       116.5000 147.7500 137.7500 Du        
  24806 ****       116.5000 147.7500 138.0000 Du        
  24807 ****       116.5000 147.7500 138.2500 Du        
  24808 ****       116.5000 148.0000 137.7500 Du        
  24809 ****       116.5000 148.0000 138.0000 Du        
  24810 ****       116.5000 148.0000 138.2500 Du        
  24811 ****       116.5000 148.2500 137.7500 Du        
  24812 ****       116.5000 148.2500 138.0000 Du        
  24813 ****       116.5000 148.2500 138.2500 Du        
  24814 ****       116.5000 150.2500 106.7500 Du        
  24815 ****       116.5000 150.5000 106.5000 Du        
  24816 ****       116.5000 150.5000 106.7500 Du        
  24817 ****       116.5000 150.5000 107.0000 Du        
  24818 ****       116.5000 150.5000 107.2500 Du        
  24819 ****       116.5000 150.7500 106.5000 Du        
  24820 ****       116.5000 150.7500 106.7500 Du        
  24821 ****       116.5000 150.7500 107.0000 Du        
  24822 ****       116.5000 150.7500 107.2500 Du        
  24823 ****       116.5000 151.0000 106.7500 Du        
  24824 ****       116.5000 151.0000 107.0000 Du        
  24825 ****       116.5000 151.2500 106.7500 Du        
  24826 ****       116.5000 151.2500 107.0000 Du        
  24827 ****       116.5000 153.5000 137.0000 Du        
  24828 ****       116.5000 153.5000 137.2500 Du        
  24829 ****       116.5000 153.5000 137.5000 Du        
  24830 ****       116.5000 153.5000 137.7500 Du        
  24831 ****       116.5000 153.5000 138.0000 Du        
  24832 ****       116.5000 153.7500 137.0000 Du        
  24833 ****       116.5000 153.7500 137.2500 Du        
  24834 ****       116.5000 153.7500 137.5000 Du        
  24835 ****       116.5000 153.7500 137.7500 Du        
  24836 ****       116.5000 153.7500 138.0000 Du        
  24837 ****       116.5000 153.7500 138.2500 Du        
  24838 ****       116.5000 154.0000 106.0000 Du        
  24839 ****       116.5000 154.0000 137.2500 Du        
  24840 ****       116.5000 154.0000 137.5000 Du        
  24841 ****       116.5000 154.0000 137.7500 Du        
  24842 ****       116.5000 154.0000 138.0000 Du        
  24843 ****       116.5000 154.0000 138.2500 Du        
  24844 ****       116.5000 154.2500 106.0000 Du        
  24845 ****       116.5000 154.2500 137.7500 Du        
  24846 ****       116.5000 154.2500 138.0000 Du        
  24847 ****       116.5000 154.2500 138.2500 Du        
  24848 ****       116.5000 159.2500 109.5000 Du        
  24849 ****       116.5000 159.5000 145.0000 Du        
  24850 ****       116.5000 159.7500 144.7500 Du        
  24851 ****       116.5000 159.7500 145.0000 Du        
  24852 ****       116.5000 159.7500 145.2500 Du        
  24853 ****       116.5000 160.0000 144.7500 Du        
  24854 ****       116.5000 160.0000 145.0000 Du        
  24855 ****       116.5000 160.0000 145.2500 Du        
  24856 ****       116.5000 160.0000 145.5000 Du        
  24857 ****       116.5000 160.2500 144.7500 Du        
  24858 ****       116.5000 160.2500 145.0000 Du        
  24859 ****       116.5000 160.2500 145.2500 Du        
  24860 ****       116.5000 160.2500 145.5000 Du        
  24861 ****       116.5000 160.2500 145.7500 Du        
  24862 ****       116.5000 160.2500 146.0000 Du        
  24863 ****       116.5000 160.5000 145.0000 Du        
  24864 ****       116.5000 160.5000 145.2500 Du        
  24865 ****       116.5000 160.5000 145.5000 Du        
  24866 ****       116.5000 160.5000 145.7500 Du        
  24867 ****       116.5000 160.5000 146.0000 Du        
  24868 ****       116.5000 160.5000 146.2500 Du        
  24869 ****       116.5000 160.7500 145.0000 Du        
  24870 ****       116.5000 160.7500 145.2500 Du        
  24871 ****       116.5000 160.7500 145.5000 Du        
  24872 ****       116.5000 160.7500 145.7500 Du        
  24873 ****       116.5000 160.7500 146.0000 Du        
  24874 ****       116.5000 160.7500 146.2500 Du        
  24875 ****       116.5000 160.7500 146.5000 Du        
  24876 ****       116.5000 161.0000 145.2500 Du        
  24877 ****       116.5000 161.0000 145.5000 Du        
  24878 ****       116.5000 161.0000 145.7500 Du        
  24879 ****       116.5000 161.0000 146.0000 Du        
  24880 ****       116.5000 161.0000 146.2500 Du        
  24881 ****       116.5000 161.0000 146.5000 Du        
  24882 ****       116.5000 161.0000 146.7500 Du        
  24883 ****       116.5000 161.2500 145.5000 Du        
  24884 ****       116.5000 161.2500 145.7500 Du        
  24885 ****       116.5000 161.2500 146.0000 Du        
  24886 ****       116.5000 161.2500 146.2500 Du        
  24887 ****       116.5000 161.2500 146.5000 Du        
  24888 ****       116.5000 161.2500 146.7500 Du        
  24889 ****       116.5000 161.2500 147.0000 Du        
  24890 ****       116.5000 161.5000 146.0000 Du        
  24891 ****       116.5000 161.5000 146.2500 Du        
  24892 ****       116.5000 161.5000 146.5000 Du        
  24893 ****       116.5000 161.5000 146.7500 Du        
  24894 ****       116.7500 136.0000 138.0000 Du        
  24895 ****       116.7500 136.0000 138.2500 Du        
  24896 ****       116.7500 136.2500 138.0000 Du        
  24897 ****       116.7500 136.5000 115.7500 Du        
  24898 ****       116.7500 136.5000 116.0000 Du        
  24899 ****       116.7500 136.5000 116.2500 Du        
  24900 ****       116.7500 136.7500 115.2500 Du        
  24901 ****       116.7500 136.7500 115.5000 Du        
  24902 ****       116.7500 136.7500 115.7500 Du        
  24903 ****       116.7500 136.7500 116.0000 Du        
  24904 ****       116.7500 136.7500 116.2500 Du        
  24905 ****       116.7500 137.0000 115.0000 Du        
  24906 ****       116.7500 137.0000 115.2500 Du        
  24907 ****       116.7500 137.0000 115.5000 Du        
  24908 ****       116.7500 137.0000 115.7500 Du        
  24909 ****       116.7500 137.0000 116.0000 Du        
  24910 ****       116.7500 137.0000 116.2500 Du        
  24911 ****       116.7500 137.0000 116.5000 Du        
  24912 ****       116.7500 137.0000 116.7500 Du        
  24913 ****       116.7500 137.0000 117.0000 Du        
  24914 ****       116.7500 137.2500 115.2500 Du        
  24915 ****       116.7500 137.2500 115.5000 Du        
  24916 ****       116.7500 137.2500 115.7500 Du        
  24917 ****       116.7500 137.2500 116.0000 Du        
  24918 ****       116.7500 137.2500 116.2500 Du        
  24919 ****       116.7500 137.2500 116.5000 Du        
  24920 ****       116.7500 137.2500 116.7500 Du        
  24921 ****       116.7500 137.2500 117.0000 Du        
  24922 ****       116.7500 137.2500 117.2500 Du        
  24923 ****       116.7500 137.5000 116.0000 Du        
  24924 ****       116.7500 137.5000 116.2500 Du        
  24925 ****       116.7500 137.5000 116.5000 Du        
  24926 ****       116.7500 137.5000 116.7500 Du        
  24927 ****       116.7500 137.5000 117.0000 Du        
  24928 ****       116.7500 137.5000 117.2500 Du        
  24929 ****       116.7500 137.5000 119.0000 Du        
  24930 ****       116.7500 137.5000 119.2500 Du        
  24931 ****       116.7500 137.7500 116.7500 Du        
  24932 ****       116.7500 137.7500 117.0000 Du        
  24933 ****       116.7500 137.7500 117.2500 Du        
  24934 ****       116.7500 137.7500 119.0000 Du        
  24935 ****       116.7500 137.7500 119.2500 Du        
  24936 ****       116.7500 138.7500 131.2500 Du        
  24937 ****       116.7500 138.7500 131.5000 Du        
  24938 ****       116.7500 138.7500 131.7500 Du        
  24939 ****       116.7500 138.7500 132.0000 Du        
  24940 ****       116.7500 139.0000 131.2500 Du        
  24941 ****       116.7500 139.0000 131.5000 Du        
  24942 ****       116.7500 139.0000 131.7500 Du        
  24943 ****       116.7500 139.0000 132.0000 Du        
  24944 ****       116.7500 139.2500 131.2500 Du        
  24945 ****       116.7500 139.2500 131.5000 Du        
  24946 ****       116.7500 139.2500 131.7500 Du        
  24947 ****       116.7500 139.2500 132.0000 Du        
  24948 ****       116.7500 146.7500 138.0000 Du        
  24949 ****       116.7500 146.7500 138.2500 Du        
  24950 ****       116.7500 147.0000 137.7500 Du        
  24951 ****       116.7500 147.0000 138.0000 Du        
  24952 ****       116.7500 147.0000 138.2500 Du        
  24953 ****       116.7500 147.2500 137.2500 Du        
  24954 ****       116.7500 147.2500 137.5000 Du        
  24955 ****       116.7500 147.2500 137.7500 Du        
  24956 ****       116.7500 147.2500 138.0000 Du        
  24957 ****       116.7500 147.2500 138.2500 Du        
  24958 ****       116.7500 147.5000 137.5000 Du        
  24959 ****       116.7500 147.5000 137.7500 Du        
  24960 ****       116.7500 147.5000 138.0000 Du        
  24961 ****       116.7500 147.5000 138.2500 Du        
  24962 ****       116.7500 147.7500 137.5000 Du        
  24963 ****       116.7500 147.7500 137.7500 Du        
  24964 ****       116.7500 147.7500 138.0000 Du        
  24965 ****       116.7500 147.7500 138.2500 Du        
  24966 ****       116.7500 148.0000 137.5000 Du        
  24967 ****       116.7500 148.0000 137.7500 Du        
  24968 ****       116.7500 148.0000 138.0000 Du        
  24969 ****       116.7500 148.0000 138.2500 Du        
  24970 ****       116.7500 148.2500 137.7500 Du        
  24971 ****       116.7500 148.2500 138.0000 Du        
  24972 ****       116.7500 148.2500 138.2500 Du        
  24973 ****       116.7500 150.5000 107.0000 Du        
  24974 ****       116.7500 150.7500 106.7500 Du        
  24975 ****       116.7500 150.7500 107.0000 Du        
  24976 ****       116.7500 150.7500 107.2500 Du        
  24977 ****       116.7500 151.0000 106.7500 Du        
  24978 ****       116.7500 151.0000 107.0000 Du        
  24979 ****       116.7500 151.2500 106.7500 Du        
  24980 ****       116.7500 151.2500 107.0000 Du        
  24981 ****       116.7500 151.5000 106.7500 Du        
  24982 ****       116.7500 151.7500 106.7500 Du        
  24983 ****       116.7500 153.5000 137.0000 Du        
  24984 ****       116.7500 153.5000 137.2500 Du        
  24985 ****       116.7500 153.5000 137.5000 Du        
  24986 ****       116.7500 153.5000 137.7500 Du        
  24987 ****       116.7500 153.7500 137.2500 Du        
  24988 ****       116.7500 153.7500 137.5000 Du        
  24989 ****       116.7500 153.7500 137.7500 Du        
  24990 ****       116.7500 153.7500 138.0000 Du        
  24991 ****       116.7500 153.7500 138.2500 Du        
  24992 ****       116.7500 154.0000 137.2500 Du        
  24993 ****       116.7500 154.0000 137.5000 Du        
  24994 ****       116.7500 154.0000 137.7500 Du        
  24995 ****       116.7500 154.0000 138.0000 Du        
  24996 ****       116.7500 154.0000 138.2500 Du        
  24997 ****       116.7500 154.2500 137.7500 Du        
  24998 ****       116.7500 154.2500 138.0000 Du        
  24999 ****       116.7500 154.2500 138.2500 Du        
  25000 ****       116.7500 159.7500 145.0000 Du        
  25001 ****       116.7500 160.0000 144.7500 Du        
  25002 ****       116.7500 160.0000 145.0000 Du        
  25003 ****       116.7500 160.0000 145.2500 Du        
  25004 ****       116.7500 160.2500 144.7500 Du        
  25005 ****       116.7500 160.2500 145.0000 Du        
  25006 ****       116.7500 160.2500 145.2500 Du        
  25007 ****       116.7500 160.2500 145.5000 Du        
  25008 ****       116.7500 160.5000 145.0000 Du        
  25009 ****       116.7500 160.5000 145.2500 Du        
  25010 ****       116.7500 160.5000 145.5000 Du        
  25011 ****       116.7500 160.5000 145.7500 Du        
  25012 ****       116.7500 160.5000 146.0000 Du        
  25013 ****       116.7500 160.7500 145.0000 Du        
  25014 ****       116.7500 160.7500 145.2500 Du        
  25015 ****       116.7500 160.7500 145.5000 Du        
  25016 ****       116.7500 160.7500 145.7500 Du        
  25017 ****       116.7500 160.7500 146.0000 Du        
  25018 ****       116.7500 160.7500 146.2500 Du        
  25019 ****       116.7500 161.0000 145.2500 Du        
  25020 ****       116.7500 161.0000 145.5000 Du        
  25021 ****       116.7500 161.0000 145.7500 Du        
  25022 ****       116.7500 161.0000 146.0000 Du        
  25023 ****       116.7500 161.0000 146.2500 Du        
  25024 ****       116.7500 161.0000 146.5000 Du        
  25025 ****       116.7500 161.0000 146.7500 Du        
  25026 ****       116.7500 161.2500 145.7500 Du        
  25027 ****       116.7500 161.2500 146.0000 Du        
  25028 ****       116.7500 161.2500 146.2500 Du        
  25029 ****       116.7500 161.2500 146.5000 Du        
  25030 ****       116.7500 161.2500 146.7500 Du        
  25031 ****       116.7500 161.2500 147.0000 Du        
  25032 ****       116.7500 161.5000 146.0000 Du        
  25033 ****       116.7500 161.5000 146.2500 Du        
  25034 ****       116.7500 161.5000 146.5000 Du        
  25035 ****       116.7500 161.5000 146.7500 Du        
  25036 ****       116.7500 161.5000 147.0000 Du        
  25037 ****       116.7500 161.5000 147.2500 Du        
  25038 ****       116.7500 161.7500 147.0000 Du        
  25039 ****       117.0000 136.5000 116.0000 Du        
  25040 ****       117.0000 136.5000 116.2500 Du        
  25041 ****       117.0000 136.7500 115.5000 Du        
  25042 ****       117.0000 136.7500 115.7500 Du        
  25043 ****       117.0000 136.7500 116.0000 Du        
  25044 ****       117.0000 136.7500 116.2500 Du        
  25045 ****       117.0000 137.0000 115.2500 Du        
  25046 ****       117.0000 137.0000 115.5000 Du        
  25047 ****       117.0000 137.0000 115.7500 Du        
  25048 ****       117.0000 137.0000 116.0000 Du        
  25049 ****       117.0000 137.0000 116.2500 Du        
  25050 ****       117.0000 137.2500 115.7500 Du        
  25051 ****       117.0000 137.2500 116.0000 Du        
  25052 ****       117.0000 137.2500 116.2500 Du        
  25053 ****       117.0000 137.2500 116.7500 Du        
  25054 ****       117.0000 137.2500 117.0000 Du        
  25055 ****       117.0000 137.5000 116.2500 Du        
  25056 ****       117.0000 137.5000 116.5000 Du        
  25057 ****       117.0000 137.5000 116.7500 Du        
  25058 ****       117.0000 137.5000 117.2500 Du        
  25059 ****       117.0000 137.7500 119.0000 Du        
  25060 ****       117.0000 137.7500 119.2500 Du        
  25061 ****       117.0000 138.7500 131.2500 Du        
  25062 ****       117.0000 138.7500 131.5000 Du        
  25063 ****       117.0000 138.7500 131.7500 Du        
  25064 ****       117.0000 138.7500 132.0000 Du        
  25065 ****       117.0000 139.0000 131.2500 Du        
  25066 ****       117.0000 139.0000 131.5000 Du        
  25067 ****       117.0000 139.0000 131.7500 Du        
  25068 ****       117.0000 139.0000 132.0000 Du        
  25069 ****       117.0000 139.2500 131.7500 Du        
  25070 ****       117.0000 139.2500 132.0000 Du        
  25071 ****       117.0000 139.5000 131.7500 Du        
  25072 ****       117.0000 141.0000 138.0000 Du        
  25073 ****       117.0000 146.7500 137.0000 Du        
  25074 ****       117.0000 146.7500 137.2500 Du        
  25075 ****       117.0000 146.7500 137.7500 Du        
  25076 ****       117.0000 146.7500 138.0000 Du        
  25077 ****       117.0000 147.0000 137.0000 Du        
  25078 ****       117.0000 147.0000 137.2500 Du        
  25079 ****       117.0000 147.0000 137.5000 Du        
  25080 ****       117.0000 147.0000 137.7500 Du        
  25081 ****       117.0000 147.0000 138.0000 Du        
  25082 ****       117.0000 147.2500 136.7500 Du        
  25083 ****       117.0000 147.2500 137.0000 Du        
  25084 ****       117.0000 147.2500 137.2500 Du        
  25085 ****       117.0000 147.2500 137.5000 Du        
  25086 ****       117.0000 147.2500 137.7500 Du        
  25087 ****       117.0000 147.2500 138.0000 Du        
  25088 ****       117.0000 147.5000 137.0000 Du        
  25089 ****       117.0000 147.5000 137.2500 Du        
  25090 ****       117.0000 147.5000 137.5000 Du        
  25091 ****       117.0000 147.5000 137.7500 Du        
  25092 ****       117.0000 147.5000 138.0000 Du        
  25093 ****       117.0000 147.7500 137.2500 Du        
  25094 ****       117.0000 147.7500 137.5000 Du        
  25095 ****       117.0000 147.7500 137.7500 Du        
  25096 ****       117.0000 147.7500 138.0000 Du        
  25097 ****       117.0000 148.0000 137.5000 Du        
  25098 ****       117.0000 148.0000 137.7500 Du        
  25099 ****       117.0000 148.0000 138.0000 Du        
  25100 ****       117.0000 148.2500 137.5000 Du        
  25101 ****       117.0000 148.2500 137.7500 Du        
  25102 ****       117.0000 148.2500 138.0000 Du        
  25103 ****       117.0000 153.5000 137.2500 Du        
  25104 ****       117.0000 153.5000 137.7500 Du        
  25105 ****       117.0000 153.7500 137.2500 Du        
  25106 ****       117.0000 153.7500 137.5000 Du        
  25107 ****       117.0000 153.7500 137.7500 Du        
  25108 ****       117.0000 153.7500 138.0000 Du        
  25109 ****       117.0000 153.7500 138.2500 Du        
  25110 ****       117.0000 154.0000 137.5000 Du        
  25111 ****       117.0000 154.0000 137.7500 Du        
  25112 ****       117.0000 154.0000 138.0000 Du        
  25113 ****       117.0000 154.0000 138.2500 Du        
  25114 ****       117.0000 154.2500 137.7500 Du        
  25115 ****       117.0000 154.2500 138.0000 Du        
  25116 ****       117.0000 154.2500 138.2500 Du        
  25117 ****       117.0000 160.0000 145.0000 Du        
  25118 ****       117.0000 160.2500 145.0000 Du        
  25119 ****       117.0000 160.2500 145.2500 Du        
  25120 ****       117.0000 160.5000 145.0000 Du        
  25121 ****       117.0000 160.5000 145.2500 Du        
  25122 ****       117.0000 160.5000 145.5000 Du        
  25123 ****       117.0000 160.7500 145.0000 Du        
  25124 ****       117.0000 160.7500 145.2500 Du        
  25125 ****       117.0000 160.7500 145.5000 Du        
  25126 ****       117.0000 160.7500 145.7500 Du        
  25127 ****       117.0000 160.7500 146.0000 Du        
  25128 ****       117.0000 161.0000 145.2500 Du        
  25129 ****       117.0000 161.0000 145.5000 Du        
  25130 ****       117.0000 161.0000 145.7500 Du        
  25131 ****       117.0000 161.0000 146.0000 Du        
  25132 ****       117.0000 161.0000 146.2500 Du        
  25133 ****       117.0000 161.2500 145.7500 Du        
  25134 ****       117.0000 161.2500 146.0000 Du        
  25135 ****       117.0000 161.2500 146.2500 Du        
  25136 ****       117.0000 161.2500 146.5000 Du        
  25137 ****       117.0000 161.2500 146.7500 Du        
  25138 ****       117.0000 161.5000 146.0000 Du        
  25139 ****       117.0000 161.5000 146.2500 Du        
  25140 ****       117.0000 161.5000 146.5000 Du        
  25141 ****       117.0000 161.5000 146.7500 Du        
  25142 ****       117.0000 161.5000 147.0000 Du        
  25143 ****       117.0000 161.5000 147.2500 Du        
  25144 ****       117.0000 161.7500 147.0000 Du        
  25145 ****       117.0000 161.7500 147.2500 Du        
  25146 ****       117.0000 165.2500 118.7500 Du        
  25147 ****       117.2500 136.7500 115.7500 Du        
  25148 ****       117.2500 136.7500 116.0000 Du        
  25149 ****       117.2500 136.7500 116.2500 Du        
  25150 ****       117.2500 137.0000 115.7500 Du        
  25151 ****       117.2500 137.0000 116.0000 Du        
  25152 ****       117.2500 137.0000 116.2500 Du        
  25153 ****       117.2500 137.2500 116.0000 Du        
  25154 ****       117.2500 137.2500 116.2500 Du        
  25155 ****       117.2500 137.5000 116.7500 Du        
  25156 ****       117.2500 137.7500 119.0000 Du        
  25157 ****       117.2500 138.7500 131.2500 Du        
  25158 ****       117.2500 138.7500 131.5000 Du        
  25159 ****       117.2500 138.7500 131.7500 Du        
  25160 ****       117.2500 139.0000 131.2500 Du        
  25161 ****       117.2500 139.0000 131.5000 Du        
  25162 ****       117.2500 139.0000 131.7500 Du        
  25163 ****       117.2500 139.0000 132.0000 Du        
  25164 ****       117.2500 139.2500 131.7500 Du        
  25165 ****       117.2500 139.2500 132.0000 Du        
  25166 ****       117.2500 139.5000 132.0000 Du        
  25167 ****       117.2500 141.0000 138.0000 Du        
  25168 ****       117.2500 141.2500 138.0000 Du        
  25169 ****       117.2500 146.7500 137.2500 Du        
  25170 ****       117.2500 147.0000 136.7500 Du        
  25171 ****       117.2500 147.0000 137.2500 Du        
  25172 ****       117.2500 147.2500 136.7500 Du        
  25173 ****       117.2500 147.2500 137.2500 Du        
  25174 ****       117.2500 147.2500 137.5000 Du        
  25175 ****       117.2500 153.7500 137.7500 Du        
  25176 ****       117.2500 153.7500 138.0000 Du        
  25177 ****       117.2500 154.0000 137.7500 Du        
  25178 ****       117.2500 154.0000 138.0000 Du        
  25179 ****       117.2500 154.0000 138.2500 Du        
  25180 ****       117.2500 154.2500 137.7500 Du        
  25181 ****       117.2500 154.2500 138.0000 Du        
  25182 ****       117.2500 160.5000 145.0000 Du        
  25183 ****       117.2500 160.5000 145.2500 Du        
  25184 ****       117.2500 160.7500 145.2500 Du        
  25185 ****       117.2500 160.7500 145.5000 Du        
  25186 ****       117.2500 161.0000 145.2500 Du        
  25187 ****       117.2500 161.0000 145.5000 Du        
  25188 ****       117.2500 161.0000 145.7500 Du        
  25189 ****       117.2500 161.0000 146.0000 Du        
  25190 ****       117.2500 161.2500 145.7500 Du        
  25191 ****       117.2500 161.2500 146.0000 Du        
  25192 ****       117.2500 161.2500 146.2500 Du        
  25193 ****       117.2500 161.5000 146.2500 Du        
  25194 ****       117.2500 161.5000 146.5000 Du        
  25195 ****       117.2500 161.5000 146.7500 Du        
  25196 ****       117.2500 161.5000 147.0000 Du        
  25197 ****       117.2500 161.5000 147.2500 Du        
  25198 ****       117.2500 161.7500 147.0000 Du        
  25199 ****       117.2500 161.7500 147.2500 Du        
  25200 ****       117.2500 165.0000 118.5000 Du        
  25201 ****       117.2500 165.0000 118.7500 Du        
  25202 ****       117.2500 165.0000 119.0000 Du        
  25203 ****       117.2500 165.2500 118.0000 Du        
  25204 ****       117.2500 165.2500 118.2500 Du        
  25205 ****       117.2500 165.2500 118.5000 Du        
  25206 ****       117.2500 165.2500 118.7500 Du        
  25207 ****       117.2500 165.2500 119.0000 Du        
  25208 ****       117.2500 165.5000 118.2500 Du        
  25209 ****       117.2500 165.5000 118.5000 Du        
  25210 ****       117.2500 165.5000 118.7500 Du        
  25211 ****       117.2500 165.5000 119.0000 Du        
  25212 ****       117.2500 165.7500 118.5000 Du        
  25213 ****       117.2500 165.7500 118.7500 Du        
  25214 ****       117.2500 165.7500 119.0000 Du        
  25215 ****       117.5000 137.0000 116.2500 Du        
  25216 ****       117.5000 138.5000 132.0000 Du        
  25217 ****       117.5000 138.7500 131.2500 Du        
  25218 ****       117.5000 138.7500 131.5000 Du        
  25219 ****       117.5000 138.7500 131.7500 Du        
  25220 ****       117.5000 138.7500 132.0000 Du        
  25221 ****       117.5000 139.0000 131.7500 Du        
  25222 ****       117.5000 139.0000 132.0000 Du        
  25223 ****       117.5000 139.0000 132.2500 Du        
  25224 ****       117.5000 141.0000 138.0000 Du        
  25225 ****       117.5000 141.2500 138.0000 Du        
  25226 ****       117.5000 148.5000 108.7500 Du        
  25227 ****       117.5000 148.7500 108.5000 Du        
  25228 ****       117.5000 161.2500 146.2500 Du        
  25229 ****       117.5000 161.7500 147.2500 Du        
  25230 ****       117.5000 164.7500 118.5000 Du        
  25231 ****       117.5000 164.7500 118.7500 Du        
  25232 ****       117.5000 164.7500 119.0000 Du        
  25233 ****       117.5000 164.7500 119.2500 Du        
  25234 ****       117.5000 165.0000 117.7500 Du        
  25235 ****       117.5000 165.0000 118.0000 Du        
  25236 ****       117.5000 165.0000 118.2500 Du        
  25237 ****       117.5000 165.0000 118.5000 Du        
  25238 ****       117.5000 165.0000 118.7500 Du        
  25239 ****       117.5000 165.0000 119.0000 Du        
  25240 ****       117.5000 165.0000 119.2500 Du        
  25241 ****       117.5000 165.2500 115.5000 Du        
  25242 ****       117.5000 165.2500 115.7500 Du        
  25243 ****       117.5000 165.2500 116.0000 Du        
  25244 ****       117.5000 165.2500 116.5000 Du        
  25245 ****       117.5000 165.2500 116.7500 Du        
  25246 ****       117.5000 165.2500 117.0000 Du        
  25247 ****       117.5000 165.2500 117.2500 Du        
  25248 ****       117.5000 165.2500 117.5000 Du        
  25249 ****       117.5000 165.2500 117.7500 Du        
  25250 ****       117.5000 165.2500 118.0000 Du        
  25251 ****       117.5000 165.2500 118.2500 Du        
  25252 ****       117.5000 165.2500 118.5000 Du        
  25253 ****       117.5000 165.2500 118.7500 Du        
  25254 ****       117.5000 165.2500 119.0000 Du        
  25255 ****       117.5000 165.2500 119.2500 Du        
  25256 ****       117.5000 165.5000 115.7500 Du        
  25257 ****       117.5000 165.5000 116.0000 Du        
  25258 ****       117.5000 165.5000 117.2500 Du        
  25259 ****       117.5000 165.5000 117.5000 Du        
  25260 ****       117.5000 165.5000 117.7500 Du        
  25261 ****       117.5000 165.5000 118.0000 Du        
  25262 ****       117.5000 165.5000 118.2500 Du        
  25263 ****       117.5000 165.5000 118.5000 Du        
  25264 ****       117.5000 165.5000 118.7500 Du        
  25265 ****       117.5000 165.5000 119.0000 Du        
  25266 ****       117.5000 165.5000 119.2500 Du        
  25267 ****       117.5000 165.7500 117.7500 Du        
  25268 ****       117.5000 165.7500 118.0000 Du        
  25269 ****       117.5000 165.7500 118.2500 Du        
  25270 ****       117.5000 165.7500 118.5000 Du        
  25271 ****       117.5000 165.7500 118.7500 Du        
  25272 ****       117.5000 165.7500 119.0000 Du        
  25273 ****       117.5000 166.0000 118.2500 Du        
  25274 ****       117.5000 166.0000 118.5000 Du        
  25275 ****       117.5000 166.0000 118.7500 Du        
  25276 ****       117.5000 166.0000 119.0000 Du        
  25277 ****       117.5000 166.2500 118.5000 Du        
  25278 ****       117.5000 166.2500 118.7500 Du        
  25279 ****       117.7500 137.0000 116.2500 Du        
  25280 ****       117.7500 138.0000 131.7500 Du        
  25281 ****       117.7500 138.2500 131.7500 Du        
  25282 ****       117.7500 138.2500 132.0000 Du        
  25283 ****       117.7500 138.2500 132.2500 Du        
  25284 ****       117.7500 138.5000 131.0000 Du        
  25285 ****       117.7500 138.5000 131.2500 Du        
  25286 ****       117.7500 138.5000 131.5000 Du        
  25287 ****       117.7500 138.5000 131.7500 Du        
  25288 ****       117.7500 138.5000 132.0000 Du        
  25289 ****       117.7500 138.5000 132.2500 Du        
  25290 ****       117.7500 138.7500 131.2500 Du        
  25291 ****       117.7500 138.7500 131.5000 Du        
  25292 ****       117.7500 138.7500 131.7500 Du        
  25293 ****       117.7500 138.7500 132.0000 Du        
  25294 ****       117.7500 138.7500 132.2500 Du        
  25295 ****       117.7500 138.7500 132.5000 Du        
  25296 ****       117.7500 139.0000 131.2500 Du        
  25297 ****       117.7500 139.0000 131.5000 Du        
  25298 ****       117.7500 139.0000 131.7500 Du        
  25299 ****       117.7500 139.0000 132.0000 Du        
  25300 ****       117.7500 139.0000 132.2500 Du        
  25301 ****       117.7500 139.0000 132.5000 Du        
  25302 ****       117.7500 139.0000 132.7500 Du        
  25303 ****       117.7500 139.2500 131.7500 Du        
  25304 ****       117.7500 139.2500 132.0000 Du        
  25305 ****       117.7500 139.2500 132.2500 Du        
  25306 ****       117.7500 139.2500 132.5000 Du        
  25307 ****       117.7500 139.5000 131.7500 Du        
  25308 ****       117.7500 139.5000 132.0000 Du        
  25309 ****       117.7500 139.5000 132.2500 Du        
  25310 ****       117.7500 139.7500 132.0000 Du        
  25311 ****       117.7500 141.0000 137.7500 Du        
  25312 ****       117.7500 141.2500 137.7500 Du        
  25313 ****       117.7500 141.2500 138.0000 Du        
  25314 ****       117.7500 141.2500 138.2500 Du        
  25315 ****       117.7500 141.5000 138.0000 Du        
  25316 ****       117.7500 141.7500 138.2500 Du        
  25317 ****       117.7500 142.0000 138.2500 Du        
  25318 ****       117.7500 147.0000 134.2500 Du        
  25319 ****       117.7500 148.2500 108.5000 Du        
  25320 ****       117.7500 148.2500 108.7500 Du        
  25321 ****       117.7500 148.2500 109.0000 Du        
  25322 ****       117.7500 148.5000 108.5000 Du        
  25323 ****       117.7500 148.5000 108.7500 Du        
  25324 ****       117.7500 148.5000 109.0000 Du        
  25325 ****       117.7500 148.7500 108.5000 Du        
  25326 ****       117.7500 148.7500 108.7500 Du        
  25327 ****       117.7500 148.7500 109.0000 Du        
  25328 ****       117.7500 149.0000 108.5000 Du        
  25329 ****       117.7500 149.0000 108.7500 Du        
  25330 ****       117.7500 149.0000 109.0000 Du        
  25331 ****       117.7500 164.5000 118.5000 Du        
  25332 ****       117.7500 164.5000 118.7500 Du        
  25333 ****       117.7500 164.5000 119.0000 Du        
  25334 ****       117.7500 164.5000 119.2500 Du        
  25335 ****       117.7500 164.7500 118.0000 Du        
  25336 ****       117.7500 164.7500 118.2500 Du        
  25337 ****       117.7500 164.7500 118.5000 Du        
  25338 ****       117.7500 164.7500 118.7500 Du        
  25339 ****       117.7500 164.7500 119.0000 Du        
  25340 ****       117.7500 164.7500 119.2500 Du        
  25341 ****       117.7500 165.0000 116.5000 Du        
  25342 ****       117.7500 165.0000 116.7500 Du        
  25343 ****       117.7500 165.0000 117.0000 Du        
  25344 ****       117.7500 165.0000 117.2500 Du        
  25345 ****       117.7500 165.0000 117.5000 Du        
  25346 ****       117.7500 165.0000 117.7500 Du        
  25347 ****       117.7500 165.0000 118.0000 Du        
  25348 ****       117.7500 165.0000 118.2500 Du        
  25349 ****       117.7500 165.0000 118.5000 Du        
  25350 ****       117.7500 165.0000 118.7500 Du        
  25351 ****       117.7500 165.0000 119.0000 Du        
  25352 ****       117.7500 165.0000 119.2500 Du        
  25353 ****       117.7500 165.0000 119.5000 Du        
  25354 ****       117.7500 165.2500 115.5000 Du        
  25355 ****       117.7500 165.2500 115.7500 Du        
  25356 ****       117.7500 165.2500 116.0000 Du        
  25357 ****       117.7500 165.2500 116.2500 Du        
  25358 ****       117.7500 165.2500 116.5000 Du        
  25359 ****       117.7500 165.2500 116.7500 Du        
  25360 ****       117.7500 165.2500 117.0000 Du        
  25361 ****       117.7500 165.2500 117.2500 Du        
  25362 ****       117.7500 165.2500 117.5000 Du        
  25363 ****       117.7500 165.2500 117.7500 Du        
  25364 ****       117.7500 165.2500 118.0000 Du        
  25365 ****       117.7500 165.2500 118.2500 Du        
  25366 ****       117.7500 165.2500 118.5000 Du        
  25367 ****       117.7500 165.2500 118.7500 Du        
  25368 ****       117.7500 165.2500 119.0000 Du        
  25369 ****       117.7500 165.2500 119.2500 Du        
  25370 ****       117.7500 165.2500 119.5000 Du        
  25371 ****       117.7500 165.5000 115.5000 Du        
  25372 ****       117.7500 165.5000 115.7500 Du        
  25373 ****       117.7500 165.5000 116.0000 Du        
  25374 ****       117.7500 165.5000 116.2500 Du        
  25375 ****       117.7500 165.5000 116.5000 Du        
  25376 ****       117.7500 165.5000 116.7500 Du        
  25377 ****       117.7500 165.5000 117.0000 Du        
  25378 ****       117.7500 165.5000 117.2500 Du        
  25379 ****       117.7500 165.5000 117.5000 Du        
  25380 ****       117.7500 165.5000 117.7500 Du        
  25381 ****       117.7500 165.5000 118.0000 Du        
  25382 ****       117.7500 165.5000 118.2500 Du        
  25383 ****       117.7500 165.5000 118.5000 Du        
  25384 ****       117.7500 165.5000 118.7500 Du        
  25385 ****       117.7500 165.5000 119.0000 Du        
  25386 ****       117.7500 165.5000 119.2500 Du        
  25387 ****       117.7500 165.5000 119.5000 Du        
  25388 ****       117.7500 165.7500 115.5000 Du        
  25389 ****       117.7500 165.7500 115.7500 Du        
  25390 ****       117.7500 165.7500 116.0000 Du        
  25391 ****       117.7500 165.7500 116.2500 Du        
  25392 ****       117.7500 165.7500 116.5000 Du        
  25393 ****       117.7500 165.7500 116.7500 Du        
  25394 ****       117.7500 165.7500 117.0000 Du        
  25395 ****       117.7500 165.7500 117.2500 Du        
  25396 ****       117.7500 165.7500 117.5000 Du        
  25397 ****       117.7500 165.7500 117.7500 Du        
  25398 ****       117.7500 165.7500 118.0000 Du        
  25399 ****       117.7500 165.7500 118.2500 Du        
  25400 ****       117.7500 165.7500 118.5000 Du        
  25401 ****       117.7500 165.7500 118.7500 Du        
  25402 ****       117.7500 165.7500 119.0000 Du        
  25403 ****       117.7500 165.7500 119.2500 Du        
  25404 ****       117.7500 166.0000 116.5000 Du        
  25405 ****       117.7500 166.0000 116.7500 Du        
  25406 ****       117.7500 166.0000 117.0000 Du        
  25407 ****       117.7500 166.0000 117.2500 Du        
  25408 ****       117.7500 166.0000 117.5000 Du        
  25409 ****       117.7500 166.0000 117.7500 Du        
  25410 ****       117.7500 166.0000 118.0000 Du        
  25411 ****       117.7500 166.0000 118.2500 Du        
  25412 ****       117.7500 166.0000 118.5000 Du        
  25413 ****       117.7500 166.0000 118.7500 Du        
  25414 ****       117.7500 166.0000 119.0000 Du        
  25415 ****       117.7500 166.0000 119.2500 Du        
  25416 ****       117.7500 166.2500 117.7500 Du        
  25417 ****       117.7500 166.2500 118.0000 Du        
  25418 ****       117.7500 166.2500 118.2500 Du        
  25419 ****       117.7500 166.2500 118.5000 Du        
  25420 ****       117.7500 166.2500 118.7500 Du        
  25421 ****       117.7500 166.2500 119.0000 Du        
  25422 ****       117.7500 166.5000 118.2500 Du        
  25423 ****       117.7500 166.5000 118.5000 Du        
  25424 ****       117.7500 166.5000 118.7500 Du        
  25425 ****       117.7500 166.7500 118.5000 Du        
  25426 ****       117.7500 169.5000 115.7500 Du        
  25427 ****       117.7500 169.7500 115.7500 Du        
  25428 ****       118.0000 137.7500 131.5000 Du        
  25429 ****       118.0000 137.7500 131.7500 Du        
  25430 ****       118.0000 137.7500 132.0000 Du        
  25431 ****       118.0000 138.0000 131.0000 Du        
  25432 ****       118.0000 138.0000 131.2500 Du        
  25433 ****       118.0000 138.0000 131.5000 Du        
  25434 ****       118.0000 138.0000 131.7500 Du        
  25435 ****       118.0000 138.0000 132.0000 Du        
  25436 ****       118.0000 138.2500 131.0000 Du        
  25437 ****       118.0000 138.2500 131.2500 Du        
  25438 ****       118.0000 138.2500 131.5000 Du        
  25439 ****       118.0000 138.2500 131.7500 Du        
  25440 ****       118.0000 138.2500 132.0000 Du        
  25441 ****       118.0000 138.2500 132.2500 Du        
  25442 ****       118.0000 138.5000 131.0000 Du        
  25443 ****       118.0000 138.5000 131.2500 Du        
  25444 ****       118.0000 138.5000 131.5000 Du        
  25445 ****       118.0000 138.5000 131.7500 Du        
  25446 ****       118.0000 138.5000 132.0000 Du        
  25447 ****       118.0000 138.5000 132.2500 Du        
  25448 ****       118.0000 138.5000 132.5000 Du        
  25449 ****       118.0000 138.7500 131.0000 Du        
  25450 ****       118.0000 138.7500 131.2500 Du        
  25451 ****       118.0000 138.7500 131.5000 Du        
  25452 ****       118.0000 138.7500 131.7500 Du        
  25453 ****       118.0000 138.7500 132.0000 Du        
  25454 ****       118.0000 138.7500 132.2500 Du        
  25455 ****       118.0000 138.7500 132.5000 Du        
  25456 ****       118.0000 138.7500 132.7500 Du        
  25457 ****       118.0000 139.0000 131.2500 Du        
  25458 ****       118.0000 139.0000 131.5000 Du        
  25459 ****       118.0000 139.0000 131.7500 Du        
  25460 ****       118.0000 139.0000 132.0000 Du        
  25461 ****       118.0000 139.0000 132.2500 Du        
  25462 ****       118.0000 139.0000 132.5000 Du        
  25463 ****       118.0000 139.0000 132.7500 Du        
  25464 ****       118.0000 139.2500 131.5000 Du        
  25465 ****       118.0000 139.2500 131.7500 Du        
  25466 ****       118.0000 139.2500 132.0000 Du        
  25467 ****       118.0000 139.2500 132.2500 Du        
  25468 ****       118.0000 139.2500 132.5000 Du        
  25469 ****       118.0000 139.2500 132.7500 Du        
  25470 ****       118.0000 139.5000 131.7500 Du        
  25471 ****       118.0000 139.5000 132.0000 Du        
  25472 ****       118.0000 139.5000 132.2500 Du        
  25473 ****       118.0000 139.5000 132.5000 Du        
  25474 ****       118.0000 139.7500 132.0000 Du        
  25475 ****       118.0000 139.7500 132.2500 Du        
  25476 ****       118.0000 141.0000 137.5000 Du        
  25477 ****       118.0000 141.0000 137.7500 Du        
  25478 ****       118.0000 141.2500 137.5000 Du        
  25479 ****       118.0000 141.2500 137.7500 Du        
  25480 ****       118.0000 141.2500 138.0000 Du        
  25481 ****       118.0000 141.5000 137.7500 Du        
  25482 ****       118.0000 141.5000 138.0000 Du        
  25483 ****       118.0000 141.7500 137.7500 Du        
  25484 ****       118.0000 141.7500 138.0000 Du        
  25485 ****       118.0000 141.7500 138.2500 Du        
  25486 ****       118.0000 142.0000 138.0000 Du        
  25487 ****       118.0000 142.0000 138.2500 Du        
  25488 ****       118.0000 142.0000 138.5000 Du        
  25489 ****       118.0000 142.2500 138.0000 Du        
  25490 ****       118.0000 142.2500 138.2500 Du        
  25491 ****       118.0000 142.2500 138.5000 Du        
  25492 ****       118.0000 142.2500 138.7500 Du        
  25493 ****       118.0000 142.5000 138.2500 Du        
  25494 ****       118.0000 146.5000 134.0000 Du        
  25495 ****       118.0000 146.5000 134.2500 Du        
  25496 ****       118.0000 146.7500 133.5000 Du        
  25497 ****       118.0000 146.7500 133.7500 Du        
  25498 ****       118.0000 146.7500 134.0000 Du        
  25499 ****       118.0000 146.7500 134.2500 Du        
  25500 ****       118.0000 147.0000 133.5000 Du        
  25501 ****       118.0000 147.0000 133.7500 Du        
  25502 ****       118.0000 147.0000 134.0000 Du        
  25503 ****       118.0000 147.0000 134.2500 Du        
  25504 ****       118.0000 147.0000 134.5000 Du        
  25505 ****       118.0000 147.0000 134.7500 Du        
  25506 ****       118.0000 147.2500 133.5000 Du        
  25507 ****       118.0000 147.2500 133.7500 Du        
  25508 ****       118.0000 147.2500 134.0000 Du        
  25509 ****       118.0000 147.2500 134.2500 Du        
  25510 ****       118.0000 148.0000 109.0000 Du        
  25511 ****       118.0000 148.0000 109.2500 Du        
  25512 ****       118.0000 148.2500 108.5000 Du        
  25513 ****       118.0000 148.2500 108.7500 Du        
  25514 ****       118.0000 148.2500 109.0000 Du        
  25515 ****       118.0000 148.2500 109.2500 Du        
  25516 ****       118.0000 148.2500 109.5000 Du        
  25517 ****       118.0000 148.5000 108.5000 Du        
  25518 ****       118.0000 148.5000 108.7500 Du        
  25519 ****       118.0000 148.5000 109.0000 Du        
  25520 ****       118.0000 148.5000 109.2500 Du        
  25521 ****       118.0000 148.5000 109.5000 Du        
  25522 ****       118.0000 148.7500 108.5000 Du        
  25523 ****       118.0000 148.7500 108.7500 Du        
  25524 ****       118.0000 148.7500 109.0000 Du        
  25525 ****       118.0000 148.7500 109.2500 Du        
  25526 ****       118.0000 148.7500 109.5000 Du        
  25527 ****       118.0000 148.7500 109.7500 Du        
  25528 ****       118.0000 148.7500 128.5000 Du        
  25529 ****       118.0000 148.7500 128.7500 Du        
  25530 ****       118.0000 149.0000 108.5000 Du        
  25531 ****       118.0000 149.0000 108.7500 Du        
  25532 ****       118.0000 149.0000 109.0000 Du        
  25533 ****       118.0000 149.0000 109.2500 Du        
  25534 ****       118.0000 149.0000 109.5000 Du        
  25535 ****       118.0000 149.0000 109.7500 Du        
  25536 ****       118.0000 149.0000 110.0000 Du        
  25537 ****       118.0000 149.0000 128.2500 Du        
  25538 ****       118.0000 149.0000 128.5000 Du        
  25539 ****       118.0000 149.0000 128.7500 Du        
  25540 ****       118.0000 149.2500 108.5000 Du        
  25541 ****       118.0000 149.2500 108.7500 Du        
  25542 ****       118.0000 149.2500 109.0000 Du        
  25543 ****       118.0000 149.2500 109.2500 Du        
  25544 ****       118.0000 149.2500 109.5000 Du        
  25545 ****       118.0000 149.2500 109.7500 Du        
  25546 ****       118.0000 149.2500 110.0000 Du        
  25547 ****       118.0000 149.2500 128.2500 Du        
  25548 ****       118.0000 149.2500 128.5000 Du        
  25549 ****       118.0000 149.2500 128.7500 Du        
  25550 ****       118.0000 149.5000 108.7500 Du        
  25551 ****       118.0000 149.5000 109.0000 Du        
  25552 ****       118.0000 149.5000 109.5000 Du        
  25553 ****       118.0000 149.5000 109.7500 Du        
  25554 ****       118.0000 149.5000 128.5000 Du        
  25555 ****       118.0000 149.5000 128.7500 Du        
  25556 ****       118.0000 149.5000 129.0000 Du        
  25557 ****       118.0000 149.7500 128.5000 Du        
  25558 ****       118.0000 149.7500 128.7500 Du        
  25559 ****       118.0000 149.7500 129.0000 Du        
  25560 ****       118.0000 150.0000 128.7500 Du        
  25561 ****       118.0000 150.0000 129.0000 Du        
  25562 ****       118.0000 150.2500 129.0000 Du        
  25563 ****       118.0000 164.2500 118.7500 Du        
  25564 ****       118.0000 164.2500 119.0000 Du        
  25565 ****       118.0000 164.5000 118.2500 Du        
  25566 ****       118.0000 164.5000 118.5000 Du        
  25567 ****       118.0000 164.5000 118.7500 Du        
  25568 ****       118.0000 164.5000 119.0000 Du        
  25569 ****       118.0000 164.5000 119.2500 Du        
  25570 ****       118.0000 164.7500 117.2500 Du        
  25571 ****       118.0000 164.7500 117.5000 Du        
  25572 ****       118.0000 164.7500 117.7500 Du        
  25573 ****       118.0000 164.7500 118.0000 Du        
  25574 ****       118.0000 164.7500 118.2500 Du        
  25575 ****       118.0000 164.7500 118.5000 Du        
  25576 ****       118.0000 164.7500 118.7500 Du        
  25577 ****       118.0000 164.7500 119.0000 Du        
  25578 ****       118.0000 164.7500 119.2500 Du        
  25579 ****       118.0000 164.7500 119.5000 Du        
  25580 ****       118.0000 165.0000 115.7500 Du        
  25581 ****       118.0000 165.0000 116.0000 Du        
  25582 ****       118.0000 165.0000 116.2500 Du        
  25583 ****       118.0000 165.0000 116.5000 Du        
  25584 ****       118.0000 165.0000 116.7500 Du        
  25585 ****       118.0000 165.0000 117.0000 Du        
  25586 ****       118.0000 165.0000 117.2500 Du        
  25587 ****       118.0000 165.0000 117.5000 Du        
  25588 ****       118.0000 165.0000 117.7500 Du        
  25589 ****       118.0000 165.0000 118.0000 Du        
  25590 ****       118.0000 165.0000 118.2500 Du        
  25591 ****       118.0000 165.0000 118.5000 Du        
  25592 ****       118.0000 165.0000 118.7500 Du        
  25593 ****       118.0000 165.0000 119.0000 Du        
  25594 ****       118.0000 165.0000 119.2500 Du        
  25595 ****       118.0000 165.0000 119.5000 Du        
  25596 ****       118.0000 165.2500 115.5000 Du        
  25597 ****       118.0000 165.2500 115.7500 Du        
  25598 ****       118.0000 165.2500 116.0000 Du        
  25599 ****       118.0000 165.2500 116.2500 Du        
  25600 ****       118.0000 165.2500 116.5000 Du        
  25601 ****       118.0000 165.2500 116.7500 Du        
  25602 ****       118.0000 165.2500 117.0000 Du        
  25603 ****       118.0000 165.2500 117.2500 Du        
  25604 ****       118.0000 165.2500 117.5000 Du        
  25605 ****       118.0000 165.2500 117.7500 Du        
  25606 ****       118.0000 165.2500 118.0000 Du        
  25607 ****       118.0000 165.2500 118.2500 Du        
  25608 ****       118.0000 165.2500 118.5000 Du        
  25609 ****       118.0000 165.2500 118.7500 Du        
  25610 ****       118.0000 165.2500 119.0000 Du        
  25611 ****       118.0000 165.2500 119.2500 Du        
  25612 ****       118.0000 165.2500 119.5000 Du        
  25613 ****       118.0000 165.2500 119.7500 Du        
  25614 ****       118.0000 165.5000 115.5000 Du        
  25615 ****       118.0000 165.5000 115.7500 Du        
  25616 ****       118.0000 165.5000 116.0000 Du        
  25617 ****       118.0000 165.5000 116.2500 Du        
  25618 ****       118.0000 165.5000 116.5000 Du        
  25619 ****       118.0000 165.5000 116.7500 Du        
  25620 ****       118.0000 165.5000 117.0000 Du        
  25621 ****       118.0000 165.5000 117.2500 Du        
  25622 ****       118.0000 165.5000 117.5000 Du        
  25623 ****       118.0000 165.5000 117.7500 Du        
  25624 ****       118.0000 165.5000 118.0000 Du        
  25625 ****       118.0000 165.5000 118.2500 Du        
  25626 ****       118.0000 165.5000 118.5000 Du        
  25627 ****       118.0000 165.5000 118.7500 Du        
  25628 ****       118.0000 165.5000 119.0000 Du        
  25629 ****       118.0000 165.5000 119.2500 Du        
  25630 ****       118.0000 165.5000 119.5000 Du        
  25631 ****       118.0000 165.7500 115.5000 Du        
  25632 ****       118.0000 165.7500 115.7500 Du        
  25633 ****       118.0000 165.7500 116.0000 Du        
  25634 ****       118.0000 165.7500 116.2500 Du        
  25635 ****       118.0000 165.7500 116.5000 Du        
  25636 ****       118.0000 165.7500 116.7500 Du        
  25637 ****       118.0000 165.7500 117.0000 Du        
  25638 ****       118.0000 165.7500 117.2500 Du        
  25639 ****       118.0000 165.7500 117.5000 Du        
  25640 ****       118.0000 165.7500 117.7500 Du        
  25641 ****       118.0000 165.7500 118.0000 Du        
  25642 ****       118.0000 165.7500 118.2500 Du        
  25643 ****       118.0000 165.7500 118.5000 Du        
  25644 ****       118.0000 165.7500 118.7500 Du        
  25645 ****       118.0000 165.7500 119.0000 Du        
  25646 ****       118.0000 165.7500 119.2500 Du        
  25647 ****       118.0000 165.7500 119.5000 Du        
  25648 ****       118.0000 166.0000 115.5000 Du        
  25649 ****       118.0000 166.0000 115.7500 Du        
  25650 ****       118.0000 166.0000 116.0000 Du        
  25651 ****       118.0000 166.0000 116.2500 Du        
  25652 ****       118.0000 166.0000 116.5000 Du        
  25653 ****       118.0000 166.0000 116.7500 Du        
  25654 ****       118.0000 166.0000 117.0000 Du        
  25655 ****       118.0000 166.0000 117.2500 Du        
  25656 ****       118.0000 166.0000 117.5000 Du        
  25657 ****       118.0000 166.0000 117.7500 Du        
  25658 ****       118.0000 166.0000 118.0000 Du        
  25659 ****       118.0000 166.0000 118.2500 Du        
  25660 ****       118.0000 166.0000 118.5000 Du        
  25661 ****       118.0000 166.0000 118.7500 Du        
  25662 ****       118.0000 166.0000 119.0000 Du        
  25663 ****       118.0000 166.0000 119.2500 Du        
  25664 ****       118.0000 166.0000 119.5000 Du        
  25665 ****       118.0000 166.2500 115.7500 Du        
  25666 ****       118.0000 166.2500 116.0000 Du        
  25667 ****       118.0000 166.2500 116.2500 Du        
  25668 ****       118.0000 166.2500 116.5000 Du        
  25669 ****       118.0000 166.2500 116.7500 Du        
  25670 ****       118.0000 166.2500 117.0000 Du        
  25671 ****       118.0000 166.2500 117.2500 Du        
  25672 ****       118.0000 166.2500 117.5000 Du        
  25673 ****       118.0000 166.2500 117.7500 Du        
  25674 ****       118.0000 166.2500 118.0000 Du        
  25675 ****       118.0000 166.2500 118.2500 Du        
  25676 ****       118.0000 166.2500 118.5000 Du        
  25677 ****       118.0000 166.2500 118.7500 Du        
  25678 ****       118.0000 166.2500 119.0000 Du        
  25679 ****       118.0000 166.2500 119.2500 Du        
  25680 ****       118.0000 166.5000 117.2500 Du        
  25681 ****       118.0000 166.5000 117.5000 Du        
  25682 ****       118.0000 166.5000 117.7500 Du        
  25683 ****       118.0000 166.5000 118.0000 Du        
  25684 ****       118.0000 166.5000 118.2500 Du        
  25685 ****       118.0000 166.5000 118.5000 Du        
  25686 ****       118.0000 166.5000 118.7500 Du        
  25687 ****       118.0000 166.5000 119.0000 Du        
  25688 ****       118.0000 166.7500 117.5000 Du        
  25689 ****       118.0000 166.7500 117.7500 Du        
  25690 ****       118.0000 166.7500 118.0000 Du        
  25691 ****       118.0000 166.7500 118.2500 Du        
  25692 ****       118.0000 166.7500 118.5000 Du        
  25693 ****       118.0000 166.7500 118.7500 Du        
  25694 ****       118.2500 137.5000 131.0000 Du        
  25695 ****       118.2500 137.5000 131.5000 Du        
  25696 ****       118.2500 137.5000 131.7500 Du        
  25697 ****       118.2500 137.7500 130.7500 Du        
  25698 ****       118.2500 137.7500 131.0000 Du        
  25699 ****       118.2500 137.7500 131.2500 Du        
  25700 ****       118.2500 137.7500 131.5000 Du        
  25701 ****       118.2500 137.7500 131.7500 Du        
  25702 ****       118.2500 137.7500 132.0000 Du        
  25703 ****       118.2500 138.0000 130.7500 Du        
  25704 ****       118.2500 138.0000 131.0000 Du        
  25705 ****       118.2500 138.0000 131.2500 Du        
  25706 ****       118.2500 138.0000 131.5000 Du        
  25707 ****       118.2500 138.0000 131.7500 Du        
  25708 ****       118.2500 138.0000 132.0000 Du        
  25709 ****       118.2500 138.2500 130.7500 Du        
  25710 ****       118.2500 138.2500 131.0000 Du        
  25711 ****       118.2500 138.2500 131.2500 Du        
  25712 ****       118.2500 138.2500 131.5000 Du        
  25713 ****       118.2500 138.2500 131.7500 Du        
  25714 ****       118.2500 138.2500 132.0000 Du        
  25715 ****       118.2500 138.2500 132.2500 Du        
  25716 ****       118.2500 138.5000 130.7500 Du        
  25717 ****       118.2500 138.5000 131.0000 Du        
  25718 ****       118.2500 138.5000 131.2500 Du        
  25719 ****       118.2500 138.5000 131.5000 Du        
  25720 ****       118.2500 138.5000 131.7500 Du        
  25721 ****       118.2500 138.5000 132.0000 Du        
  25722 ****       118.2500 138.5000 132.2500 Du        
  25723 ****       118.2500 138.5000 132.5000 Du        
  25724 ****       118.2500 138.7500 131.0000 Du        
  25725 ****       118.2500 138.7500 131.2500 Du        
  25726 ****       118.2500 138.7500 131.5000 Du        
  25727 ****       118.2500 138.7500 131.7500 Du        
  25728 ****       118.2500 138.7500 132.0000 Du        
  25729 ****       118.2500 138.7500 132.2500 Du        
  25730 ****       118.2500 138.7500 132.5000 Du        
  25731 ****       118.2500 138.7500 132.7500 Du        
  25732 ****       118.2500 139.0000 131.2500 Du        
  25733 ****       118.2500 139.0000 131.5000 Du        
  25734 ****       118.2500 139.0000 131.7500 Du        
  25735 ****       118.2500 139.0000 132.0000 Du        
  25736 ****       118.2500 139.0000 132.2500 Du        
  25737 ****       118.2500 139.0000 132.5000 Du        
  25738 ****       118.2500 139.0000 132.7500 Du        
  25739 ****       118.2500 139.0000 133.0000 Du        
  25740 ****       118.2500 139.2500 131.5000 Du        
  25741 ****       118.2500 139.2500 131.7500 Du        
  25742 ****       118.2500 139.2500 132.0000 Du        
  25743 ****       118.2500 139.2500 132.2500 Du        
  25744 ****       118.2500 139.2500 132.5000 Du        
  25745 ****       118.2500 139.2500 132.7500 Du        
  25746 ****       118.2500 139.2500 133.0000 Du        
  25747 ****       118.2500 139.5000 131.7500 Du        
  25748 ****       118.2500 139.5000 132.0000 Du        
  25749 ****       118.2500 139.5000 132.2500 Du        
  25750 ****       118.2500 139.5000 132.5000 Du        
  25751 ****       118.2500 139.5000 132.7500 Du        
  25752 ****       118.2500 139.5000 133.0000 Du        
  25753 ****       118.2500 139.7500 131.7500 Du        
  25754 ****       118.2500 139.7500 132.0000 Du        
  25755 ****       118.2500 139.7500 132.2500 Du        
  25756 ****       118.2500 139.7500 132.5000 Du        
  25757 ****       118.2500 139.7500 132.7500 Du        
  25758 ****       118.2500 140.0000 132.0000 Du        
  25759 ****       118.2500 140.0000 132.2500 Du        
  25760 ****       118.2500 141.2500 137.5000 Du        
  25761 ****       118.2500 141.2500 137.7500 Du        
  25762 ****       118.2500 141.2500 138.0000 Du        
  25763 ****       118.2500 141.5000 137.5000 Du        
  25764 ****       118.2500 141.5000 137.7500 Du        
  25765 ****       118.2500 141.5000 138.0000 Du        
  25766 ****       118.2500 141.7500 137.5000 Du        
  25767 ****       118.2500 141.7500 137.7500 Du        
  25768 ****       118.2500 141.7500 138.0000 Du        
  25769 ****       118.2500 141.7500 138.2500 Du        
  25770 ****       118.2500 141.7500 138.5000 Du        
  25771 ****       118.2500 142.0000 137.7500 Du        
  25772 ****       118.2500 142.0000 138.0000 Du        
  25773 ****       118.2500 142.0000 138.2500 Du        
  25774 ****       118.2500 142.0000 138.5000 Du        
  25775 ****       118.2500 142.0000 138.7500 Du        
  25776 ****       118.2500 142.2500 137.7500 Du        
  25777 ****       118.2500 142.2500 138.0000 Du        
  25778 ****       118.2500 142.2500 138.2500 Du        
  25779 ****       118.2500 142.2500 138.5000 Du        
  25780 ****       118.2500 142.2500 138.7500 Du        
  25781 ****       118.2500 142.2500 139.0000 Du        
  25782 ****       118.2500 142.5000 138.0000 Du        
  25783 ****       118.2500 142.5000 138.2500 Du        
  25784 ****       118.2500 142.5000 138.5000 Du        
  25785 ****       118.2500 142.5000 138.7500 Du        
  25786 ****       118.2500 142.7500 138.0000 Du        
  25787 ****       118.2500 142.7500 138.2500 Du        
  25788 ****       118.2500 146.2500 133.5000 Du        
  25789 ****       118.2500 146.5000 133.5000 Du        
  25790 ****       118.2500 146.5000 133.7500 Du        
  25791 ****       118.2500 146.5000 134.0000 Du        
  25792 ****       118.2500 146.5000 134.2500 Du        
  25793 ****       118.2500 146.7500 133.5000 Du        
  25794 ****       118.2500 146.7500 133.7500 Du        
  25795 ****       118.2500 146.7500 134.0000 Du        
  25796 ****       118.2500 146.7500 134.2500 Du        
  25797 ****       118.2500 147.0000 133.2500 Du        
  25798 ****       118.2500 147.0000 133.5000 Du        
  25799 ****       118.2500 147.0000 133.7500 Du        
  25800 ****       118.2500 147.0000 134.0000 Du        
  25801 ****       118.2500 147.0000 134.2500 Du        
  25802 ****       118.2500 147.2500 133.2500 Du        
  25803 ****       118.2500 147.2500 133.5000 Du        
  25804 ****       118.2500 147.2500 133.7500 Du        
  25805 ****       118.2500 147.2500 134.0000 Du        
  25806 ****       118.2500 147.5000 133.2500 Du        
  25807 ****       118.2500 147.5000 133.5000 Du        
  25808 ****       118.2500 147.5000 133.7500 Du        
  25809 ****       118.2500 148.0000 109.0000 Du        
  25810 ****       118.2500 148.0000 109.2500 Du        
  25811 ****       118.2500 148.0000 109.5000 Du        
  25812 ****       118.2500 148.0000 109.7500 Du        
  25813 ****       118.2500 148.2500 108.5000 Du        
  25814 ****       118.2500 148.2500 108.7500 Du        
  25815 ****       118.2500 148.2500 109.0000 Du        
  25816 ****       118.2500 148.2500 109.2500 Du        
  25817 ****       118.2500 148.2500 109.5000 Du        
  25818 ****       118.2500 148.2500 109.7500 Du        
  25819 ****       118.2500 148.2500 110.0000 Du        
  25820 ****       118.2500 148.5000 108.5000 Du        
  25821 ****       118.2500 148.5000 108.7500 Du        
  25822 ****       118.2500 148.5000 109.0000 Du        
  25823 ****       118.2500 148.5000 109.2500 Du        
  25824 ****       118.2500 148.5000 109.5000 Du        
  25825 ****       118.2500 148.5000 109.7500 Du        
  25826 ****       118.2500 148.5000 110.0000 Du        
  25827 ****       118.2500 148.5000 110.2500 Du        
  25828 ****       118.2500 148.5000 128.5000 Du        
  25829 ****       118.2500 148.5000 128.7500 Du        
  25830 ****       118.2500 148.5000 129.0000 Du        
  25831 ****       118.2500 148.7500 108.5000 Du        
  25832 ****       118.2500 148.7500 108.7500 Du        
  25833 ****       118.2500 148.7500 109.0000 Du        
  25834 ****       118.2500 148.7500 109.2500 Du        
  25835 ****       118.2500 148.7500 109.5000 Du        
  25836 ****       118.2500 148.7500 109.7500 Du        
  25837 ****       118.2500 148.7500 110.0000 Du        
  25838 ****       118.2500 148.7500 110.2500 Du        
  25839 ****       118.2500 148.7500 110.5000 Du        
  25840 ****       118.2500 148.7500 128.2500 Du        
  25841 ****       118.2500 148.7500 128.5000 Du        
  25842 ****       118.2500 148.7500 128.7500 Du        
  25843 ****       118.2500 148.7500 129.0000 Du        
  25844 ****       118.2500 149.0000 108.5000 Du        
  25845 ****       118.2500 149.0000 108.7500 Du        
  25846 ****       118.2500 149.0000 109.0000 Du        
  25847 ****       118.2500 149.0000 109.2500 Du        
  25848 ****       118.2500 149.0000 109.5000 Du        
  25849 ****       118.2500 149.0000 109.7500 Du        
  25850 ****       118.2500 149.0000 110.0000 Du        
  25851 ****       118.2500 149.0000 110.2500 Du        
  25852 ****       118.2500 149.0000 110.5000 Du        
  25853 ****       118.2500 149.0000 110.7500 Du        
  25854 ****       118.2500 149.0000 128.0000 Du        
  25855 ****       118.2500 149.0000 128.2500 Du        
  25856 ****       118.2500 149.0000 128.5000 Du        
  25857 ****       118.2500 149.0000 128.7500 Du        
  25858 ****       118.2500 149.0000 129.0000 Du        
  25859 ****       118.2500 149.0000 129.2500 Du        
  25860 ****       118.2500 149.2500 108.5000 Du        
  25861 ****       118.2500 149.2500 108.7500 Du        
  25862 ****       118.2500 149.2500 109.0000 Du        
  25863 ****       118.2500 149.2500 109.2500 Du        
  25864 ****       118.2500 149.2500 109.5000 Du        
  25865 ****       118.2500 149.2500 109.7500 Du        
  25866 ****       118.2500 149.2500 110.0000 Du        
  25867 ****       118.2500 149.2500 110.2500 Du        
  25868 ****       118.2500 149.2500 110.5000 Du        
  25869 ****       118.2500 149.2500 110.7500 Du        
  25870 ****       118.2500 149.2500 128.2500 Du        
  25871 ****       118.2500 149.2500 128.5000 Du        
  25872 ****       118.2500 149.2500 128.7500 Du        
  25873 ****       118.2500 149.2500 129.0000 Du        
  25874 ****       118.2500 149.2500 129.2500 Du        
  25875 ****       118.2500 149.5000 108.5000 Du        
  25876 ****       118.2500 149.5000 108.7500 Du        
  25877 ****       118.2500 149.5000 109.0000 Du        
  25878 ****       118.2500 149.5000 109.2500 Du        
  25879 ****       118.2500 149.5000 109.5000 Du        
  25880 ****       118.2500 149.5000 109.7500 Du        
  25881 ****       118.2500 149.5000 110.0000 Du        
  25882 ****       118.2500 149.5000 110.2500 Du        
  25883 ****       118.2500 149.5000 110.5000 Du        
  25884 ****       118.2500 149.5000 110.7500 Du        
  25885 ****       118.2500 149.5000 128.2500 Du        
  25886 ****       118.2500 149.5000 128.5000 Du        
  25887 ****       118.2500 149.5000 128.7500 Du        
  25888 ****       118.2500 149.5000 129.0000 Du        
  25889 ****       118.2500 149.5000 129.2500 Du        
  25890 ****       118.2500 149.7500 108.5000 Du        
  25891 ****       118.2500 149.7500 108.7500 Du        
  25892 ****       118.2500 149.7500 109.0000 Du        
  25893 ****       118.2500 149.7500 109.2500 Du        
  25894 ****       118.2500 149.7500 109.5000 Du        
  25895 ****       118.2500 149.7500 109.7500 Du        
  25896 ****       118.2500 149.7500 110.0000 Du        
  25897 ****       118.2500 149.7500 110.2500 Du        
  25898 ****       118.2500 149.7500 110.5000 Du        
  25899 ****       118.2500 149.7500 128.5000 Du        
  25900 ****       118.2500 149.7500 128.7500 Du        
  25901 ****       118.2500 149.7500 129.0000 Du        
  25902 ****       118.2500 149.7500 129.2500 Du        
  25903 ****       118.2500 149.7500 129.5000 Du        
  25904 ****       118.2500 150.0000 108.5000 Du        
  25905 ****       118.2500 150.0000 108.7500 Du        
  25906 ****       118.2500 150.0000 109.0000 Du        
  25907 ****       118.2500 150.0000 109.2500 Du        
  25908 ****       118.2500 150.0000 109.5000 Du        
  25909 ****       118.2500 150.0000 109.7500 Du        
  25910 ****       118.2500 150.0000 110.0000 Du        
  25911 ****       118.2500 150.0000 128.5000 Du        
  25912 ****       118.2500 150.0000 128.7500 Du        
  25913 ****       118.2500 150.0000 129.0000 Du        
  25914 ****       118.2500 150.0000 129.2500 Du        
  25915 ****       118.2500 150.0000 129.5000 Du        
  25916 ****       118.2500 150.2500 128.7500 Du        
  25917 ****       118.2500 150.2500 129.0000 Du        
  25918 ****       118.2500 150.2500 129.2500 Du        
  25919 ****       118.2500 150.2500 129.5000 Du        
  25920 ****       118.2500 150.2500 129.7500 Du        
  25921 ****       118.2500 150.5000 128.7500 Du        
  25922 ****       118.2500 150.5000 129.0000 Du        
  25923 ****       118.2500 150.5000 129.2500 Du        
  25924 ****       118.2500 150.5000 129.5000 Du        
  25925 ****       118.2500 150.5000 129.7500 Du        
  25926 ****       118.2500 150.5000 130.0000 Du        
  25927 ****       118.2500 150.5000 131.2500 Du        
  25928 ****       118.2500 150.5000 131.7500 Du        
  25929 ****       118.2500 150.5000 132.0000 Du        
  25930 ****       118.2500 150.7500 129.0000 Du        
  25931 ****       118.2500 150.7500 129.2500 Du        
  25932 ****       118.2500 150.7500 129.5000 Du        
  25933 ****       118.2500 150.7500 129.7500 Du        
  25934 ****       118.2500 150.7500 130.0000 Du        
  25935 ****       118.2500 150.7500 130.2500 Du        
  25936 ****       118.2500 150.7500 131.0000 Du        
  25937 ****       118.2500 150.7500 131.2500 Du        
  25938 ****       118.2500 150.7500 131.5000 Du        
  25939 ****       118.2500 150.7500 131.7500 Du        
  25940 ****       118.2500 150.7500 132.0000 Du        
  25941 ****       118.2500 151.0000 129.2500 Du        
  25942 ****       118.2500 151.0000 129.5000 Du        
  25943 ****       118.2500 151.0000 131.7500 Du        
  25944 ****       118.2500 151.0000 132.0000 Du        
  25945 ****       118.2500 164.0000 118.7500 Du        
  25946 ****       118.2500 164.0000 119.0000 Du        
  25947 ****       118.2500 164.2500 118.5000 Du        
  25948 ****       118.2500 164.2500 118.7500 Du        
  25949 ****       118.2500 164.2500 119.0000 Du        
  25950 ****       118.2500 164.2500 119.2500 Du        
  25951 ****       118.2500 164.5000 118.0000 Du        
  25952 ****       118.2500 164.5000 118.2500 Du        
  25953 ****       118.2500 164.5000 118.5000 Du        
  25954 ****       118.2500 164.5000 118.7500 Du        
  25955 ****       118.2500 164.5000 119.0000 Du        
  25956 ****       118.2500 164.5000 119.2500 Du        
  25957 ****       118.2500 164.7500 116.5000 Du        
  25958 ****       118.2500 164.7500 116.7500 Du        
  25959 ****       118.2500 164.7500 117.0000 Du        
  25960 ****       118.2500 164.7500 117.2500 Du        
  25961 ****       118.2500 164.7500 117.5000 Du        
  25962 ****       118.2500 164.7500 117.7500 Du        
  25963 ****       118.2500 164.7500 118.0000 Du        
  25964 ****       118.2500 164.7500 118.2500 Du        
  25965 ****       118.2500 164.7500 118.5000 Du        
  25966 ****       118.2500 164.7500 118.7500 Du        
  25967 ****       118.2500 164.7500 119.0000 Du        
  25968 ****       118.2500 164.7500 119.2500 Du        
  25969 ****       118.2500 164.7500 119.5000 Du        
  25970 ****       118.2500 165.0000 116.0000 Du        
  25971 ****       118.2500 165.0000 116.2500 Du        
  25972 ****       118.2500 165.0000 116.5000 Du        
  25973 ****       118.2500 165.0000 116.7500 Du        
  25974 ****       118.2500 165.0000 117.0000 Du        
  25975 ****       118.2500 165.0000 117.2500 Du        
  25976 ****       118.2500 165.0000 117.5000 Du        
  25977 ****       118.2500 165.0000 117.7500 Du        
  25978 ****       118.2500 165.0000 118.0000 Du        
  25979 ****       118.2500 165.0000 118.2500 Du        
  25980 ****       118.2500 165.0000 118.5000 Du        
  25981 ****       118.2500 165.0000 118.7500 Du        
  25982 ****       118.2500 165.0000 119.0000 Du        
  25983 ****       118.2500 165.0000 119.2500 Du        
  25984 ****       118.2500 165.0000 119.5000 Du        
  25985 ****       118.2500 165.0000 119.7500 Du        
  25986 ****       118.2500 165.2500 115.5000 Du        
  25987 ****       118.2500 165.2500 115.7500 Du        
  25988 ****       118.2500 165.2500 116.0000 Du        
  25989 ****       118.2500 165.2500 116.2500 Du        
  25990 ****       118.2500 165.2500 116.5000 Du        
  25991 ****       118.2500 165.2500 116.7500 Du        
  25992 ****       118.2500 165.2500 117.0000 Du        
  25993 ****       118.2500 165.2500 117.2500 Du        
  25994 ****       118.2500 165.2500 117.5000 Du        
  25995 ****       118.2500 165.2500 117.7500 Du        
  25996 ****       118.2500 165.2500 118.0000 Du        
  25997 ****       118.2500 165.2500 118.2500 Du        
  25998 ****       118.2500 165.2500 118.5000 Du        
  25999 ****       118.2500 165.2500 118.7500 Du        
  26000 ****       118.2500 165.2500 119.0000 Du        
  26001 ****       118.2500 165.2500 119.2500 Du        
  26002 ****       118.2500 165.2500 119.5000 Du        
  26003 ****       118.2500 165.2500 119.7500 Du        
  26004 ****       118.2500 165.5000 115.5000 Du        
  26005 ****       118.2500 165.5000 115.7500 Du        
  26006 ****       118.2500 165.5000 116.0000 Du        
  26007 ****       118.2500 165.5000 116.2500 Du        
  26008 ****       118.2500 165.5000 116.5000 Du        
  26009 ****       118.2500 165.5000 116.7500 Du        
  26010 ****       118.2500 165.5000 117.0000 Du        
  26011 ****       118.2500 165.5000 117.2500 Du        
  26012 ****       118.2500 165.5000 117.5000 Du        
  26013 ****       118.2500 165.5000 117.7500 Du        
  26014 ****       118.2500 165.5000 118.0000 Du        
  26015 ****       118.2500 165.5000 118.2500 Du        
  26016 ****       118.2500 165.5000 118.5000 Du        
  26017 ****       118.2500 165.5000 118.7500 Du        
  26018 ****       118.2500 165.5000 119.0000 Du        
  26019 ****       118.2500 165.5000 119.2500 Du        
  26020 ****       118.2500 165.5000 119.5000 Du        
  26021 ****       118.2500 165.5000 119.7500 Du        
  26022 ****       118.2500 165.7500 115.5000 Du        
  26023 ****       118.2500 165.7500 115.7500 Du        
  26024 ****       118.2500 165.7500 116.0000 Du        
  26025 ****       118.2500 165.7500 116.2500 Du        
  26026 ****       118.2500 165.7500 116.5000 Du        
  26027 ****       118.2500 165.7500 116.7500 Du        
  26028 ****       118.2500 165.7500 117.0000 Du        
  26029 ****       118.2500 165.7500 117.2500 Du        
  26030 ****       118.2500 165.7500 117.5000 Du        
  26031 ****       118.2500 165.7500 117.7500 Du        
  26032 ****       118.2500 165.7500 118.0000 Du        
  26033 ****       118.2500 165.7500 118.2500 Du        
  26034 ****       118.2500 165.7500 118.5000 Du        
  26035 ****       118.2500 165.7500 118.7500 Du        
  26036 ****       118.2500 165.7500 119.0000 Du        
  26037 ****       118.2500 165.7500 119.2500 Du        
  26038 ****       118.2500 165.7500 119.5000 Du        
  26039 ****       118.2500 165.7500 119.7500 Du        
  26040 ****       118.2500 166.0000 115.5000 Du        
  26041 ****       118.2500 166.0000 115.7500 Du        
  26042 ****       118.2500 166.0000 116.0000 Du        
  26043 ****       118.2500 166.0000 116.2500 Du        
  26044 ****       118.2500 166.0000 116.5000 Du        
  26045 ****       118.2500 166.0000 116.7500 Du        
  26046 ****       118.2500 166.0000 117.0000 Du        
  26047 ****       118.2500 166.0000 117.2500 Du        
  26048 ****       118.2500 166.0000 117.5000 Du        
  26049 ****       118.2500 166.0000 117.7500 Du        
  26050 ****       118.2500 166.0000 118.0000 Du        
  26051 ****       118.2500 166.0000 118.2500 Du        
  26052 ****       118.2500 166.0000 118.5000 Du        
  26053 ****       118.2500 166.0000 118.7500 Du        
  26054 ****       118.2500 166.0000 119.0000 Du        
  26055 ****       118.2500 166.0000 119.2500 Du        
  26056 ****       118.2500 166.0000 119.5000 Du        
  26057 ****       118.2500 166.2500 115.5000 Du        
  26058 ****       118.2500 166.2500 115.7500 Du        
  26059 ****       118.2500 166.2500 116.0000 Du        
  26060 ****       118.2500 166.2500 116.2500 Du        
  26061 ****       118.2500 166.2500 116.5000 Du        
  26062 ****       118.2500 166.2500 116.7500 Du        
  26063 ****       118.2500 166.2500 117.0000 Du        
  26064 ****       118.2500 166.2500 117.2500 Du        
  26065 ****       118.2500 166.2500 117.5000 Du        
  26066 ****       118.2500 166.2500 117.7500 Du        
  26067 ****       118.2500 166.2500 118.0000 Du        
  26068 ****       118.2500 166.2500 118.2500 Du        
  26069 ****       118.2500 166.2500 118.5000 Du        
  26070 ****       118.2500 166.2500 118.7500 Du        
  26071 ****       118.2500 166.2500 119.0000 Du        
  26072 ****       118.2500 166.2500 119.2500 Du        
  26073 ****       118.2500 166.5000 116.0000 Du        
  26074 ****       118.2500 166.5000 116.2500 Du        
  26075 ****       118.2500 166.5000 116.5000 Du        
  26076 ****       118.2500 166.5000 116.7500 Du        
  26077 ****       118.2500 166.5000 117.0000 Du        
  26078 ****       118.2500 166.5000 117.2500 Du        
  26079 ****       118.2500 166.5000 117.5000 Du        
  26080 ****       118.2500 166.5000 117.7500 Du        
  26081 ****       118.2500 166.5000 118.0000 Du        
  26082 ****       118.2500 166.5000 118.2500 Du        
  26083 ****       118.2500 166.5000 118.5000 Du        
  26084 ****       118.2500 166.5000 118.7500 Du        
  26085 ****       118.2500 166.5000 119.0000 Du        
  26086 ****       118.2500 166.7500 116.0000 Du        
  26087 ****       118.2500 166.7500 116.2500 Du        
  26088 ****       118.2500 166.7500 116.5000 Du        
  26089 ****       118.2500 166.7500 116.7500 Du        
  26090 ****       118.2500 166.7500 117.0000 Du        
  26091 ****       118.2500 166.7500 117.2500 Du        
  26092 ****       118.2500 166.7500 117.5000 Du        
  26093 ****       118.2500 166.7500 117.7500 Du        
  26094 ****       118.2500 166.7500 118.0000 Du        
  26095 ****       118.2500 166.7500 118.2500 Du        
  26096 ****       118.2500 166.7500 118.5000 Du        
  26097 ****       118.2500 166.7500 118.7500 Du        
  26098 ****       118.2500 167.0000 115.7500 Du        
  26099 ****       118.2500 167.0000 116.0000 Du        
  26100 ****       118.2500 167.0000 116.2500 Du        
  26101 ****       118.2500 167.0000 116.5000 Du        
  26102 ****       118.2500 167.0000 116.7500 Du        
  26103 ****       118.2500 167.0000 117.0000 Du        
  26104 ****       118.2500 167.0000 117.2500 Du        
  26105 ****       118.2500 167.0000 117.5000 Du        
  26106 ****       118.2500 167.2500 115.7500 Du        
  26107 ****       118.2500 167.2500 116.0000 Du        
  26108 ****       118.2500 167.2500 116.2500 Du        
  26109 ****       118.2500 167.2500 116.5000 Du        
  26110 ****       118.2500 167.2500 116.7500 Du        
  26111 ****       118.5000 137.2500 131.7500 Du        
  26112 ****       118.5000 137.5000 131.0000 Du        
  26113 ****       118.5000 137.5000 131.2500 Du        
  26114 ****       118.5000 137.5000 131.5000 Du        
  26115 ****       118.5000 137.5000 131.7500 Du        
  26116 ****       118.5000 137.5000 132.0000 Du        
  26117 ****       118.5000 137.7500 130.7500 Du        
  26118 ****       118.5000 137.7500 131.0000 Du        
  26119 ****       118.5000 137.7500 131.2500 Du        
  26120 ****       118.5000 137.7500 131.5000 Du        
  26121 ****       118.5000 137.7500 131.7500 Du        
  26122 ****       118.5000 137.7500 132.0000 Du        
  26123 ****       118.5000 138.0000 130.5000 Du        
  26124 ****       118.5000 138.0000 130.7500 Du        
  26125 ****       118.5000 138.0000 131.0000 Du        
  26126 ****       118.5000 138.0000 131.2500 Du        
  26127 ****       118.5000 138.0000 131.5000 Du        
  26128 ****       118.5000 138.0000 131.7500 Du        
  26129 ****       118.5000 138.0000 132.0000 Du        
  26130 ****       118.5000 138.0000 132.2500 Du        
  26131 ****       118.5000 138.2500 130.7500 Du        
  26132 ****       118.5000 138.2500 131.0000 Du        
  26133 ****       118.5000 138.2500 131.2500 Du        
  26134 ****       118.5000 138.2500 131.5000 Du        
  26135 ****       118.5000 138.2500 131.7500 Du        
  26136 ****       118.5000 138.2500 132.0000 Du        
  26137 ****       118.5000 138.2500 132.2500 Du        
  26138 ****       118.5000 138.5000 130.7500 Du        
  26139 ****       118.5000 138.5000 131.0000 Du        
  26140 ****       118.5000 138.5000 131.2500 Du        
  26141 ****       118.5000 138.5000 131.5000 Du        
  26142 ****       118.5000 138.5000 131.7500 Du        
  26143 ****       118.5000 138.5000 132.0000 Du        
  26144 ****       118.5000 138.5000 132.2500 Du        
  26145 ****       118.5000 138.5000 132.5000 Du        
  26146 ****       118.5000 138.7500 130.7500 Du        
  26147 ****       118.5000 138.7500 131.0000 Du        
  26148 ****       118.5000 138.7500 131.2500 Du        
  26149 ****       118.5000 138.7500 131.5000 Du        
  26150 ****       118.5000 138.7500 131.7500 Du        
  26151 ****       118.5000 138.7500 132.0000 Du        
  26152 ****       118.5000 138.7500 132.2500 Du        
  26153 ****       118.5000 138.7500 132.5000 Du        
  26154 ****       118.5000 138.7500 132.7500 Du        
  26155 ****       118.5000 139.0000 131.0000 Du        
  26156 ****       118.5000 139.0000 131.2500 Du        
  26157 ****       118.5000 139.0000 131.5000 Du        
  26158 ****       118.5000 139.0000 131.7500 Du        
  26159 ****       118.5000 139.0000 132.0000 Du        
  26160 ****       118.5000 139.0000 132.2500 Du        
  26161 ****       118.5000 139.0000 132.5000 Du        
  26162 ****       118.5000 139.0000 132.7500 Du        
  26163 ****       118.5000 139.0000 133.0000 Du        
  26164 ****       118.5000 139.2500 131.2500 Du        
  26165 ****       118.5000 139.2500 131.5000 Du        
  26166 ****       118.5000 139.2500 131.7500 Du        
  26167 ****       118.5000 139.2500 132.0000 Du        
  26168 ****       118.5000 139.2500 132.2500 Du        
  26169 ****       118.5000 139.2500 132.5000 Du        
  26170 ****       118.5000 139.2500 132.7500 Du        
  26171 ****       118.5000 139.2500 133.0000 Du        
  26172 ****       118.5000 139.2500 133.2500 Du        
  26173 ****       118.5000 139.5000 131.5000 Du        
  26174 ****       118.5000 139.5000 131.7500 Du        
  26175 ****       118.5000 139.5000 132.0000 Du        
  26176 ****       118.5000 139.5000 132.2500 Du        
  26177 ****       118.5000 139.5000 132.5000 Du        
  26178 ****       118.5000 139.5000 132.7500 Du        
  26179 ****       118.5000 139.5000 133.0000 Du        
  26180 ****       118.5000 139.5000 133.2500 Du        
  26181 ****       118.5000 139.7500 131.7500 Du        
  26182 ****       118.5000 139.7500 132.0000 Du        
  26183 ****       118.5000 139.7500 132.2500 Du        
  26184 ****       118.5000 139.7500 132.5000 Du        
  26185 ****       118.5000 139.7500 132.7500 Du        
  26186 ****       118.5000 139.7500 133.0000 Du        
  26187 ****       118.5000 140.0000 132.0000 Du        
  26188 ****       118.5000 140.0000 132.2500 Du        
  26189 ****       118.5000 140.0000 132.5000 Du        
  26190 ****       118.5000 141.2500 137.5000 Du        
  26191 ****       118.5000 141.2500 137.7500 Du        
  26192 ****       118.5000 141.2500 138.0000 Du        
  26193 ****       118.5000 141.5000 137.2500 Du        
  26194 ****       118.5000 141.5000 137.5000 Du        
  26195 ****       118.5000 141.5000 137.7500 Du        
  26196 ****       118.5000 141.5000 138.0000 Du        
  26197 ****       118.5000 141.5000 138.2500 Du        
  26198 ****       118.5000 141.7500 137.2500 Du        
  26199 ****       118.5000 141.7500 137.5000 Du        
  26200 ****       118.5000 141.7500 137.7500 Du        
  26201 ****       118.5000 141.7500 138.0000 Du        
  26202 ****       118.5000 141.7500 138.2500 Du        
  26203 ****       118.5000 141.7500 138.5000 Du        
  26204 ****       118.5000 142.0000 137.5000 Du        
  26205 ****       118.5000 142.0000 137.7500 Du        
  26206 ****       118.5000 142.0000 138.0000 Du        
  26207 ****       118.5000 142.0000 138.2500 Du        
  26208 ****       118.5000 142.0000 138.5000 Du        
  26209 ****       118.5000 142.0000 138.7500 Du        
  26210 ****       118.5000 142.2500 137.5000 Du        
  26211 ****       118.5000 142.2500 137.7500 Du        
  26212 ****       118.5000 142.2500 138.0000 Du        
  26213 ****       118.5000 142.2500 138.2500 Du        
  26214 ****       118.5000 142.2500 138.5000 Du        
  26215 ****       118.5000 142.2500 138.7500 Du        
  26216 ****       118.5000 142.5000 137.5000 Du        
  26217 ****       118.5000 142.5000 137.7500 Du        
  26218 ****       118.5000 142.5000 138.0000 Du        
  26219 ****       118.5000 142.5000 138.2500 Du        
  26220 ****       118.5000 142.5000 138.5000 Du        
  26221 ****       118.5000 142.5000 138.7500 Du        
  26222 ****       118.5000 142.5000 139.0000 Du        
  26223 ****       118.5000 142.7500 124.7500 Du        
  26224 ****       118.5000 142.7500 138.0000 Du        
  26225 ****       118.5000 142.7500 138.2500 Du        
  26226 ****       118.5000 142.7500 138.5000 Du        
  26227 ****       118.5000 142.7500 138.7500 Du        
  26228 ****       118.5000 147.7500 109.2500 Du        
  26229 ****       118.5000 147.7500 109.5000 Du        
  26230 ****       118.5000 147.7500 109.7500 Du        
  26231 ****       118.5000 147.7500 110.0000 Du        
  26232 ****       118.5000 147.7500 110.2500 Du        
  26233 ****       118.5000 147.7500 110.5000 Du        
  26234 ****       118.5000 147.7500 110.7500 Du        
  26235 ****       118.5000 148.0000 108.7500 Du        
  26236 ****       118.5000 148.0000 109.0000 Du        
  26237 ****       118.5000 148.0000 109.2500 Du        
  26238 ****       118.5000 148.0000 109.5000 Du        
  26239 ****       118.5000 148.0000 109.7500 Du        
  26240 ****       118.5000 148.0000 110.0000 Du        
  26241 ****       118.5000 148.0000 110.2500 Du        
  26242 ****       118.5000 148.0000 110.5000 Du        
  26243 ****       118.5000 148.0000 110.7500 Du        
  26244 ****       118.5000 148.0000 111.0000 Du        
  26245 ****       118.5000 148.2500 108.5000 Du        
  26246 ****       118.5000 148.2500 108.7500 Du        
  26247 ****       118.5000 148.2500 109.0000 Du        
  26248 ****       118.5000 148.2500 109.2500 Du        
  26249 ****       118.5000 148.2500 109.5000 Du        
  26250 ****       118.5000 148.2500 109.7500 Du        
  26251 ****       118.5000 148.2500 110.0000 Du        
  26252 ****       118.5000 148.2500 110.2500 Du        
  26253 ****       118.5000 148.2500 110.5000 Du        
  26254 ****       118.5000 148.2500 110.7500 Du        
  26255 ****       118.5000 148.2500 111.0000 Du        
  26256 ****       118.5000 148.5000 108.5000 Du        
  26257 ****       118.5000 148.5000 108.7500 Du        
  26258 ****       118.5000 148.5000 109.0000 Du        
  26259 ****       118.5000 148.5000 109.2500 Du        
  26260 ****       118.5000 148.5000 109.5000 Du        
  26261 ****       118.5000 148.5000 109.7500 Du        
  26262 ****       118.5000 148.5000 110.0000 Du        
  26263 ****       118.5000 148.5000 110.2500 Du        
  26264 ****       118.5000 148.5000 110.5000 Du        
  26265 ****       118.5000 148.5000 110.7500 Du        
  26266 ****       118.5000 148.5000 111.0000 Du        
  26267 ****       118.5000 148.5000 128.2500 Du        
  26268 ****       118.5000 148.5000 128.5000 Du        
  26269 ****       118.5000 148.5000 128.7500 Du        
  26270 ****       118.5000 148.5000 129.0000 Du        
  26271 ****       118.5000 148.5000 129.2500 Du        
  26272 ****       118.5000 148.7500 108.5000 Du        
  26273 ****       118.5000 148.7500 108.7500 Du        
  26274 ****       118.5000 148.7500 109.0000 Du        
  26275 ****       118.5000 148.7500 109.2500 Du        
  26276 ****       118.5000 148.7500 109.5000 Du        
  26277 ****       118.5000 148.7500 109.7500 Du        
  26278 ****       118.5000 148.7500 110.0000 Du        
  26279 ****       118.5000 148.7500 110.2500 Du        
  26280 ****       118.5000 148.7500 110.5000 Du        
  26281 ****       118.5000 148.7500 110.7500 Du        
  26282 ****       118.5000 148.7500 111.0000 Du        
  26283 ****       118.5000 148.7500 128.0000 Du        
  26284 ****       118.5000 148.7500 128.2500 Du        
  26285 ****       118.5000 148.7500 128.5000 Du        
  26286 ****       118.5000 148.7500 128.7500 Du        
  26287 ****       118.5000 148.7500 129.0000 Du        
  26288 ****       118.5000 148.7500 129.2500 Du        
  26289 ****       118.5000 149.0000 108.5000 Du        
  26290 ****       118.5000 149.0000 108.7500 Du        
  26291 ****       118.5000 149.0000 109.0000 Du        
  26292 ****       118.5000 149.0000 109.2500 Du        
  26293 ****       118.5000 149.0000 109.5000 Du        
  26294 ****       118.5000 149.0000 109.7500 Du        
  26295 ****       118.5000 149.0000 110.0000 Du        
  26296 ****       118.5000 149.0000 110.2500 Du        
  26297 ****       118.5000 149.0000 110.5000 Du        
  26298 ****       118.5000 149.0000 110.7500 Du        
  26299 ****       118.5000 149.0000 111.0000 Du        
  26300 ****       118.5000 149.0000 128.0000 Du        
  26301 ****       118.5000 149.0000 128.2500 Du        
  26302 ****       118.5000 149.0000 128.5000 Du        
  26303 ****       118.5000 149.0000 128.7500 Du        
  26304 ****       118.5000 149.0000 129.0000 Du        
  26305 ****       118.5000 149.0000 129.2500 Du        
  26306 ****       118.5000 149.0000 129.5000 Du        
  26307 ****       118.5000 149.2500 108.7500 Du        
  26308 ****       118.5000 149.2500 109.0000 Du        
  26309 ****       118.5000 149.2500 109.2500 Du        
  26310 ****       118.5000 149.2500 109.5000 Du        
  26311 ****       118.5000 149.2500 109.7500 Du        
  26312 ****       118.5000 149.2500 110.0000 Du        
  26313 ****       118.5000 149.2500 110.2500 Du        
  26314 ****       118.5000 149.2500 110.5000 Du        
  26315 ****       118.5000 149.2500 110.7500 Du        
  26316 ****       118.5000 149.2500 128.0000 Du        
  26317 ****       118.5000 149.2500 128.2500 Du        
  26318 ****       118.5000 149.2500 128.5000 Du        
  26319 ****       118.5000 149.2500 128.7500 Du        
  26320 ****       118.5000 149.2500 129.0000 Du        
  26321 ****       118.5000 149.2500 129.2500 Du        
  26322 ****       118.5000 149.2500 129.5000 Du        
  26323 ****       118.5000 149.5000 108.5000 Du        
  26324 ****       118.5000 149.5000 108.7500 Du        
  26325 ****       118.5000 149.5000 109.0000 Du        
  26326 ****       118.5000 149.5000 109.2500 Du        
  26327 ****       118.5000 149.5000 109.5000 Du        
  26328 ****       118.5000 149.5000 109.7500 Du        
  26329 ****       118.5000 149.5000 110.0000 Du        
  26330 ****       118.5000 149.5000 110.2500 Du        
  26331 ****       118.5000 149.5000 110.5000 Du        
  26332 ****       118.5000 149.5000 110.7500 Du        
  26333 ****       118.5000 149.5000 128.2500 Du        
  26334 ****       118.5000 149.5000 128.5000 Du        
  26335 ****       118.5000 149.5000 128.7500 Du        
  26336 ****       118.5000 149.5000 129.0000 Du        
  26337 ****       118.5000 149.5000 129.2500 Du        
  26338 ****       118.5000 149.5000 129.5000 Du        
  26339 ****       118.5000 149.5000 129.7500 Du        
  26340 ****       118.5000 149.7500 108.5000 Du        
  26341 ****       118.5000 149.7500 108.7500 Du        
  26342 ****       118.5000 149.7500 109.0000 Du        
  26343 ****       118.5000 149.7500 109.2500 Du        
  26344 ****       118.5000 149.7500 109.5000 Du        
  26345 ****       118.5000 149.7500 109.7500 Du        
  26346 ****       118.5000 149.7500 110.0000 Du        
  26347 ****       118.5000 149.7500 110.2500 Du        
  26348 ****       118.5000 149.7500 110.5000 Du        
  26349 ****       118.5000 149.7500 128.5000 Du        
  26350 ****       118.5000 149.7500 128.7500 Du        
  26351 ****       118.5000 149.7500 129.0000 Du        
  26352 ****       118.5000 149.7500 129.2500 Du        
  26353 ****       118.5000 149.7500 129.5000 Du        
  26354 ****       118.5000 149.7500 129.7500 Du        
  26355 ****       118.5000 150.0000 108.5000 Du        
  26356 ****       118.5000 150.0000 108.7500 Du        
  26357 ****       118.5000 150.0000 109.0000 Du        
  26358 ****       118.5000 150.0000 109.2500 Du        
  26359 ****       118.5000 150.0000 109.5000 Du        
  26360 ****       118.5000 150.0000 109.7500 Du        
  26361 ****       118.5000 150.0000 110.0000 Du        
  26362 ****       118.5000 150.0000 110.2500 Du        
  26363 ****       118.5000 150.0000 128.5000 Du        
  26364 ****       118.5000 150.0000 128.7500 Du        
  26365 ****       118.5000 150.0000 129.0000 Du        
  26366 ****       118.5000 150.0000 129.2500 Du        
  26367 ****       118.5000 150.0000 129.5000 Du        
  26368 ****       118.5000 150.0000 129.7500 Du        
  26369 ****       118.5000 150.0000 130.0000 Du        
  26370 ****       118.5000 150.2500 109.0000 Du        
  26371 ****       118.5000 150.2500 109.2500 Du        
  26372 ****       118.5000 150.2500 109.5000 Du        
  26373 ****       118.5000 150.2500 109.7500 Du        
  26374 ****       118.5000 150.2500 128.5000 Du        
  26375 ****       118.5000 150.2500 128.7500 Du        
  26376 ****       118.5000 150.2500 129.0000 Du        
  26377 ****       118.5000 150.2500 129.2500 Du        
  26378 ****       118.5000 150.2500 129.5000 Du        
  26379 ****       118.5000 150.2500 129.7500 Du        
  26380 ****       118.5000 150.2500 130.0000 Du        
  26381 ****       118.5000 150.2500 130.2500 Du        
  26382 ****       118.5000 150.2500 130.5000 Du        
  26383 ****       118.5000 150.2500 130.7500 Du        
  26384 ****       118.5000 150.2500 131.0000 Du        
  26385 ****       118.5000 150.2500 131.2500 Du        
  26386 ****       118.5000 150.5000 128.7500 Du        
  26387 ****       118.5000 150.5000 129.0000 Du        
  26388 ****       118.5000 150.5000 129.2500 Du        
  26389 ****       118.5000 150.5000 129.5000 Du        
  26390 ****       118.5000 150.5000 129.7500 Du        
  26391 ****       118.5000 150.5000 130.0000 Du        
  26392 ****       118.5000 150.5000 130.2500 Du        
  26393 ****       118.5000 150.7500 128.7500 Du        
  26394 ****       118.5000 150.7500 129.0000 Du        
  26395 ****       118.5000 150.7500 129.2500 Du        
  26396 ****       118.5000 150.7500 129.5000 Du        
  26397 ****       118.5000 150.7500 129.7500 Du        
  26398 ****       118.5000 150.7500 130.0000 Du        
  26399 ****       118.5000 150.7500 130.2500 Du        
  26400 ****       118.5000 150.7500 130.5000 Du        
  26401 ****       118.5000 150.7500 130.7500 Du        
  26402 ****       118.5000 150.7500 131.0000 Du        
  26403 ****       118.5000 150.7500 131.2500 Du        
  26404 ****       118.5000 150.7500 131.5000 Du        
  26405 ****       118.5000 150.7500 131.7500 Du        
  26406 ****       118.5000 150.7500 132.0000 Du        
  26407 ****       118.5000 151.0000 129.0000 Du        
  26408 ****       118.5000 151.0000 129.2500 Du        
  26409 ****       118.5000 151.0000 129.5000 Du        
  26410 ****       118.5000 151.0000 129.7500 Du        
  26411 ****       118.5000 151.0000 130.0000 Du        
  26412 ****       118.5000 151.0000 130.2500 Du        
  26413 ****       118.5000 151.0000 131.7500 Du        
  26414 ****       118.5000 151.0000 132.0000 Du        
  26415 ****       118.5000 151.2500 129.2500 Du        
  26416 ****       118.5000 151.2500 129.5000 Du        
  26417 ****       118.5000 164.0000 118.7500 Du        
  26418 ****       118.5000 164.0000 119.0000 Du        
  26419 ****       118.5000 164.2500 118.5000 Du        
  26420 ****       118.5000 164.2500 118.7500 Du        
  26421 ****       118.5000 164.2500 119.0000 Du        
  26422 ****       118.5000 164.2500 119.2500 Du        
  26423 ****       118.5000 164.5000 118.0000 Du        
  26424 ****       118.5000 164.5000 118.2500 Du        
  26425 ****       118.5000 164.5000 118.5000 Du        
  26426 ****       118.5000 164.5000 118.7500 Du        
  26427 ****       118.5000 164.5000 119.0000 Du        
  26428 ****       118.5000 164.5000 119.2500 Du        
  26429 ****       118.5000 164.5000 119.5000 Du        
  26430 ****       118.5000 164.7500 116.5000 Du        
  26431 ****       118.5000 164.7500 116.7500 Du        
  26432 ****       118.5000 164.7500 117.0000 Du        
  26433 ****       118.5000 164.7500 117.2500 Du        
  26434 ****       118.5000 164.7500 117.5000 Du        
  26435 ****       118.5000 164.7500 117.7500 Du        
  26436 ****       118.5000 164.7500 118.0000 Du        
  26437 ****       118.5000 164.7500 118.2500 Du        
  26438 ****       118.5000 164.7500 118.5000 Du        
  26439 ****       118.5000 164.7500 118.7500 Du        
  26440 ****       118.5000 164.7500 119.0000 Du        
  26441 ****       118.5000 164.7500 119.2500 Du        
  26442 ****       118.5000 164.7500 119.5000 Du        
  26443 ****       118.5000 165.0000 115.7500 Du        
  26444 ****       118.5000 165.0000 116.0000 Du        
  26445 ****       118.5000 165.0000 116.2500 Du        
  26446 ****       118.5000 165.0000 116.5000 Du        
  26447 ****       118.5000 165.0000 116.7500 Du        
  26448 ****       118.5000 165.0000 117.0000 Du        
  26449 ****       118.5000 165.0000 117.2500 Du        
  26450 ****       118.5000 165.0000 117.5000 Du        
  26451 ****       118.5000 165.0000 117.7500 Du        
  26452 ****       118.5000 165.0000 118.0000 Du        
  26453 ****       118.5000 165.0000 118.2500 Du        
  26454 ****       118.5000 165.0000 118.5000 Du        
  26455 ****       118.5000 165.0000 118.7500 Du        
  26456 ****       118.5000 165.0000 119.0000 Du        
  26457 ****       118.5000 165.0000 119.2500 Du        
  26458 ****       118.5000 165.0000 119.5000 Du        
  26459 ****       118.5000 165.0000 119.7500 Du        
  26460 ****       118.5000 165.2500 115.5000 Du        
  26461 ****       118.5000 165.2500 115.7500 Du        
  26462 ****       118.5000 165.2500 116.0000 Du        
  26463 ****       118.5000 165.2500 116.2500 Du        
  26464 ****       118.5000 165.2500 116.5000 Du        
  26465 ****       118.5000 165.2500 116.7500 Du        
  26466 ****       118.5000 165.2500 117.0000 Du        
  26467 ****       118.5000 165.2500 117.2500 Du        
  26468 ****       118.5000 165.2500 117.5000 Du        
  26469 ****       118.5000 165.2500 117.7500 Du        
  26470 ****       118.5000 165.2500 118.0000 Du        
  26471 ****       118.5000 165.2500 118.2500 Du        
  26472 ****       118.5000 165.2500 118.5000 Du        
  26473 ****       118.5000 165.2500 118.7500 Du        
  26474 ****       118.5000 165.2500 119.0000 Du        
  26475 ****       118.5000 165.2500 119.2500 Du        
  26476 ****       118.5000 165.2500 119.5000 Du        
  26477 ****       118.5000 165.2500 119.7500 Du        
  26478 ****       118.5000 165.5000 115.5000 Du        
  26479 ****       118.5000 165.5000 115.7500 Du        
  26480 ****       118.5000 165.5000 116.0000 Du        
  26481 ****       118.5000 165.5000 116.2500 Du        
  26482 ****       118.5000 165.5000 116.5000 Du        
  26483 ****       118.5000 165.5000 116.7500 Du        
  26484 ****       118.5000 165.5000 117.0000 Du        
  26485 ****       118.5000 165.5000 117.2500 Du        
  26486 ****       118.5000 165.5000 117.5000 Du        
  26487 ****       118.5000 165.5000 117.7500 Du        
  26488 ****       118.5000 165.5000 118.0000 Du        
  26489 ****       118.5000 165.5000 118.2500 Du        
  26490 ****       118.5000 165.5000 118.5000 Du        
  26491 ****       118.5000 165.5000 118.7500 Du        
  26492 ****       118.5000 165.5000 119.0000 Du        
  26493 ****       118.5000 165.5000 119.2500 Du        
  26494 ****       118.5000 165.5000 119.5000 Du        
  26495 ****       118.5000 165.7500 115.5000 Du        
  26496 ****       118.5000 165.7500 115.7500 Du        
  26497 ****       118.5000 165.7500 116.0000 Du        
  26498 ****       118.5000 165.7500 116.2500 Du        
  26499 ****       118.5000 165.7500 116.5000 Du        
  26500 ****       118.5000 165.7500 116.7500 Du        
  26501 ****       118.5000 165.7500 117.0000 Du        
  26502 ****       118.5000 165.7500 117.2500 Du        
  26503 ****       118.5000 165.7500 117.5000 Du        
  26504 ****       118.5000 165.7500 117.7500 Du        
  26505 ****       118.5000 165.7500 118.0000 Du        
  26506 ****       118.5000 165.7500 118.2500 Du        
  26507 ****       118.5000 165.7500 118.5000 Du        
  26508 ****       118.5000 166.0000 115.7500 Du        
  26509 ****       118.5000 166.0000 116.0000 Du        
  26510 ****       118.5000 166.0000 116.2500 Du        
  26511 ****       118.5000 166.0000 116.5000 Du        
  26512 ****       118.5000 166.0000 116.7500 Du        
  26513 ****       118.5000 166.0000 117.0000 Du        
  26514 ****       118.5000 166.0000 117.2500 Du        
  26515 ****       118.5000 166.0000 117.5000 Du        
  26516 ****       118.5000 166.0000 117.7500 Du        
  26517 ****       118.5000 166.2500 116.0000 Du        
  26518 ****       118.5000 166.2500 116.2500 Du        
  26519 ****       118.5000 166.2500 116.5000 Du        
  26520 ****       118.5000 166.2500 116.7500 Du        
  26521 ****       118.5000 166.2500 117.0000 Du        
  26522 ****       118.5000 166.5000 116.0000 Du        
  26523 ****       118.5000 166.5000 116.2500 Du        
  26524 ****       118.5000 166.5000 116.5000 Du        
  26525 ****       118.5000 166.7500 116.0000 Du        
  26526 ****       118.5000 166.7500 116.2500 Du        
  26527 ****       118.5000 166.7500 116.5000 Du        
  26528 ****       118.5000 167.0000 116.0000 Du        
  26529 ****       118.7500 136.7500 131.7500 Du        
  26530 ****       118.7500 137.0000 131.2500 Du        
  26531 ****       118.7500 137.0000 131.5000 Du        
  26532 ****       118.7500 137.0000 131.7500 Du        
  26533 ****       118.7500 137.2500 131.2500 Du        
  26534 ****       118.7500 137.2500 131.5000 Du        
  26535 ****       118.7500 137.2500 131.7500 Du        
  26536 ****       118.7500 137.2500 132.0000 Du        
  26537 ****       118.7500 137.5000 130.7500 Du        
  26538 ****       118.7500 137.5000 131.0000 Du        
  26539 ****       118.7500 137.5000 131.2500 Du        
  26540 ****       118.7500 137.5000 131.5000 Du        
  26541 ****       118.7500 137.5000 131.7500 Du        
  26542 ****       118.7500 137.5000 132.0000 Du        
  26543 ****       118.7500 137.7500 130.2500 Du        
  26544 ****       118.7500 137.7500 130.5000 Du        
  26545 ****       118.7500 137.7500 130.7500 Du        
  26546 ****       118.7500 137.7500 131.0000 Du        
  26547 ****       118.7500 137.7500 131.2500 Du        
  26548 ****       118.7500 137.7500 131.5000 Du        
  26549 ****       118.7500 137.7500 131.7500 Du        
  26550 ****       118.7500 137.7500 132.0000 Du        
  26551 ****       118.7500 137.7500 132.2500 Du        
  26552 ****       118.7500 138.0000 130.2500 Du        
  26553 ****       118.7500 138.0000 130.5000 Du        
  26554 ****       118.7500 138.0000 130.7500 Du        
  26555 ****       118.7500 138.0000 131.0000 Du        
  26556 ****       118.7500 138.0000 131.2500 Du        
  26557 ****       118.7500 138.0000 131.5000 Du        
  26558 ****       118.7500 138.0000 131.7500 Du        
  26559 ****       118.7500 138.0000 132.0000 Du        
  26560 ****       118.7500 138.0000 132.2500 Du        
  26561 ****       118.7500 138.2500 130.2500 Du        
  26562 ****       118.7500 138.2500 130.5000 Du        
  26563 ****       118.7500 138.2500 130.7500 Du        
  26564 ****       118.7500 138.2500 131.0000 Du        
  26565 ****       118.7500 138.2500 131.2500 Du        
  26566 ****       118.7500 138.2500 131.5000 Du        
  26567 ****       118.7500 138.2500 131.7500 Du        
  26568 ****       118.7500 138.2500 132.0000 Du        
  26569 ****       118.7500 138.2500 132.2500 Du        
  26570 ****       118.7500 138.2500 132.5000 Du        
  26571 ****       118.7500 138.5000 130.2500 Du        
  26572 ****       118.7500 138.5000 130.5000 Du        
  26573 ****       118.7500 138.5000 130.7500 Du        
  26574 ****       118.7500 138.5000 131.0000 Du        
  26575 ****       118.7500 138.5000 131.2500 Du        
  26576 ****       118.7500 138.5000 131.5000 Du        
  26577 ****       118.7500 138.5000 131.7500 Du        
  26578 ****       118.7500 138.5000 132.0000 Du        
  26579 ****       118.7500 138.5000 132.2500 Du        
  26580 ****       118.7500 138.5000 132.5000 Du        
  26581 ****       118.7500 138.7500 130.7500 Du        
  26582 ****       118.7500 138.7500 131.0000 Du        
  26583 ****       118.7500 138.7500 131.2500 Du        
  26584 ****       118.7500 138.7500 131.5000 Du        
  26585 ****       118.7500 138.7500 131.7500 Du        
  26586 ****       118.7500 138.7500 132.0000 Du        
  26587 ****       118.7500 138.7500 132.2500 Du        
  26588 ****       118.7500 138.7500 132.5000 Du        
  26589 ****       118.7500 138.7500 132.7500 Du        
  26590 ****       118.7500 139.0000 130.7500 Du        
  26591 ****       118.7500 139.0000 131.0000 Du        
  26592 ****       118.7500 139.0000 131.2500 Du        
  26593 ****       118.7500 139.0000 131.5000 Du        
  26594 ****       118.7500 139.0000 131.7500 Du        
  26595 ****       118.7500 139.0000 132.0000 Du        
  26596 ****       118.7500 139.0000 132.2500 Du        
  26597 ****       118.7500 139.0000 132.5000 Du        
  26598 ****       118.7500 139.0000 132.7500 Du        
  26599 ****       118.7500 139.0000 133.0000 Du        
  26600 ****       118.7500 139.2500 131.0000 Du        
  26601 ****       118.7500 139.2500 131.2500 Du        
  26602 ****       118.7500 139.2500 131.5000 Du        
  26603 ****       118.7500 139.2500 131.7500 Du        
  26604 ****       118.7500 139.2500 132.0000 Du        
  26605 ****       118.7500 139.2500 132.2500 Du        
  26606 ****       118.7500 139.2500 132.5000 Du        
  26607 ****       118.7500 139.2500 132.7500 Du        
  26608 ****       118.7500 139.2500 133.0000 Du        
  26609 ****       118.7500 139.2500 133.2500 Du        
  26610 ****       118.7500 139.5000 131.5000 Du        
  26611 ****       118.7500 139.5000 131.7500 Du        
  26612 ****       118.7500 139.5000 132.0000 Du        
  26613 ****       118.7500 139.5000 132.2500 Du        
  26614 ****       118.7500 139.5000 132.5000 Du        
  26615 ****       118.7500 139.5000 132.7500 Du        
  26616 ****       118.7500 139.5000 133.0000 Du        
  26617 ****       118.7500 139.5000 133.2500 Du        
  26618 ****       118.7500 139.7500 131.5000 Du        
  26619 ****       118.7500 139.7500 131.7500 Du        
  26620 ****       118.7500 139.7500 132.0000 Du        
  26621 ****       118.7500 139.7500 132.2500 Du        
  26622 ****       118.7500 139.7500 132.5000 Du        
  26623 ****       118.7500 139.7500 132.7500 Du        
  26624 ****       118.7500 139.7500 133.0000 Du        
  26625 ****       118.7500 139.7500 133.2500 Du        
  26626 ****       118.7500 140.0000 131.7500 Du        
  26627 ****       118.7500 140.0000 132.0000 Du        
  26628 ****       118.7500 140.0000 132.2500 Du        
  26629 ****       118.7500 140.0000 132.5000 Du        
  26630 ****       118.7500 140.0000 132.7500 Du        
  26631 ****       118.7500 140.0000 133.0000 Du        
  26632 ****       118.7500 140.2500 132.0000 Du        
  26633 ****       118.7500 140.2500 132.2500 Du        
  26634 ****       118.7500 140.2500 132.5000 Du        
  26635 ****       118.7500 140.2500 132.7500 Du        
  26636 ****       118.7500 140.5000 132.2500 Du        
  26637 ****       118.7500 140.5000 132.5000 Du        
  26638 ****       118.7500 140.5000 132.7500 Du        
  26639 ****       118.7500 141.2500 137.7500 Du        
  26640 ****       118.7500 141.2500 138.0000 Du        
  26641 ****       118.7500 141.5000 137.5000 Du        
  26642 ****       118.7500 141.5000 137.7500 Du        
  26643 ****       118.7500 141.5000 138.0000 Du        
  26644 ****       118.7500 141.5000 138.2500 Du        
  26645 ****       118.7500 141.7500 137.2500 Du        
  26646 ****       118.7500 141.7500 137.5000 Du        
  26647 ****       118.7500 141.7500 137.7500 Du        
  26648 ****       118.7500 141.7500 138.0000 Du        
  26649 ****       118.7500 141.7500 138.2500 Du        
  26650 ****       118.7500 141.7500 138.5000 Du        
  26651 ****       118.7500 142.0000 137.2500 Du        
  26652 ****       118.7500 142.0000 137.5000 Du        
  26653 ****       118.7500 142.0000 137.7500 Du        
  26654 ****       118.7500 142.0000 138.0000 Du        
  26655 ****       118.7500 142.0000 138.2500 Du        
  26656 ****       118.7500 142.0000 138.5000 Du        
  26657 ****       118.7500 142.0000 138.7500 Du        
  26658 ****       118.7500 142.2500 137.2500 Du        
  26659 ****       118.7500 142.2500 137.5000 Du        
  26660 ****       118.7500 142.2500 137.7500 Du        
  26661 ****       118.7500 142.2500 138.0000 Du        
  26662 ****       118.7500 142.2500 138.2500 Du        
  26663 ****       118.7500 142.2500 138.5000 Du        
  26664 ****       118.7500 142.2500 138.7500 Du        
  26665 ****       118.7500 142.5000 124.7500 Du        
  26666 ****       118.7500 142.5000 137.2500 Du        
  26667 ****       118.7500 142.5000 137.5000 Du        
  26668 ****       118.7500 142.5000 137.7500 Du        
  26669 ****       118.7500 142.5000 138.0000 Du        
  26670 ****       118.7500 142.5000 138.2500 Du        
  26671 ****       118.7500 142.5000 138.5000 Du        
  26672 ****       118.7500 142.5000 138.7500 Du        
  26673 ****       118.7500 142.7500 124.5000 Du        
  26674 ****       118.7500 142.7500 124.7500 Du        
  26675 ****       118.7500 142.7500 125.0000 Du        
  26676 ****       118.7500 142.7500 137.5000 Du        
  26677 ****       118.7500 142.7500 137.7500 Du        
  26678 ****       118.7500 142.7500 138.0000 Du        
  26679 ****       118.7500 142.7500 138.2500 Du        
  26680 ****       118.7500 142.7500 138.5000 Du        
  26681 ****       118.7500 143.0000 124.7500 Du        
  26682 ****       118.7500 143.0000 125.0000 Du        
  26683 ****       118.7500 143.0000 125.2500 Du        
  26684 ****       118.7500 143.0000 138.0000 Du        
  26685 ****       118.7500 147.5000 111.0000 Du        
  26686 ****       118.7500 147.7500 109.0000 Du        
  26687 ****       118.7500 147.7500 109.2500 Du        
  26688 ****       118.7500 147.7500 109.5000 Du        
  26689 ****       118.7500 147.7500 109.7500 Du        
  26690 ****       118.7500 147.7500 110.0000 Du        
  26691 ****       118.7500 147.7500 110.2500 Du        
  26692 ****       118.7500 147.7500 110.5000 Du        
  26693 ****       118.7500 147.7500 110.7500 Du        
  26694 ****       118.7500 147.7500 111.0000 Du        
  26695 ****       118.7500 147.7500 111.2500 Du        
  26696 ****       118.7500 147.7500 111.5000 Du        
  26697 ****       118.7500 147.7500 119.0000 Du        
  26698 ****       118.7500 148.0000 108.5000 Du        
  26699 ****       118.7500 148.0000 108.7500 Du        
  26700 ****       118.7500 148.0000 109.0000 Du        
  26701 ****       118.7500 148.0000 109.2500 Du        
  26702 ****       118.7500 148.0000 109.5000 Du        
  26703 ****       118.7500 148.0000 109.7500 Du        
  26704 ****       118.7500 148.0000 110.0000 Du        
  26705 ****       118.7500 148.0000 110.2500 Du        
  26706 ****       118.7500 148.0000 110.5000 Du        
  26707 ****       118.7500 148.0000 110.7500 Du        
  26708 ****       118.7500 148.0000 111.0000 Du        
  26709 ****       118.7500 148.0000 111.2500 Du        
  26710 ****       118.7500 148.0000 111.5000 Du        
  26711 ****       118.7500 148.2500 108.5000 Du        
  26712 ****       118.7500 148.2500 108.7500 Du        
  26713 ****       118.7500 148.2500 109.0000 Du        
  26714 ****       118.7500 148.2500 109.2500 Du        
  26715 ****       118.7500 148.2500 109.5000 Du        
  26716 ****       118.7500 148.2500 109.7500 Du        
  26717 ****       118.7500 148.2500 110.0000 Du        
  26718 ****       118.7500 148.2500 110.2500 Du        
  26719 ****       118.7500 148.2500 110.5000 Du        
  26720 ****       118.7500 148.2500 110.7500 Du        
  26721 ****       118.7500 148.2500 111.0000 Du        
  26722 ****       118.7500 148.2500 111.2500 Du        
  26723 ****       118.7500 148.2500 128.7500 Du        
  26724 ****       118.7500 148.2500 129.0000 Du        
  26725 ****       118.7500 148.2500 129.2500 Du        
  26726 ****       118.7500 148.2500 129.5000 Du        
  26727 ****       118.7500 148.5000 108.7500 Du        
  26728 ****       118.7500 148.5000 109.0000 Du        
  26729 ****       118.7500 148.5000 109.2500 Du        
  26730 ****       118.7500 148.5000 109.5000 Du        
  26731 ****       118.7500 148.5000 109.7500 Du        
  26732 ****       118.7500 148.5000 110.0000 Du        
  26733 ****       118.7500 148.5000 110.2500 Du        
  26734 ****       118.7500 148.5000 110.5000 Du        
  26735 ****       118.7500 148.5000 110.7500 Du        
  26736 ****       118.7500 148.5000 111.0000 Du        
  26737 ****       118.7500 148.5000 111.2500 Du        
  26738 ****       118.7500 148.5000 128.2500 Du        
  26739 ****       118.7500 148.5000 128.5000 Du        
  26740 ****       118.7500 148.5000 128.7500 Du        
  26741 ****       118.7500 148.5000 129.0000 Du        
  26742 ****       118.7500 148.5000 129.2500 Du        
  26743 ****       118.7500 148.5000 129.5000 Du        
  26744 ****       118.7500 148.7500 108.5000 Du        
  26745 ****       118.7500 148.7500 108.7500 Du        
  26746 ****       118.7500 148.7500 109.0000 Du        
  26747 ****       118.7500 148.7500 109.2500 Du        
  26748 ****       118.7500 148.7500 109.5000 Du        
  26749 ****       118.7500 148.7500 109.7500 Du        
  26750 ****       118.7500 148.7500 110.0000 Du        
  26751 ****       118.7500 148.7500 110.2500 Du        
  26752 ****       118.7500 148.7500 110.5000 Du        
  26753 ****       118.7500 148.7500 110.7500 Du        
  26754 ****       118.7500 148.7500 111.0000 Du        
  26755 ****       118.7500 148.7500 128.0000 Du        
  26756 ****       118.7500 148.7500 128.2500 Du        
  26757 ****       118.7500 148.7500 128.5000 Du        
  26758 ****       118.7500 148.7500 128.7500 Du        
  26759 ****       118.7500 148.7500 129.0000 Du        
  26760 ****       118.7500 148.7500 129.2500 Du        
  26761 ****       118.7500 148.7500 129.5000 Du        
  26762 ****       118.7500 148.7500 129.7500 Du        
  26763 ****       118.7500 149.0000 108.5000 Du        
  26764 ****       118.7500 149.0000 108.7500 Du        
  26765 ****       118.7500 149.0000 109.0000 Du        
  26766 ****       118.7500 149.0000 109.2500 Du        
  26767 ****       118.7500 149.0000 109.5000 Du        
  26768 ****       118.7500 149.0000 109.7500 Du        
  26769 ****       118.7500 149.0000 110.0000 Du        
  26770 ****       118.7500 149.0000 110.2500 Du        
  26771 ****       118.7500 149.0000 110.5000 Du        
  26772 ****       118.7500 149.0000 110.7500 Du        
  26773 ****       118.7500 149.0000 111.0000 Du        
  26774 ****       118.7500 149.0000 128.0000 Du        
  26775 ****       118.7500 149.0000 128.2500 Du        
  26776 ****       118.7500 149.0000 128.5000 Du        
  26777 ****       118.7500 149.0000 128.7500 Du        
  26778 ****       118.7500 149.0000 129.0000 Du        
  26779 ****       118.7500 149.0000 129.2500 Du        
  26780 ****       118.7500 149.0000 129.5000 Du        
  26781 ****       118.7500 149.0000 129.7500 Du        
  26782 ****       118.7500 149.0000 130.0000 Du        
  26783 ****       118.7500 149.2500 108.5000 Du        
  26784 ****       118.7500 149.2500 108.7500 Du        
  26785 ****       118.7500 149.2500 109.0000 Du        
  26786 ****       118.7500 149.2500 109.2500 Du        
  26787 ****       118.7500 149.2500 109.5000 Du        
  26788 ****       118.7500 149.2500 109.7500 Du        
  26789 ****       118.7500 149.2500 110.0000 Du        
  26790 ****       118.7500 149.2500 110.2500 Du        
  26791 ****       118.7500 149.2500 110.5000 Du        
  26792 ****       118.7500 149.2500 110.7500 Du        
  26793 ****       118.7500 149.2500 128.0000 Du        
  26794 ****       118.7500 149.2500 128.2500 Du        
  26795 ****       118.7500 149.2500 128.5000 Du        
  26796 ****       118.7500 149.2500 128.7500 Du        
  26797 ****       118.7500 149.2500 129.0000 Du        
  26798 ****       118.7500 149.2500 129.2500 Du        
  26799 ****       118.7500 149.2500 129.5000 Du        
  26800 ****       118.7500 149.2500 129.7500 Du        
  26801 ****       118.7500 149.2500 130.0000 Du        
  26802 ****       118.7500 149.2500 130.2500 Du        
  26803 ****       118.7500 149.5000 108.7500 Du        
  26804 ****       118.7500 149.5000 109.0000 Du        
  26805 ****       118.7500 149.5000 109.2500 Du        
  26806 ****       118.7500 149.5000 109.5000 Du        
  26807 ****       118.7500 149.5000 109.7500 Du        
  26808 ****       118.7500 149.5000 110.0000 Du        
  26809 ****       118.7500 149.5000 110.2500 Du        
  26810 ****       118.7500 149.5000 110.5000 Du        
  26811 ****       118.7500 149.5000 110.7500 Du        
  26812 ****       118.7500 149.5000 128.2500 Du        
  26813 ****       118.7500 149.5000 128.5000 Du        
  26814 ****       118.7500 149.5000 128.7500 Du        
  26815 ****       118.7500 149.5000 129.0000 Du        
  26816 ****       118.7500 149.5000 129.2500 Du        
  26817 ****       118.7500 149.5000 129.5000 Du        
  26818 ****       118.7500 149.5000 129.7500 Du        
  26819 ****       118.7500 149.5000 130.0000 Du        
  26820 ****       118.7500 149.5000 130.2500 Du        
  26821 ****       118.7500 149.7500 108.5000 Du        
  26822 ****       118.7500 149.7500 108.7500 Du        
  26823 ****       118.7500 149.7500 109.0000 Du        
  26824 ****       118.7500 149.7500 109.2500 Du        
  26825 ****       118.7500 149.7500 109.5000 Du        
  26826 ****       118.7500 149.7500 109.7500 Du        
  26827 ****       118.7500 149.7500 110.0000 Du        
  26828 ****       118.7500 149.7500 110.2500 Du        
  26829 ****       118.7500 149.7500 110.5000 Du        
  26830 ****       118.7500 149.7500 128.2500 Du        
  26831 ****       118.7500 149.7500 128.5000 Du        
  26832 ****       118.7500 149.7500 128.7500 Du        
  26833 ****       118.7500 149.7500 129.0000 Du        
  26834 ****       118.7500 149.7500 129.2500 Du        
  26835 ****       118.7500 149.7500 129.5000 Du        
  26836 ****       118.7500 149.7500 129.7500 Du        
  26837 ****       118.7500 149.7500 130.0000 Du        
  26838 ****       118.7500 149.7500 130.2500 Du        
  26839 ****       118.7500 149.7500 130.5000 Du        
  26840 ****       118.7500 150.0000 108.5000 Du        
  26841 ****       118.7500 150.0000 108.7500 Du        
  26842 ****       118.7500 150.0000 109.0000 Du        
  26843 ****       118.7500 150.0000 109.2500 Du        
  26844 ****       118.7500 150.0000 109.5000 Du        
  26845 ****       118.7500 150.0000 109.7500 Du        
  26846 ****       118.7500 150.0000 110.0000 Du        
  26847 ****       118.7500 150.0000 110.2500 Du        
  26848 ****       118.7500 150.0000 128.5000 Du        
  26849 ****       118.7500 150.0000 128.7500 Du        
  26850 ****       118.7500 150.0000 129.0000 Du        
  26851 ****       118.7500 150.0000 129.2500 Du        
  26852 ****       118.7500 150.0000 129.5000 Du        
  26853 ****       118.7500 150.0000 129.7500 Du        
  26854 ****       118.7500 150.0000 130.0000 Du        
  26855 ****       118.7500 150.0000 130.2500 Du        
  26856 ****       118.7500 150.0000 130.5000 Du        
  26857 ****       118.7500 150.0000 130.7500 Du        
  26858 ****       118.7500 150.0000 131.0000 Du        
  26859 ****       118.7500 150.0000 131.2500 Du        
  26860 ****       118.7500 150.2500 108.7500 Du        
  26861 ****       118.7500 150.2500 109.0000 Du        
  26862 ****       118.7500 150.2500 109.2500 Du        
  26863 ****       118.7500 150.2500 109.5000 Du        
  26864 ****       118.7500 150.2500 109.7500 Du        
  26865 ****       118.7500 150.2500 110.0000 Du        
  26866 ****       118.7500 150.2500 128.5000 Du        
  26867 ****       118.7500 150.2500 128.7500 Du        
  26868 ****       118.7500 150.2500 129.0000 Du        
  26869 ****       118.7500 150.2500 129.2500 Du        
  26870 ****       118.7500 150.2500 129.5000 Du        
  26871 ****       118.7500 150.2500 129.7500 Du        
  26872 ****       118.7500 150.2500 130.0000 Du        
  26873 ****       118.7500 150.2500 130.2500 Du        
  26874 ****       118.7500 150.2500 130.5000 Du        
  26875 ****       118.7500 150.2500 130.7500 Du        
  26876 ****       118.7500 150.2500 131.0000 Du        
  26877 ****       118.7500 150.2500 131.2500 Du        
  26878 ****       118.7500 150.5000 128.7500 Du        
  26879 ****       118.7500 150.5000 129.0000 Du        
  26880 ****       118.7500 150.5000 129.2500 Du        
  26881 ****       118.7500 150.5000 129.5000 Du        
  26882 ****       118.7500 150.5000 129.7500 Du        
  26883 ****       118.7500 150.5000 130.0000 Du        
  26884 ****       118.7500 150.5000 130.2500 Du        
  26885 ****       118.7500 150.5000 130.5000 Du        
  26886 ****       118.7500 150.5000 130.7500 Du        
  26887 ****       118.7500 150.5000 131.0000 Du        
  26888 ****       118.7500 150.5000 131.2500 Du        
  26889 ****       118.7500 150.7500 128.7500 Du        
  26890 ****       118.7500 150.7500 129.0000 Du        
  26891 ****       118.7500 150.7500 129.2500 Du        
  26892 ****       118.7500 150.7500 129.5000 Du        
  26893 ****       118.7500 150.7500 129.7500 Du        
  26894 ****       118.7500 150.7500 130.0000 Du        
  26895 ****       118.7500 150.7500 130.2500 Du        
  26896 ****       118.7500 150.7500 130.5000 Du        
  26897 ****       118.7500 150.7500 130.7500 Du        
  26898 ****       118.7500 150.7500 131.0000 Du        
  26899 ****       118.7500 150.7500 131.2500 Du        
  26900 ****       118.7500 150.7500 131.5000 Du        
  26901 ****       118.7500 150.7500 131.7500 Du        
  26902 ****       118.7500 150.7500 132.0000 Du        
  26903 ****       118.7500 151.0000 128.7500 Du        
  26904 ****       118.7500 151.0000 129.0000 Du        
  26905 ****       118.7500 151.0000 129.2500 Du        
  26906 ****       118.7500 151.0000 129.5000 Du        
  26907 ****       118.7500 151.0000 129.7500 Du        
  26908 ****       118.7500 151.0000 130.0000 Du        
  26909 ****       118.7500 151.0000 130.2500 Du        
  26910 ****       118.7500 151.0000 130.5000 Du        
  26911 ****       118.7500 151.0000 130.7500 Du        
  26912 ****       118.7500 151.0000 131.0000 Du        
  26913 ****       118.7500 151.0000 131.2500 Du        
  26914 ****       118.7500 151.0000 131.5000 Du        
  26915 ****       118.7500 151.0000 131.7500 Du        
  26916 ****       118.7500 151.0000 132.0000 Du        
  26917 ****       118.7500 151.2500 128.7500 Du        
  26918 ****       118.7500 151.2500 129.0000 Du        
  26919 ****       118.7500 151.2500 129.2500 Du        
  26920 ****       118.7500 151.2500 129.5000 Du        
  26921 ****       118.7500 151.2500 129.7500 Du        
  26922 ****       118.7500 151.2500 130.0000 Du        
  26923 ****       118.7500 151.2500 132.0000 Du        
  26924 ****       118.7500 154.7500 137.5000 Du        
  26925 ****       118.7500 154.7500 137.7500 Du        
  26926 ****       118.7500 154.7500 138.0000 Du        
  26927 ****       118.7500 155.0000 127.7500 Du        
  26928 ****       118.7500 155.2500 127.5000 Du        
  26929 ****       118.7500 155.2500 127.7500 Du        
  26930 ****       118.7500 155.5000 127.5000 Du        
  26931 ****       118.7500 155.5000 127.7500 Du        
  26932 ****       118.7500 155.7500 127.5000 Du        
  26933 ****       118.7500 155.7500 127.7500 Du        
  26934 ****       118.7500 156.0000 127.5000 Du        
  26935 ****       118.7500 164.5000 119.0000 Du        
  26936 ****       118.7500 164.5000 119.2500 Du        
  26937 ****       118.7500 164.7500 116.2500 Du        
  26938 ****       118.7500 164.7500 116.5000 Du        
  26939 ****       118.7500 164.7500 116.7500 Du        
  26940 ****       118.7500 164.7500 117.0000 Du        
  26941 ****       118.7500 164.7500 117.2500 Du        
  26942 ****       118.7500 165.0000 115.7500 Du        
  26943 ****       118.7500 165.0000 116.0000 Du        
  26944 ****       118.7500 165.0000 116.2500 Du        
  26945 ****       118.7500 165.0000 116.5000 Du        
  26946 ****       118.7500 165.0000 116.7500 Du        
  26947 ****       118.7500 165.0000 117.0000 Du        
  26948 ****       118.7500 165.0000 117.2500 Du        
  26949 ****       118.7500 165.2500 115.5000 Du        
  26950 ****       118.7500 165.2500 115.7500 Du        
  26951 ****       118.7500 165.2500 116.0000 Du        
  26952 ****       118.7500 165.2500 116.2500 Du        
  26953 ****       118.7500 165.2500 116.5000 Du        
  26954 ****       118.7500 165.2500 116.7500 Du        
  26955 ****       118.7500 165.2500 117.0000 Du        
  26956 ****       118.7500 165.2500 117.2500 Du        
  26957 ****       118.7500 165.5000 115.7500 Du        
  26958 ****       118.7500 165.5000 116.0000 Du        
  26959 ****       118.7500 165.5000 116.2500 Du        
  26960 ****       118.7500 165.5000 116.5000 Du        
  26961 ****       118.7500 165.5000 116.7500 Du        
  26962 ****       118.7500 165.7500 115.7500 Du        
  26963 ****       118.7500 165.7500 116.0000 Du        
  26964 ****       118.7500 166.0000 115.7500 Du        
  26965 ****       119.0000 136.7500 131.0000 Du        
  26966 ****       119.0000 136.7500 131.2500 Du        
  26967 ****       119.0000 136.7500 131.5000 Du        
  26968 ****       119.0000 136.7500 131.7500 Du        
  26969 ****       119.0000 137.0000 130.7500 Du        
  26970 ****       119.0000 137.0000 131.0000 Du        
  26971 ****       119.0000 137.0000 131.2500 Du        
  26972 ****       119.0000 137.0000 131.5000 Du        
  26973 ****       119.0000 137.0000 131.7500 Du        
  26974 ****       119.0000 137.0000 132.0000 Du        
  26975 ****       119.0000 137.2500 130.2500 Du        
  26976 ****       119.0000 137.2500 130.7500 Du        
  26977 ****       119.0000 137.2500 131.0000 Du        
  26978 ****       119.0000 137.2500 131.2500 Du        
  26979 ****       119.0000 137.2500 131.5000 Du        
  26980 ****       119.0000 137.2500 131.7500 Du        
  26981 ****       119.0000 137.2500 132.0000 Du        
  26982 ****       119.0000 137.5000 130.2500 Du        
  26983 ****       119.0000 137.5000 130.5000 Du        
  26984 ****       119.0000 137.5000 130.7500 Du        
  26985 ****       119.0000 137.5000 131.0000 Du        
  26986 ****       119.0000 137.5000 131.2500 Du        
  26987 ****       119.0000 137.5000 131.5000 Du        
  26988 ****       119.0000 137.5000 131.7500 Du        
  26989 ****       119.0000 137.5000 132.0000 Du        
  26990 ****       119.0000 137.7500 130.0000 Du        
  26991 ****       119.0000 137.7500 130.2500 Du        
  26992 ****       119.0000 137.7500 130.5000 Du        
  26993 ****       119.0000 137.7500 130.7500 Du        
  26994 ****       119.0000 137.7500 131.0000 Du        
  26995 ****       119.0000 137.7500 131.2500 Du        
  26996 ****       119.0000 137.7500 131.5000 Du        
  26997 ****       119.0000 137.7500 131.7500 Du        
  26998 ****       119.0000 137.7500 132.0000 Du        
  26999 ****       119.0000 137.7500 132.2500 Du        
  27000 ****       119.0000 138.0000 130.0000 Du        
  27001 ****       119.0000 138.0000 130.2500 Du        
  27002 ****       119.0000 138.0000 130.5000 Du        
  27003 ****       119.0000 138.0000 130.7500 Du        
  27004 ****       119.0000 138.0000 131.0000 Du        
  27005 ****       119.0000 138.0000 131.2500 Du        
  27006 ****       119.0000 138.0000 131.5000 Du        
  27007 ****       119.0000 138.0000 131.7500 Du        
  27008 ****       119.0000 138.0000 132.0000 Du        
  27009 ****       119.0000 138.0000 132.2500 Du        
  27010 ****       119.0000 138.2500 130.0000 Du        
  27011 ****       119.0000 138.2500 130.2500 Du        
  27012 ****       119.0000 138.2500 130.5000 Du        
  27013 ****       119.0000 138.2500 130.7500 Du        
  27014 ****       119.0000 138.2500 131.0000 Du        
  27015 ****       119.0000 138.2500 131.2500 Du        
  27016 ****       119.0000 138.2500 131.5000 Du        
  27017 ****       119.0000 138.2500 131.7500 Du        
  27018 ****       119.0000 138.2500 132.0000 Du        
  27019 ****       119.0000 138.2500 132.2500 Du        
  27020 ****       119.0000 138.2500 132.5000 Du        
  27021 ****       119.0000 138.5000 130.2500 Du        
  27022 ****       119.0000 138.5000 130.5000 Du        
  27023 ****       119.0000 138.5000 130.7500 Du        
  27024 ****       119.0000 138.5000 131.0000 Du        
  27025 ****       119.0000 138.5000 131.2500 Du        
  27026 ****       119.0000 138.5000 131.5000 Du        
  27027 ****       119.0000 138.5000 131.7500 Du        
  27028 ****       119.0000 138.5000 132.0000 Du        
  27029 ****       119.0000 138.5000 132.2500 Du        
  27030 ****       119.0000 138.5000 132.5000 Du        
  27031 ****       119.0000 138.7500 130.5000 Du        
  27032 ****       119.0000 138.7500 130.7500 Du        
  27033 ****       119.0000 138.7500 131.0000 Du        
  27034 ****       119.0000 138.7500 131.2500 Du        
  27035 ****       119.0000 138.7500 131.5000 Du        
  27036 ****       119.0000 138.7500 131.7500 Du        
  27037 ****       119.0000 138.7500 132.0000 Du        
  27038 ****       119.0000 138.7500 132.2500 Du        
  27039 ****       119.0000 138.7500 132.5000 Du        
  27040 ****       119.0000 138.7500 132.7500 Du        
  27041 ****       119.0000 139.0000 130.7500 Du        
  27042 ****       119.0000 139.0000 131.0000 Du        
  27043 ****       119.0000 139.0000 131.2500 Du        
  27044 ****       119.0000 139.0000 131.5000 Du        
  27045 ****       119.0000 139.0000 131.7500 Du        
  27046 ****       119.0000 139.0000 132.0000 Du        
  27047 ****       119.0000 139.0000 132.2500 Du        
  27048 ****       119.0000 139.0000 132.5000 Du        
  27049 ****       119.0000 139.0000 132.7500 Du        
  27050 ****       119.0000 139.0000 133.0000 Du        
  27051 ****       119.0000 139.2500 131.0000 Du        
  27052 ****       119.0000 139.2500 131.2500 Du        
  27053 ****       119.0000 139.2500 131.5000 Du        
  27054 ****       119.0000 139.2500 131.7500 Du        
  27055 ****       119.0000 139.2500 132.0000 Du        
  27056 ****       119.0000 139.2500 132.2500 Du        
  27057 ****       119.0000 139.2500 132.5000 Du        
  27058 ****       119.0000 139.2500 132.7500 Du        
  27059 ****       119.0000 139.2500 133.0000 Du        
  27060 ****       119.0000 139.5000 131.2500 Du        
  27061 ****       119.0000 139.5000 131.5000 Du        
  27062 ****       119.0000 139.5000 131.7500 Du        
  27063 ****       119.0000 139.5000 132.0000 Du        
  27064 ****       119.0000 139.5000 132.2500 Du        
  27065 ****       119.0000 139.5000 132.5000 Du        
  27066 ****       119.0000 139.5000 132.7500 Du        
  27067 ****       119.0000 139.5000 133.0000 Du        
  27068 ****       119.0000 139.7500 131.5000 Du        
  27069 ****       119.0000 139.7500 131.7500 Du        
  27070 ****       119.0000 139.7500 132.0000 Du        
  27071 ****       119.0000 139.7500 132.2500 Du        
  27072 ****       119.0000 139.7500 132.5000 Du        
  27073 ****       119.0000 139.7500 132.7500 Du        
  27074 ****       119.0000 139.7500 133.0000 Du        
  27075 ****       119.0000 140.0000 131.7500 Du        
  27076 ****       119.0000 140.0000 132.0000 Du        
  27077 ****       119.0000 140.0000 132.2500 Du        
  27078 ****       119.0000 140.0000 132.5000 Du        
  27079 ****       119.0000 140.0000 132.7500 Du        
  27080 ****       119.0000 140.0000 133.0000 Du        
  27081 ****       119.0000 140.2500 132.0000 Du        
  27082 ****       119.0000 140.2500 132.2500 Du        
  27083 ****       119.0000 140.2500 132.5000 Du        
  27084 ****       119.0000 140.2500 132.7500 Du        
  27085 ****       119.0000 140.2500 133.0000 Du        
  27086 ****       119.0000 140.5000 132.0000 Du        
  27087 ****       119.0000 140.5000 132.2500 Du        
  27088 ****       119.0000 140.5000 132.5000 Du        
  27089 ****       119.0000 140.5000 132.7500 Du        
  27090 ****       119.0000 140.5000 133.0000 Du        
  27091 ****       119.0000 140.7500 132.2500 Du        
  27092 ****       119.0000 140.7500 132.5000 Du        
  27093 ****       119.0000 140.7500 132.7500 Du        
  27094 ****       119.0000 140.7500 133.0000 Du        
  27095 ****       119.0000 141.0000 132.2500 Du        
  27096 ****       119.0000 141.0000 132.5000 Du        
  27097 ****       119.0000 141.0000 132.7500 Du        
  27098 ****       119.0000 141.5000 137.7500 Du        
  27099 ****       119.0000 141.5000 138.0000 Du        
  27100 ****       119.0000 141.7500 137.2500 Du        
  27101 ****       119.0000 141.7500 137.5000 Du        
  27102 ****       119.0000 141.7500 137.7500 Du        
  27103 ****       119.0000 141.7500 138.0000 Du        
  27104 ****       119.0000 141.7500 138.2500 Du        
  27105 ****       119.0000 141.7500 138.5000 Du        
  27106 ****       119.0000 142.0000 137.0000 Du        
  27107 ****       119.0000 142.0000 137.2500 Du        
  27108 ****       119.0000 142.0000 137.5000 Du        
  27109 ****       119.0000 142.0000 137.7500 Du        
  27110 ****       119.0000 142.0000 138.0000 Du        
  27111 ****       119.0000 142.0000 138.2500 Du        
  27112 ****       119.0000 142.0000 138.5000 Du        
  27113 ****       119.0000 142.2500 124.5000 Du        
  27114 ****       119.0000 142.2500 137.0000 Du        
  27115 ****       119.0000 142.2500 137.2500 Du        
  27116 ****       119.0000 142.2500 137.5000 Du        
  27117 ****       119.0000 142.2500 137.7500 Du        
  27118 ****       119.0000 142.2500 138.0000 Du        
  27119 ****       119.0000 142.2500 138.2500 Du        
  27120 ****       119.0000 142.2500 138.5000 Du        
  27121 ****       119.0000 142.5000 124.2500 Du        
  27122 ****       119.0000 142.5000 124.5000 Du        
  27123 ****       119.0000 142.5000 124.7500 Du        
  27124 ****       119.0000 142.5000 125.0000 Du        
  27125 ****       119.0000 142.5000 137.2500 Du        
  27126 ****       119.0000 142.5000 137.5000 Du        
  27127 ****       119.0000 142.5000 137.7500 Du        
  27128 ****       119.0000 142.5000 138.0000 Du        
  27129 ****       119.0000 142.5000 138.2500 Du        
  27130 ****       119.0000 142.7500 124.2500 Du        
  27131 ****       119.0000 142.7500 124.5000 Du        
  27132 ****       119.0000 142.7500 124.7500 Du        
  27133 ****       119.0000 142.7500 125.0000 Du        
  27134 ****       119.0000 142.7500 125.2500 Du        
  27135 ****       119.0000 142.7500 137.2500 Du        
  27136 ****       119.0000 142.7500 137.5000 Du        
  27137 ****       119.0000 142.7500 137.7500 Du        
  27138 ****       119.0000 142.7500 138.0000 Du        
  27139 ****       119.0000 142.7500 138.2500 Du        
  27140 ****       119.0000 143.0000 124.5000 Du        
  27141 ****       119.0000 143.0000 124.7500 Du        
  27142 ****       119.0000 143.0000 125.0000 Du        
  27143 ****       119.0000 143.0000 125.2500 Du        
  27144 ****       119.0000 143.0000 125.5000 Du        
  27145 ****       119.0000 143.0000 137.2500 Du        
  27146 ****       119.0000 143.0000 137.5000 Du        
  27147 ****       119.0000 143.0000 137.7500 Du        
  27148 ****       119.0000 143.0000 138.0000 Du        
  27149 ****       119.0000 143.2500 125.0000 Du        
  27150 ****       119.0000 143.2500 125.2500 Du        
  27151 ****       119.0000 143.2500 125.5000 Du        
  27152 ****       119.0000 147.5000 111.0000 Du        
  27153 ****       119.0000 147.5000 119.0000 Du        
  27154 ****       119.0000 147.7500 109.0000 Du        
  27155 ****       119.0000 147.7500 109.2500 Du        
  27156 ****       119.0000 147.7500 109.5000 Du        
  27157 ****       119.0000 147.7500 109.7500 Du        
  27158 ****       119.0000 147.7500 110.0000 Du        
  27159 ****       119.0000 147.7500 110.2500 Du        
  27160 ****       119.0000 147.7500 110.5000 Du        
  27161 ****       119.0000 147.7500 110.7500 Du        
  27162 ****       119.0000 147.7500 111.0000 Du        
  27163 ****       119.0000 147.7500 111.2500 Du        
  27164 ****       119.0000 147.7500 111.5000 Du        
  27165 ****       119.0000 147.7500 118.7500 Du        
  27166 ****       119.0000 147.7500 119.0000 Du        
  27167 ****       119.0000 147.7500 119.2500 Du        
  27168 ****       119.0000 148.0000 108.5000 Du        
  27169 ****       119.0000 148.0000 108.7500 Du        
  27170 ****       119.0000 148.0000 109.0000 Du        
  27171 ****       119.0000 148.0000 109.2500 Du        
  27172 ****       119.0000 148.0000 109.5000 Du        
  27173 ****       119.0000 148.0000 109.7500 Du        
  27174 ****       119.0000 148.0000 110.0000 Du        
  27175 ****       119.0000 148.0000 110.2500 Du        
  27176 ****       119.0000 148.0000 110.5000 Du        
  27177 ****       119.0000 148.0000 110.7500 Du        
  27178 ****       119.0000 148.0000 111.0000 Du        
  27179 ****       119.0000 148.0000 111.2500 Du        
  27180 ****       119.0000 148.0000 111.5000 Du        
  27181 ****       119.0000 148.0000 118.7500 Du        
  27182 ****       119.0000 148.0000 119.0000 Du        
  27183 ****       119.0000 148.0000 129.0000 Du        
  27184 ****       119.0000 148.0000 129.2500 Du        
  27185 ****       119.0000 148.0000 129.5000 Du        
  27186 ****       119.0000 148.2500 108.5000 Du        
  27187 ****       119.0000 148.2500 108.7500 Du        
  27188 ****       119.0000 148.2500 109.0000 Du        
  27189 ****       119.0000 148.2500 109.2500 Du        
  27190 ****       119.0000 148.2500 109.5000 Du        
  27191 ****       119.0000 148.2500 109.7500 Du        
  27192 ****       119.0000 148.2500 110.0000 Du        
  27193 ****       119.0000 148.2500 110.2500 Du        
  27194 ****       119.0000 148.2500 110.5000 Du        
  27195 ****       119.0000 148.2500 110.7500 Du        
  27196 ****       119.0000 148.2500 111.0000 Du        
  27197 ****       119.0000 148.2500 111.2500 Du        
  27198 ****       119.0000 148.2500 128.5000 Du        
  27199 ****       119.0000 148.2500 128.7500 Du        
  27200 ****       119.0000 148.2500 129.0000 Du        
  27201 ****       119.0000 148.2500 129.2500 Du        
  27202 ****       119.0000 148.2500 129.5000 Du        
  27203 ****       119.0000 148.2500 129.7500 Du        
  27204 ****       119.0000 148.5000 108.5000 Du        
  27205 ****       119.0000 148.5000 108.7500 Du        
  27206 ****       119.0000 148.5000 109.0000 Du        
  27207 ****       119.0000 148.5000 109.2500 Du        
  27208 ****       119.0000 148.5000 109.5000 Du        
  27209 ****       119.0000 148.5000 109.7500 Du        
  27210 ****       119.0000 148.5000 110.0000 Du        
  27211 ****       119.0000 148.5000 110.2500 Du        
  27212 ****       119.0000 148.5000 110.5000 Du        
  27213 ****       119.0000 148.5000 110.7500 Du        
  27214 ****       119.0000 148.5000 111.0000 Du        
  27215 ****       119.0000 148.5000 128.0000 Du        
  27216 ****       119.0000 148.5000 128.2500 Du        
  27217 ****       119.0000 148.5000 128.5000 Du        
  27218 ****       119.0000 148.5000 128.7500 Du        
  27219 ****       119.0000 148.5000 129.0000 Du        
  27220 ****       119.0000 148.5000 129.2500 Du        
  27221 ****       119.0000 148.5000 129.5000 Du        
  27222 ****       119.0000 148.5000 129.7500 Du        
  27223 ****       119.0000 148.5000 130.0000 Du        
  27224 ****       119.0000 148.7500 108.7500 Du        
  27225 ****       119.0000 148.7500 109.0000 Du        
  27226 ****       119.0000 148.7500 109.2500 Du        
  27227 ****       119.0000 148.7500 109.5000 Du        
  27228 ****       119.0000 148.7500 109.7500 Du        
  27229 ****       119.0000 148.7500 110.0000 Du        
  27230 ****       119.0000 148.7500 110.2500 Du        
  27231 ****       119.0000 148.7500 110.5000 Du        
  27232 ****       119.0000 148.7500 110.7500 Du        
  27233 ****       119.0000 148.7500 111.0000 Du        
  27234 ****       119.0000 148.7500 128.0000 Du        
  27235 ****       119.0000 148.7500 128.2500 Du        
  27236 ****       119.0000 148.7500 128.5000 Du        
  27237 ****       119.0000 148.7500 128.7500 Du        
  27238 ****       119.0000 148.7500 129.0000 Du        
  27239 ****       119.0000 148.7500 129.2500 Du        
  27240 ****       119.0000 148.7500 129.5000 Du        
  27241 ****       119.0000 148.7500 129.7500 Du        
  27242 ****       119.0000 148.7500 130.0000 Du        
  27243 ****       119.0000 148.7500 130.2500 Du        
  27244 ****       119.0000 149.0000 108.7500 Du        
  27245 ****       119.0000 149.0000 109.0000 Du        
  27246 ****       119.0000 149.0000 109.2500 Du        
  27247 ****       119.0000 149.0000 109.5000 Du        
  27248 ****       119.0000 149.0000 109.7500 Du        
  27249 ****       119.0000 149.0000 110.0000 Du        
  27250 ****       119.0000 149.0000 110.2500 Du        
  27251 ****       119.0000 149.0000 110.5000 Du        
  27252 ****       119.0000 149.0000 110.7500 Du        
  27253 ****       119.0000 149.0000 111.0000 Du        
  27254 ****       119.0000 149.0000 128.0000 Du        
  27255 ****       119.0000 149.0000 128.2500 Du        
  27256 ****       119.0000 149.0000 128.5000 Du        
  27257 ****       119.0000 149.0000 128.7500 Du        
  27258 ****       119.0000 149.0000 129.0000 Du        
  27259 ****       119.0000 149.0000 129.2500 Du        
  27260 ****       119.0000 149.0000 129.5000 Du        
  27261 ****       119.0000 149.0000 129.7500 Du        
  27262 ****       119.0000 149.0000 130.0000 Du        
  27263 ****       119.0000 149.0000 130.2500 Du        
  27264 ****       119.0000 149.2500 108.7500 Du        
  27265 ****       119.0000 149.2500 109.0000 Du        
  27266 ****       119.0000 149.2500 109.2500 Du        
  27267 ****       119.0000 149.2500 109.5000 Du        
  27268 ****       119.0000 149.2500 109.7500 Du        
  27269 ****       119.0000 149.2500 110.0000 Du        
  27270 ****       119.0000 149.2500 110.2500 Du        
  27271 ****       119.0000 149.2500 110.5000 Du        
  27272 ****       119.0000 149.2500 110.7500 Du        
  27273 ****       119.0000 149.2500 128.0000 Du        
  27274 ****       119.0000 149.2500 128.2500 Du        
  27275 ****       119.0000 149.2500 128.5000 Du        
  27276 ****       119.0000 149.2500 128.7500 Du        
  27277 ****       119.0000 149.2500 129.0000 Du        
  27278 ****       119.0000 149.2500 129.2500 Du        
  27279 ****       119.0000 149.2500 129.5000 Du        
  27280 ****       119.0000 149.2500 129.7500 Du        
  27281 ****       119.0000 149.2500 130.0000 Du        
  27282 ****       119.0000 149.2500 130.2500 Du        
  27283 ****       119.0000 149.5000 108.7500 Du        
  27284 ****       119.0000 149.5000 109.0000 Du        
  27285 ****       119.0000 149.5000 109.2500 Du        
  27286 ****       119.0000 149.5000 109.5000 Du        
  27287 ****       119.0000 149.5000 109.7500 Du        
  27288 ****       119.0000 149.5000 110.0000 Du        
  27289 ****       119.0000 149.5000 110.2500 Du        
  27290 ****       119.0000 149.5000 110.5000 Du        
  27291 ****       119.0000 149.5000 128.2500 Du        
  27292 ****       119.0000 149.5000 128.5000 Du        
  27293 ****       119.0000 149.5000 128.7500 Du        
  27294 ****       119.0000 149.5000 129.0000 Du        
  27295 ****       119.0000 149.5000 129.2500 Du        
  27296 ****       119.0000 149.5000 129.5000 Du        
  27297 ****       119.0000 149.5000 129.7500 Du        
  27298 ****       119.0000 149.5000 130.0000 Du        
  27299 ****       119.0000 149.5000 130.2500 Du        
  27300 ****       119.0000 149.7500 108.7500 Du        
  27301 ****       119.0000 149.7500 109.0000 Du        
  27302 ****       119.0000 149.7500 109.2500 Du        
  27303 ****       119.0000 149.7500 109.5000 Du        
  27304 ****       119.0000 149.7500 109.7500 Du        
  27305 ****       119.0000 149.7500 110.0000 Du        
  27306 ****       119.0000 149.7500 110.2500 Du        
  27307 ****       119.0000 149.7500 110.5000 Du        
  27308 ****       119.0000 149.7500 128.2500 Du        
  27309 ****       119.0000 149.7500 128.5000 Du        
  27310 ****       119.0000 149.7500 128.7500 Du        
  27311 ****       119.0000 149.7500 129.0000 Du        
  27312 ****       119.0000 149.7500 129.2500 Du        
  27313 ****       119.0000 149.7500 129.5000 Du        
  27314 ****       119.0000 149.7500 129.7500 Du        
  27315 ****       119.0000 149.7500 130.0000 Du        
  27316 ****       119.0000 149.7500 130.2500 Du        
  27317 ****       119.0000 149.7500 130.5000 Du        
  27318 ****       119.0000 149.7500 130.7500 Du        
  27319 ****       119.0000 150.0000 108.7500 Du        
  27320 ****       119.0000 150.0000 109.0000 Du        
  27321 ****       119.0000 150.0000 109.2500 Du        
  27322 ****       119.0000 150.0000 109.5000 Du        
  27323 ****       119.0000 150.0000 109.7500 Du        
  27324 ****       119.0000 150.0000 110.0000 Du        
  27325 ****       119.0000 150.0000 110.2500 Du        
  27326 ****       119.0000 150.0000 128.5000 Du        
  27327 ****       119.0000 150.0000 128.7500 Du        
  27328 ****       119.0000 150.0000 129.0000 Du        
  27329 ****       119.0000 150.0000 129.2500 Du        
  27330 ****       119.0000 150.0000 129.5000 Du        
  27331 ****       119.0000 150.0000 129.7500 Du        
  27332 ****       119.0000 150.0000 130.0000 Du        
  27333 ****       119.0000 150.0000 130.2500 Du        
  27334 ****       119.0000 150.0000 130.5000 Du        
  27335 ****       119.0000 150.0000 130.7500 Du        
  27336 ****       119.0000 150.0000 131.0000 Du        
  27337 ****       119.0000 150.0000 131.2500 Du        
  27338 ****       119.0000 150.2500 108.7500 Du        
  27339 ****       119.0000 150.2500 109.0000 Du        
  27340 ****       119.0000 150.2500 109.2500 Du        
  27341 ****       119.0000 150.2500 109.5000 Du        
  27342 ****       119.0000 150.2500 109.7500 Du        
  27343 ****       119.0000 150.2500 110.0000 Du        
  27344 ****       119.0000 150.2500 128.5000 Du        
  27345 ****       119.0000 150.2500 128.7500 Du        
  27346 ****       119.0000 150.2500 129.0000 Du        
  27347 ****       119.0000 150.2500 129.2500 Du        
  27348 ****       119.0000 150.2500 129.5000 Du        
  27349 ****       119.0000 150.2500 129.7500 Du        
  27350 ****       119.0000 150.2500 130.0000 Du        
  27351 ****       119.0000 150.2500 130.2500 Du        
  27352 ****       119.0000 150.2500 130.5000 Du        
  27353 ****       119.0000 150.2500 130.7500 Du        
  27354 ****       119.0000 150.2500 131.0000 Du        
  27355 ****       119.0000 150.5000 109.5000 Du        
  27356 ****       119.0000 150.5000 128.5000 Du        
  27357 ****       119.0000 150.5000 128.7500 Du        
  27358 ****       119.0000 150.5000 129.0000 Du        
  27359 ****       119.0000 150.5000 129.2500 Du        
  27360 ****       119.0000 150.5000 129.5000 Du        
  27361 ****       119.0000 150.5000 129.7500 Du        
  27362 ****       119.0000 150.5000 130.0000 Du        
  27363 ****       119.0000 150.5000 130.2500 Du        
  27364 ****       119.0000 150.5000 130.7500 Du        
  27365 ****       119.0000 150.7500 128.7500 Du        
  27366 ****       119.0000 150.7500 129.0000 Du        
  27367 ****       119.0000 150.7500 129.2500 Du        
  27368 ****       119.0000 150.7500 129.5000 Du        
  27369 ****       119.0000 150.7500 129.7500 Du        
  27370 ****       119.0000 150.7500 130.0000 Du        
  27371 ****       119.0000 150.7500 130.2500 Du        
  27372 ****       119.0000 150.7500 130.5000 Du        
  27373 ****       119.0000 150.7500 130.7500 Du        
  27374 ****       119.0000 150.7500 131.0000 Du        
  27375 ****       119.0000 150.7500 131.2500 Du        
  27376 ****       119.0000 151.0000 128.7500 Du        
  27377 ****       119.0000 151.0000 129.0000 Du        
  27378 ****       119.0000 151.0000 129.2500 Du        
  27379 ****       119.0000 151.0000 129.5000 Du        
  27380 ****       119.0000 151.0000 129.7500 Du        
  27381 ****       119.0000 151.0000 130.0000 Du        
  27382 ****       119.0000 151.0000 130.2500 Du        
  27383 ****       119.0000 151.0000 130.5000 Du        
  27384 ****       119.0000 151.0000 130.7500 Du        
  27385 ****       119.0000 151.0000 131.0000 Du        
  27386 ****       119.0000 151.0000 131.2500 Du        
  27387 ****       119.0000 151.2500 128.7500 Du        
  27388 ****       119.0000 151.2500 129.0000 Du        
  27389 ****       119.0000 151.2500 129.2500 Du        
  27390 ****       119.0000 151.2500 129.5000 Du        
  27391 ****       119.0000 151.2500 129.7500 Du        
  27392 ****       119.0000 151.2500 130.0000 Du        
  27393 ****       119.0000 151.2500 130.2500 Du        
  27394 ****       119.0000 151.2500 131.0000 Du        
  27395 ****       119.0000 151.2500 131.2500 Du        
  27396 ****       119.0000 151.5000 128.7500 Du        
  27397 ****       119.0000 151.5000 129.0000 Du        
  27398 ****       119.0000 151.5000 129.2500 Du        
  27399 ****       119.0000 151.5000 129.5000 Du        
  27400 ****       119.0000 151.5000 131.7500 Du        
  27401 ****       119.0000 151.5000 132.0000 Du        
  27402 ****       119.0000 151.7500 128.7500 Du        
  27403 ****       119.0000 151.7500 129.0000 Du        
  27404 ****       119.0000 151.7500 129.2500 Du        
  27405 ****       119.0000 151.7500 132.2500 Du        
  27406 ****       119.0000 151.7500 132.5000 Du        
  27407 ****       119.0000 151.7500 132.7500 Du        
  27408 ****       119.0000 154.2500 127.2500 Du        
  27409 ****       119.0000 154.2500 127.5000 Du        
  27410 ****       119.0000 154.2500 127.7500 Du        
  27411 ****       119.0000 154.5000 127.2500 Du        
  27412 ****       119.0000 154.5000 127.5000 Du        
  27413 ****       119.0000 154.5000 127.7500 Du        
  27414 ****       119.0000 154.5000 128.0000 Du        
  27415 ****       119.0000 154.5000 137.5000 Du        
  27416 ****       119.0000 154.5000 137.7500 Du        
  27417 ****       119.0000 154.5000 138.0000 Du        
  27418 ****       119.0000 154.5000 138.2500 Du        
  27419 ****       119.0000 154.7500 127.2500 Du        
  27420 ****       119.0000 154.7500 127.5000 Du        
  27421 ****       119.0000 154.7500 127.7500 Du        
  27422 ****       119.0000 154.7500 128.0000 Du        
  27423 ****       119.0000 154.7500 137.2500 Du        
  27424 ****       119.0000 154.7500 137.5000 Du        
  27425 ****       119.0000 154.7500 137.7500 Du        
  27426 ****       119.0000 154.7500 138.0000 Du        
  27427 ****       119.0000 154.7500 138.2500 Du        
  27428 ****       119.0000 155.0000 127.2500 Du        
  27429 ****       119.0000 155.0000 127.5000 Du        
  27430 ****       119.0000 155.0000 127.7500 Du        
  27431 ****       119.0000 155.0000 128.0000 Du        
  27432 ****       119.0000 155.0000 137.2500 Du        
  27433 ****       119.0000 155.0000 137.5000 Du        
  27434 ****       119.0000 155.0000 137.7500 Du        
  27435 ****       119.0000 155.0000 138.0000 Du        
  27436 ****       119.0000 155.2500 127.2500 Du        
  27437 ****       119.0000 155.2500 127.5000 Du        
  27438 ****       119.0000 155.2500 127.7500 Du        
  27439 ****       119.0000 155.2500 137.7500 Du        
  27440 ****       119.0000 155.5000 127.2500 Du        
  27441 ****       119.0000 155.5000 127.5000 Du        
  27442 ****       119.0000 155.5000 127.7500 Du        
  27443 ****       119.0000 155.7500 127.2500 Du        
  27444 ****       119.0000 155.7500 127.5000 Du        
  27445 ****       119.0000 156.0000 127.2500 Du        
  27446 ****       119.0000 156.0000 127.5000 Du        
  27447 ****       119.0000 156.2500 127.0000 Du        
  27448 ****       119.0000 156.2500 127.2500 Du        
  27449 ****       119.0000 156.5000 127.2500 Du        
  27450 ****       119.0000 165.0000 115.7500 Du        
  27451 ****       119.0000 165.0000 116.0000 Du        
  27452 ****       119.0000 165.0000 116.2500 Du        
  27453 ****       119.0000 165.0000 116.5000 Du        
  27454 ****       119.0000 165.2500 115.5000 Du        
  27455 ****       119.0000 165.2500 115.7500 Du        
  27456 ****       119.0000 165.2500 116.0000 Du        
  27457 ****       119.0000 165.2500 116.2500 Du        
  27458 ****       119.2500 136.7500 130.7500 Du        
  27459 ****       119.2500 136.7500 131.0000 Du        
  27460 ****       119.2500 136.7500 131.2500 Du        
  27461 ****       119.2500 136.7500 131.5000 Du        
  27462 ****       119.2500 136.7500 131.7500 Du        
  27463 ****       119.2500 137.0000 130.2500 Du        
  27464 ****       119.2500 137.0000 130.5000 Du        
  27465 ****       119.2500 137.0000 130.7500 Du        
  27466 ****       119.2500 137.0000 131.0000 Du        
  27467 ****       119.2500 137.0000 131.2500 Du        
  27468 ****       119.2500 137.0000 131.5000 Du        
  27469 ****       119.2500 137.0000 131.7500 Du        
  27470 ****       119.2500 137.0000 132.0000 Du        
  27471 ****       119.2500 137.2500 130.0000 Du        
  27472 ****       119.2500 137.2500 130.2500 Du        
  27473 ****       119.2500 137.2500 130.5000 Du        
  27474 ****       119.2500 137.2500 130.7500 Du        
  27475 ****       119.2500 137.2500 131.0000 Du        
  27476 ****       119.2500 137.2500 131.2500 Du        
  27477 ****       119.2500 137.2500 131.5000 Du        
  27478 ****       119.2500 137.2500 131.7500 Du        
  27479 ****       119.2500 137.2500 132.0000 Du        
  27480 ****       119.2500 137.5000 129.7500 Du        
  27481 ****       119.2500 137.5000 130.0000 Du        
  27482 ****       119.2500 137.5000 130.2500 Du        
  27483 ****       119.2500 137.5000 130.5000 Du        
  27484 ****       119.2500 137.5000 130.7500 Du        
  27485 ****       119.2500 137.5000 131.0000 Du        
  27486 ****       119.2500 137.5000 131.2500 Du        
  27487 ****       119.2500 137.5000 131.5000 Du        
  27488 ****       119.2500 137.5000 131.7500 Du        
  27489 ****       119.2500 137.5000 132.0000 Du        
  27490 ****       119.2500 137.7500 129.7500 Du        
  27491 ****       119.2500 137.7500 130.0000 Du        
  27492 ****       119.2500 137.7500 130.2500 Du        
  27493 ****       119.2500 137.7500 130.5000 Du        
  27494 ****       119.2500 137.7500 130.7500 Du        
  27495 ****       119.2500 137.7500 131.0000 Du        
  27496 ****       119.2500 137.7500 131.2500 Du        
  27497 ****       119.2500 137.7500 131.5000 Du        
  27498 ****       119.2500 137.7500 131.7500 Du        
  27499 ****       119.2500 137.7500 132.0000 Du        
  27500 ****       119.2500 137.7500 132.2500 Du        
  27501 ****       119.2500 138.0000 129.7500 Du        
  27502 ****       119.2500 138.0000 130.0000 Du        
  27503 ****       119.2500 138.0000 130.2500 Du        
  27504 ****       119.2500 138.0000 130.5000 Du        
  27505 ****       119.2500 138.0000 130.7500 Du        
  27506 ****       119.2500 138.0000 131.0000 Du        
  27507 ****       119.2500 138.0000 131.2500 Du        
  27508 ****       119.2500 138.0000 131.5000 Du        
  27509 ****       119.2500 138.0000 131.7500 Du        
  27510 ****       119.2500 138.0000 132.0000 Du        
  27511 ****       119.2500 138.0000 132.2500 Du        
  27512 ****       119.2500 138.2500 130.0000 Du        
  27513 ****       119.2500 138.2500 130.2500 Du        
  27514 ****       119.2500 138.2500 130.5000 Du        
  27515 ****       119.2500 138.2500 130.7500 Du        
  27516 ****       119.2500 138.2500 131.0000 Du        
  27517 ****       119.2500 138.2500 131.2500 Du        
  27518 ****       119.2500 138.2500 131.5000 Du        
  27519 ****       119.2500 138.2500 131.7500 Du        
  27520 ****       119.2500 138.2500 132.0000 Du        
  27521 ****       119.2500 138.2500 132.2500 Du        
  27522 ****       119.2500 138.2500 132.5000 Du        
  27523 ****       119.2500 138.5000 130.0000 Du        
  27524 ****       119.2500 138.5000 130.2500 Du        
  27525 ****       119.2500 138.5000 130.5000 Du        
  27526 ****       119.2500 138.5000 130.7500 Du        
  27527 ****       119.2500 138.5000 131.0000 Du        
  27528 ****       119.2500 138.5000 131.2500 Du        
  27529 ****       119.2500 138.5000 131.5000 Du        
  27530 ****       119.2500 138.5000 131.7500 Du        
  27531 ****       119.2500 138.5000 132.0000 Du        
  27532 ****       119.2500 138.5000 132.2500 Du        
  27533 ****       119.2500 138.5000 132.5000 Du        
  27534 ****       119.2500 138.7500 130.5000 Du        
  27535 ****       119.2500 138.7500 130.7500 Du        
  27536 ****       119.2500 138.7500 131.0000 Du        
  27537 ****       119.2500 138.7500 131.2500 Du        
  27538 ****       119.2500 138.7500 131.5000 Du        
  27539 ****       119.2500 138.7500 131.7500 Du        
  27540 ****       119.2500 138.7500 132.0000 Du        
  27541 ****       119.2500 138.7500 132.2500 Du        
  27542 ****       119.2500 138.7500 132.5000 Du        
  27543 ****       119.2500 138.7500 132.7500 Du        
  27544 ****       119.2500 139.0000 130.5000 Du        
  27545 ****       119.2500 139.0000 130.7500 Du        
  27546 ****       119.2500 139.0000 131.0000 Du        
  27547 ****       119.2500 139.0000 131.2500 Du        
  27548 ****       119.2500 139.0000 131.5000 Du        
  27549 ****       119.2500 139.0000 131.7500 Du        
  27550 ****       119.2500 139.0000 132.0000 Du        
  27551 ****       119.2500 139.0000 132.2500 Du        
  27552 ****       119.2500 139.0000 132.5000 Du        
  27553 ****       119.2500 139.0000 132.7500 Du        
  27554 ****       119.2500 139.0000 133.0000 Du        
  27555 ****       119.2500 139.2500 130.7500 Du        
  27556 ****       119.2500 139.2500 131.0000 Du        
  27557 ****       119.2500 139.2500 131.2500 Du        
  27558 ****       119.2500 139.2500 131.5000 Du        
  27559 ****       119.2500 139.2500 131.7500 Du        
  27560 ****       119.2500 139.2500 132.0000 Du        
  27561 ****       119.2500 139.2500 132.2500 Du        
  27562 ****       119.2500 139.2500 132.5000 Du        
  27563 ****       119.2500 139.2500 132.7500 Du        
  27564 ****       119.2500 139.2500 133.0000 Du        
  27565 ****       119.2500 139.5000 131.2500 Du        
  27566 ****       119.2500 139.5000 131.5000 Du        
  27567 ****       119.2500 139.5000 131.7500 Du        
  27568 ****       119.2500 139.5000 132.0000 Du        
  27569 ****       119.2500 139.5000 132.2500 Du        
  27570 ****       119.2500 139.5000 132.5000 Du        
  27571 ****       119.2500 139.5000 132.7500 Du        
  27572 ****       119.2500 139.5000 133.0000 Du        
  27573 ****       119.2500 139.7500 131.5000 Du        
  27574 ****       119.2500 139.7500 131.7500 Du        
  27575 ****       119.2500 139.7500 132.0000 Du        
  27576 ****       119.2500 139.7500 132.2500 Du        
  27577 ****       119.2500 139.7500 132.5000 Du        
  27578 ****       119.2500 139.7500 132.7500 Du        
  27579 ****       119.2500 139.7500 133.0000 Du        
  27580 ****       119.2500 140.0000 131.7500 Du        
  27581 ****       119.2500 140.0000 132.0000 Du        
  27582 ****       119.2500 140.0000 132.2500 Du        
  27583 ****       119.2500 140.0000 132.5000 Du        
  27584 ****       119.2500 140.0000 132.7500 Du        
  27585 ****       119.2500 140.0000 133.0000 Du        
  27586 ****       119.2500 140.2500 131.7500 Du        
  27587 ****       119.2500 140.2500 132.0000 Du        
  27588 ****       119.2500 140.2500 132.2500 Du        
  27589 ****       119.2500 140.2500 132.5000 Du        
  27590 ****       119.2500 140.2500 132.7500 Du        
  27591 ****       119.2500 140.2500 133.0000 Du        
  27592 ****       119.2500 140.5000 132.0000 Du        
  27593 ****       119.2500 140.5000 132.2500 Du        
  27594 ****       119.2500 140.5000 132.5000 Du        
  27595 ****       119.2500 140.5000 132.7500 Du        
  27596 ****       119.2500 140.5000 133.0000 Du        
  27597 ****       119.2500 140.7500 132.2500 Du        
  27598 ****       119.2500 140.7500 132.5000 Du        
  27599 ****       119.2500 140.7500 132.7500 Du        
  27600 ****       119.2500 140.7500 133.0000 Du        
  27601 ****       119.2500 141.0000 132.2500 Du        
  27602 ****       119.2500 141.0000 132.5000 Du        
  27603 ****       119.2500 141.0000 132.7500 Du        
  27604 ****       119.2500 141.0000 133.0000 Du        
  27605 ****       119.2500 141.2500 132.5000 Du        
  27606 ****       119.2500 141.2500 132.7500 Du        
  27607 ****       119.2500 141.2500 133.0000 Du        
  27608 ****       119.2500 141.5000 132.7500 Du        
  27609 ****       119.2500 141.5000 137.7500 Du        
  27610 ****       119.2500 141.7500 132.7500 Du        
  27611 ****       119.2500 141.7500 137.5000 Du        
  27612 ****       119.2500 141.7500 137.7500 Du        
  27613 ****       119.2500 141.7500 138.0000 Du        
  27614 ****       119.2500 141.7500 138.2500 Du        
  27615 ****       119.2500 142.0000 124.5000 Du        
  27616 ****       119.2500 142.0000 132.7500 Du        
  27617 ****       119.2500 142.0000 137.0000 Du        
  27618 ****       119.2500 142.0000 137.2500 Du        
  27619 ****       119.2500 142.0000 137.5000 Du        
  27620 ****       119.2500 142.0000 137.7500 Du        
  27621 ****       119.2500 142.0000 138.0000 Du        
  27622 ****       119.2500 142.0000 138.2500 Du        
  27623 ****       119.2500 142.2500 124.2500 Du        
  27624 ****       119.2500 142.2500 124.5000 Du        
  27625 ****       119.2500 142.2500 124.7500 Du        
  27626 ****       119.2500 142.2500 125.0000 Du        
  27627 ****       119.2500 142.2500 137.0000 Du        
  27628 ****       119.2500 142.2500 137.2500 Du        
  27629 ****       119.2500 142.2500 137.5000 Du        
  27630 ****       119.2500 142.2500 137.7500 Du        
  27631 ****       119.2500 142.2500 138.0000 Du        
  27632 ****       119.2500 142.2500 138.2500 Du        
  27633 ****       119.2500 142.5000 124.2500 Du        
  27634 ****       119.2500 142.5000 124.5000 Du        
  27635 ****       119.2500 142.5000 124.7500 Du        
  27636 ****       119.2500 142.5000 125.0000 Du        
  27637 ****       119.2500 142.5000 125.2500 Du        
  27638 ****       119.2500 142.5000 137.0000 Du        
  27639 ****       119.2500 142.5000 137.2500 Du        
  27640 ****       119.2500 142.5000 137.5000 Du        
  27641 ****       119.2500 142.5000 137.7500 Du        
  27642 ****       119.2500 142.5000 138.0000 Du        
  27643 ****       119.2500 142.7500 124.2500 Du        
  27644 ****       119.2500 142.7500 124.5000 Du        
  27645 ****       119.2500 142.7500 124.7500 Du        
  27646 ****       119.2500 142.7500 125.0000 Du        
  27647 ****       119.2500 142.7500 125.2500 Du        
  27648 ****       119.2500 142.7500 125.5000 Du        
  27649 ****       119.2500 142.7500 137.0000 Du        
  27650 ****       119.2500 142.7500 137.2500 Du        
  27651 ****       119.2500 142.7500 137.5000 Du        
  27652 ****       119.2500 142.7500 137.7500 Du        
  27653 ****       119.2500 142.7500 138.0000 Du        
  27654 ****       119.2500 143.0000 124.5000 Du        
  27655 ****       119.2500 143.0000 124.7500 Du        
  27656 ****       119.2500 143.0000 125.0000 Du        
  27657 ****       119.2500 143.0000 125.2500 Du        
  27658 ****       119.2500 143.0000 125.5000 Du        
  27659 ****       119.2500 143.0000 125.7500 Du        
  27660 ****       119.2500 143.0000 132.2500 Du        
  27661 ****       119.2500 143.0000 132.5000 Du        
  27662 ****       119.2500 143.0000 137.0000 Du        
  27663 ****       119.2500 143.0000 137.2500 Du        
  27664 ****       119.2500 143.0000 137.5000 Du        
  27665 ****       119.2500 143.0000 137.7500 Du        
  27666 ****       119.2500 143.2500 125.0000 Du        
  27667 ****       119.2500 143.2500 125.2500 Du        
  27668 ****       119.2500 143.2500 125.5000 Du        
  27669 ****       119.2500 143.2500 125.7500 Du        
  27670 ****       119.2500 143.2500 132.5000 Du        
  27671 ****       119.2500 143.2500 137.5000 Du        
  27672 ****       119.2500 143.2500 137.7500 Du        
  27673 ****       119.2500 143.5000 125.5000 Du        
  27674 ****       119.2500 147.5000 119.0000 Du        
  27675 ****       119.2500 147.5000 119.2500 Du        
  27676 ****       119.2500 147.7500 109.0000 Du        
  27677 ****       119.2500 147.7500 109.2500 Du        
  27678 ****       119.2500 147.7500 109.5000 Du        
  27679 ****       119.2500 147.7500 109.7500 Du        
  27680 ****       119.2500 147.7500 110.0000 Du        
  27681 ****       119.2500 147.7500 110.2500 Du        
  27682 ****       119.2500 147.7500 110.5000 Du        
  27683 ****       119.2500 147.7500 110.7500 Du        
  27684 ****       119.2500 147.7500 111.0000 Du        
  27685 ****       119.2500 147.7500 118.7500 Du        
  27686 ****       119.2500 147.7500 119.0000 Du        
  27687 ****       119.2500 147.7500 119.2500 Du        
  27688 ****       119.2500 147.7500 129.2500 Du        
  27689 ****       119.2500 148.0000 108.7500 Du        
  27690 ****       119.2500 148.0000 109.0000 Du        
  27691 ****       119.2500 148.0000 109.2500 Du        
  27692 ****       119.2500 148.0000 109.5000 Du        
  27693 ****       119.2500 148.0000 109.7500 Du        
  27694 ****       119.2500 148.0000 110.0000 Du        
  27695 ****       119.2500 148.0000 110.2500 Du        
  27696 ****       119.2500 148.0000 110.5000 Du        
  27697 ****       119.2500 148.0000 110.7500 Du        
  27698 ****       119.2500 148.0000 111.0000 Du        
  27699 ****       119.2500 148.0000 111.2500 Du        
  27700 ****       119.2500 148.0000 118.7500 Du        
  27701 ****       119.2500 148.0000 119.0000 Du        
  27702 ****       119.2500 148.0000 119.2500 Du        
  27703 ****       119.2500 148.0000 128.7500 Du        
  27704 ****       119.2500 148.0000 129.0000 Du        
  27705 ****       119.2500 148.0000 129.2500 Du        
  27706 ****       119.2500 148.0000 129.5000 Du        
  27707 ****       119.2500 148.0000 129.7500 Du        
  27708 ****       119.2500 148.2500 108.5000 Du        
  27709 ****       119.2500 148.2500 108.7500 Du        
  27710 ****       119.2500 148.2500 109.0000 Du        
  27711 ****       119.2500 148.2500 109.2500 Du        
  27712 ****       119.2500 148.2500 109.5000 Du        
  27713 ****       119.2500 148.2500 109.7500 Du        
  27714 ****       119.2500 148.2500 110.0000 Du        
  27715 ****       119.2500 148.2500 110.2500 Du        
  27716 ****       119.2500 148.2500 110.5000 Du        
  27717 ****       119.2500 148.2500 110.7500 Du        
  27718 ****       119.2500 148.2500 111.0000 Du        
  27719 ****       119.2500 148.2500 111.2500 Du        
  27720 ****       119.2500 148.2500 118.7500 Du        
  27721 ****       119.2500 148.2500 119.0000 Du        
  27722 ****       119.2500 148.2500 128.2500 Du        
  27723 ****       119.2500 148.2500 128.5000 Du        
  27724 ****       119.2500 148.2500 128.7500 Du        
  27725 ****       119.2500 148.2500 129.0000 Du        
  27726 ****       119.2500 148.2500 129.2500 Du        
  27727 ****       119.2500 148.2500 129.5000 Du        
  27728 ****       119.2500 148.2500 129.7500 Du        
  27729 ****       119.2500 148.5000 108.7500 Du        
  27730 ****       119.2500 148.5000 109.0000 Du        
  27731 ****       119.2500 148.5000 109.2500 Du        
  27732 ****       119.2500 148.5000 109.5000 Du        
  27733 ****       119.2500 148.5000 109.7500 Du        
  27734 ****       119.2500 148.5000 110.0000 Du        
  27735 ****       119.2500 148.5000 110.2500 Du        
  27736 ****       119.2500 148.5000 110.5000 Du        
  27737 ****       119.2500 148.5000 110.7500 Du        
  27738 ****       119.2500 148.5000 111.0000 Du        
  27739 ****       119.2500 148.5000 128.0000 Du        
  27740 ****       119.2500 148.5000 128.2500 Du        
  27741 ****       119.2500 148.5000 128.5000 Du        
  27742 ****       119.2500 148.5000 128.7500 Du        
  27743 ****       119.2500 148.5000 129.0000 Du        
  27744 ****       119.2500 148.5000 129.2500 Du        
  27745 ****       119.2500 148.5000 129.5000 Du        
  27746 ****       119.2500 148.5000 129.7500 Du        
  27747 ****       119.2500 148.5000 130.0000 Du        
  27748 ****       119.2500 148.7500 108.7500 Du        
  27749 ****       119.2500 148.7500 109.0000 Du        
  27750 ****       119.2500 148.7500 109.2500 Du        
  27751 ****       119.2500 148.7500 109.5000 Du        
  27752 ****       119.2500 148.7500 109.7500 Du        
  27753 ****       119.2500 148.7500 110.0000 Du        
  27754 ****       119.2500 148.7500 110.2500 Du        
  27755 ****       119.2500 148.7500 110.5000 Du        
  27756 ****       119.2500 148.7500 110.7500 Du        
  27757 ****       119.2500 148.7500 111.0000 Du        
  27758 ****       119.2500 148.7500 128.0000 Du        
  27759 ****       119.2500 148.7500 128.2500 Du        
  27760 ****       119.2500 148.7500 128.5000 Du        
  27761 ****       119.2500 148.7500 128.7500 Du        
  27762 ****       119.2500 148.7500 129.0000 Du        
  27763 ****       119.2500 148.7500 129.2500 Du        
  27764 ****       119.2500 148.7500 129.5000 Du        
  27765 ****       119.2500 148.7500 129.7500 Du        
  27766 ****       119.2500 148.7500 130.0000 Du        
  27767 ****       119.2500 149.0000 108.7500 Du        
  27768 ****       119.2500 149.0000 109.0000 Du        
  27769 ****       119.2500 149.0000 109.2500 Du        
  27770 ****       119.2500 149.0000 109.5000 Du        
  27771 ****       119.2500 149.0000 109.7500 Du        
  27772 ****       119.2500 149.0000 110.0000 Du        
  27773 ****       119.2500 149.0000 110.2500 Du        
  27774 ****       119.2500 149.0000 110.5000 Du        
  27775 ****       119.2500 149.0000 110.7500 Du        
  27776 ****       119.2500 149.0000 128.0000 Du        
  27777 ****       119.2500 149.0000 128.2500 Du        
  27778 ****       119.2500 149.0000 128.5000 Du        
  27779 ****       119.2500 149.0000 128.7500 Du        
  27780 ****       119.2500 149.0000 129.0000 Du        
  27781 ****       119.2500 149.0000 129.2500 Du        
  27782 ****       119.2500 149.0000 129.5000 Du        
  27783 ****       119.2500 149.0000 129.7500 Du        
  27784 ****       119.2500 149.0000 130.0000 Du        
  27785 ****       119.2500 149.0000 130.2500 Du        
  27786 ****       119.2500 149.2500 108.7500 Du        
  27787 ****       119.2500 149.2500 109.0000 Du        
  27788 ****       119.2500 149.2500 109.2500 Du        
  27789 ****       119.2500 149.2500 109.5000 Du        
  27790 ****       119.2500 149.2500 109.7500 Du        
  27791 ****       119.2500 149.2500 110.0000 Du        
  27792 ****       119.2500 149.2500 110.2500 Du        
  27793 ****       119.2500 149.2500 110.5000 Du        
  27794 ****       119.2500 149.2500 110.7500 Du        
  27795 ****       119.2500 149.2500 128.0000 Du        
  27796 ****       119.2500 149.2500 128.2500 Du        
  27797 ****       119.2500 149.2500 128.5000 Du        
  27798 ****       119.2500 149.2500 128.7500 Du        
  27799 ****       119.2500 149.2500 129.0000 Du        
  27800 ****       119.2500 149.2500 129.2500 Du        
  27801 ****       119.2500 149.2500 129.5000 Du        
  27802 ****       119.2500 149.2500 129.7500 Du        
  27803 ****       119.2500 149.2500 130.0000 Du        
  27804 ****       119.2500 149.2500 130.2500 Du        
  27805 ****       119.2500 149.5000 108.7500 Du        
  27806 ****       119.2500 149.5000 109.0000 Du        
  27807 ****       119.2500 149.5000 109.2500 Du        
  27808 ****       119.2500 149.5000 109.5000 Du        
  27809 ****       119.2500 149.5000 109.7500 Du        
  27810 ****       119.2500 149.5000 110.0000 Du        
  27811 ****       119.2500 149.5000 110.2500 Du        
  27812 ****       119.2500 149.5000 110.5000 Du        
  27813 ****       119.2500 149.5000 128.2500 Du        
  27814 ****       119.2500 149.5000 128.5000 Du        
  27815 ****       119.2500 149.5000 128.7500 Du        
  27816 ****       119.2500 149.5000 129.0000 Du        
  27817 ****       119.2500 149.5000 129.2500 Du        
  27818 ****       119.2500 149.5000 129.5000 Du        
  27819 ****       119.2500 149.5000 129.7500 Du        
  27820 ****       119.2500 149.5000 130.0000 Du        
  27821 ****       119.2500 149.5000 130.2500 Du        
  27822 ****       119.2500 149.7500 109.0000 Du        
  27823 ****       119.2500 149.7500 109.2500 Du        
  27824 ****       119.2500 149.7500 109.5000 Du        
  27825 ****       119.2500 149.7500 109.7500 Du        
  27826 ****       119.2500 149.7500 110.0000 Du        
  27827 ****       119.2500 149.7500 110.2500 Du        
  27828 ****       119.2500 149.7500 110.5000 Du        
  27829 ****       119.2500 149.7500 128.2500 Du        
  27830 ****       119.2500 149.7500 128.5000 Du        
  27831 ****       119.2500 149.7500 128.7500 Du        
  27832 ****       119.2500 149.7500 129.0000 Du        
  27833 ****       119.2500 149.7500 129.2500 Du        
  27834 ****       119.2500 149.7500 129.5000 Du        
  27835 ****       119.2500 149.7500 129.7500 Du        
  27836 ****       119.2500 149.7500 130.0000 Du        
  27837 ****       119.2500 149.7500 130.2500 Du        
  27838 ****       119.2500 150.0000 109.0000 Du        
  27839 ****       119.2500 150.0000 109.2500 Du        
  27840 ****       119.2500 150.0000 109.5000 Du        
  27841 ****       119.2500 150.0000 109.7500 Du        
  27842 ****       119.2500 150.0000 110.0000 Du        
  27843 ****       119.2500 150.0000 110.2500 Du        
  27844 ****       119.2500 150.0000 128.5000 Du        
  27845 ****       119.2500 150.0000 128.7500 Du        
  27846 ****       119.2500 150.0000 129.0000 Du        
  27847 ****       119.2500 150.0000 129.2500 Du        
  27848 ****       119.2500 150.0000 129.5000 Du        
  27849 ****       119.2500 150.0000 129.7500 Du        
  27850 ****       119.2500 150.0000 130.0000 Du        
  27851 ****       119.2500 150.0000 130.2500 Du        
  27852 ****       119.2500 150.2500 109.0000 Du        
  27853 ****       119.2500 150.2500 109.2500 Du        
  27854 ****       119.2500 150.2500 109.5000 Du        
  27855 ****       119.2500 150.2500 109.7500 Du        
  27856 ****       119.2500 150.2500 110.0000 Du        
  27857 ****       119.2500 150.2500 128.5000 Du        
  27858 ****       119.2500 150.2500 128.7500 Du        
  27859 ****       119.2500 150.2500 129.0000 Du        
  27860 ****       119.2500 150.2500 129.2500 Du        
  27861 ****       119.2500 150.2500 129.5000 Du        
  27862 ****       119.2500 150.2500 129.7500 Du        
  27863 ****       119.2500 150.2500 130.0000 Du        
  27864 ****       119.2500 150.2500 130.2500 Du        
  27865 ****       119.2500 150.5000 109.2500 Du        
  27866 ****       119.2500 150.5000 109.5000 Du        
  27867 ****       119.2500 150.5000 128.5000 Du        
  27868 ****       119.2500 150.5000 128.7500 Du        
  27869 ****       119.2500 150.5000 129.0000 Du        
  27870 ****       119.2500 150.5000 129.2500 Du        
  27871 ****       119.2500 150.5000 129.5000 Du        
  27872 ****       119.2500 150.5000 129.7500 Du        
  27873 ****       119.2500 150.5000 130.0000 Du        
  27874 ****       119.2500 150.5000 130.2500 Du        
  27875 ****       119.2500 150.7500 128.5000 Du        
  27876 ****       119.2500 150.7500 128.7500 Du        
  27877 ****       119.2500 150.7500 129.0000 Du        
  27878 ****       119.2500 150.7500 129.2500 Du        
  27879 ****       119.2500 150.7500 129.5000 Du        
  27880 ****       119.2500 150.7500 129.7500 Du        
  27881 ****       119.2500 150.7500 130.0000 Du        
  27882 ****       119.2500 150.7500 130.2500 Du        
  27883 ****       119.2500 151.0000 128.7500 Du        
  27884 ****       119.2500 151.0000 129.0000 Du        
  27885 ****       119.2500 151.0000 129.2500 Du        
  27886 ****       119.2500 151.0000 129.5000 Du        
  27887 ****       119.2500 151.0000 129.7500 Du        
  27888 ****       119.2500 151.0000 130.0000 Du        
  27889 ****       119.2500 151.0000 130.2500 Du        
  27890 ****       119.2500 151.0000 130.5000 Du        
  27891 ****       119.2500 151.2500 128.7500 Du        
  27892 ****       119.2500 151.2500 129.0000 Du        
  27893 ****       119.2500 151.2500 129.2500 Du        
  27894 ****       119.2500 151.2500 129.5000 Du        
  27895 ****       119.2500 151.2500 129.7500 Du        
  27896 ****       119.2500 151.2500 130.0000 Du        
  27897 ****       119.2500 151.2500 130.2500 Du        
  27898 ****       119.2500 151.5000 128.7500 Du        
  27899 ****       119.2500 151.5000 129.0000 Du        
  27900 ****       119.2500 151.5000 129.2500 Du        
  27901 ****       119.2500 151.5000 129.5000 Du        
  27902 ****       119.2500 151.5000 129.7500 Du        
  27903 ****       119.2500 151.7500 128.7500 Du        
  27904 ****       119.2500 151.7500 129.0000 Du        
  27905 ****       119.2500 151.7500 129.2500 Du        
  27906 ****       119.2500 151.7500 132.5000 Du        
  27907 ****       119.2500 151.7500 132.7500 Du        
  27908 ****       119.2500 152.0000 128.7500 Du        
  27909 ****       119.2500 152.0000 129.0000 Du        
  27910 ****       119.2500 152.0000 129.2500 Du        
  27911 ****       119.2500 152.0000 132.7500 Du        
  27912 ****       119.2500 152.2500 128.5000 Du        
  27913 ****       119.2500 152.2500 128.7500 Du        
  27914 ****       119.2500 152.2500 129.0000 Du        
  27915 ****       119.2500 152.5000 128.5000 Du        
  27916 ****       119.2500 152.5000 128.7500 Du        
  27917 ****       119.2500 153.5000 127.5000 Du        
  27918 ****       119.2500 153.5000 127.7500 Du        
  27919 ****       119.2500 153.5000 128.0000 Du        
  27920 ****       119.2500 153.5000 128.2500 Du        
  27921 ****       119.2500 153.7500 127.2500 Du        
  27922 ****       119.2500 153.7500 127.5000 Du        
  27923 ****       119.2500 153.7500 127.7500 Du        
  27924 ****       119.2500 153.7500 128.0000 Du        
  27925 ****       119.2500 153.7500 128.2500 Du        
  27926 ****       119.2500 154.0000 127.0000 Du        
  27927 ****       119.2500 154.0000 127.2500 Du        
  27928 ****       119.2500 154.0000 127.5000 Du        
  27929 ****       119.2500 154.0000 127.7500 Du        
  27930 ****       119.2500 154.0000 128.0000 Du        
  27931 ****       119.2500 154.0000 128.2500 Du        
  27932 ****       119.2500 154.2500 127.0000 Du        
  27933 ****       119.2500 154.2500 127.2500 Du        
  27934 ****       119.2500 154.2500 127.5000 Du        
  27935 ****       119.2500 154.2500 127.7500 Du        
  27936 ****       119.2500 154.2500 128.0000 Du        
  27937 ****       119.2500 154.2500 128.2500 Du        
  27938 ****       119.2500 154.5000 127.0000 Du        
  27939 ****       119.2500 154.5000 127.2500 Du        
  27940 ****       119.2500 154.5000 127.5000 Du        
  27941 ****       119.2500 154.5000 127.7500 Du        
  27942 ****       119.2500 154.5000 128.0000 Du        
  27943 ****       119.2500 154.5000 128.2500 Du        
  27944 ****       119.2500 154.5000 137.2500 Du        
  27945 ****       119.2500 154.5000 137.5000 Du        
  27946 ****       119.2500 154.5000 137.7500 Du        
  27947 ****       119.2500 154.5000 138.0000 Du        
  27948 ****       119.2500 154.5000 138.2500 Du        
  27949 ****       119.2500 154.5000 138.5000 Du        
  27950 ****       119.2500 154.7500 127.0000 Du        
  27951 ****       119.2500 154.7500 127.2500 Du        
  27952 ****       119.2500 154.7500 127.5000 Du        
  27953 ****       119.2500 154.7500 127.7500 Du        
  27954 ****       119.2500 154.7500 128.0000 Du        
  27955 ****       119.2500 154.7500 137.0000 Du        
  27956 ****       119.2500 154.7500 137.2500 Du        
  27957 ****       119.2500 154.7500 137.5000 Du        
  27958 ****       119.2500 154.7500 137.7500 Du        
  27959 ****       119.2500 154.7500 138.0000 Du        
  27960 ****       119.2500 154.7500 138.2500 Du        
  27961 ****       119.2500 154.7500 138.5000 Du        
  27962 ****       119.2500 155.0000 127.0000 Du        
  27963 ****       119.2500 155.0000 127.2500 Du        
  27964 ****       119.2500 155.0000 127.5000 Du        
  27965 ****       119.2500 155.0000 127.7500 Du        
  27966 ****       119.2500 155.0000 137.0000 Du        
  27967 ****       119.2500 155.0000 137.2500 Du        
  27968 ****       119.2500 155.0000 137.5000 Du        
  27969 ****       119.2500 155.0000 137.7500 Du        
  27970 ****       119.2500 155.0000 138.0000 Du        
  27971 ****       119.2500 155.0000 138.2500 Du        
  27972 ****       119.2500 155.2500 127.0000 Du        
  27973 ****       119.2500 155.2500 127.2500 Du        
  27974 ****       119.2500 155.2500 127.5000 Du        
  27975 ****       119.2500 155.2500 127.7500 Du        
  27976 ****       119.2500 155.2500 137.2500 Du        
  27977 ****       119.2500 155.2500 137.5000 Du        
  27978 ****       119.2500 155.2500 137.7500 Du        
  27979 ****       119.2500 155.2500 138.0000 Du        
  27980 ****       119.2500 155.5000 127.0000 Du        
  27981 ****       119.2500 155.5000 127.2500 Du        
  27982 ****       119.2500 155.5000 127.5000 Du        
  27983 ****       119.2500 155.5000 137.7500 Du        
  27984 ****       119.2500 155.7500 127.0000 Du        
  27985 ****       119.2500 155.7500 127.2500 Du        
  27986 ****       119.2500 156.0000 126.7500 Du        
  27987 ****       119.2500 156.0000 127.0000 Du        
  27988 ****       119.2500 156.0000 127.2500 Du        
  27989 ****       119.2500 156.2500 126.7500 Du        
  27990 ****       119.2500 156.2500 127.0000 Du        
  27991 ****       119.2500 156.2500 127.2500 Du        
  27992 ****       119.2500 156.5000 126.7500 Du        
  27993 ****       119.2500 156.5000 127.0000 Du        
  27994 ****       119.2500 156.7500 126.7500 Du        
  27995 ****       119.2500 156.7500 127.0000 Du        
  27996 ****       119.5000 135.0000 145.0000 Du        
  27997 ****       119.5000 135.2500 145.0000 Du        
  27998 ****       119.5000 136.0000 145.0000 Du        
  27999 ****       119.5000 136.0000 145.2500 Du        
  28000 ****       119.5000 136.2500 145.0000 Du        
  28001 ****       119.5000 136.2500 145.2500 Du        
  28002 ****       119.5000 136.5000 130.0000 Du        
  28003 ****       119.5000 136.5000 130.2500 Du        
  28004 ****       119.5000 136.5000 131.2500 Du        
  28005 ****       119.5000 136.5000 145.0000 Du        
  28006 ****       119.5000 136.5000 145.2500 Du        
  28007 ****       119.5000 136.7500 129.7500 Du        
  28008 ****       119.5000 136.7500 130.0000 Du        
  28009 ****       119.5000 136.7500 130.2500 Du        
  28010 ****       119.5000 136.7500 130.5000 Du        
  28011 ****       119.5000 136.7500 130.7500 Du        
  28012 ****       119.5000 136.7500 131.0000 Du        
  28013 ****       119.5000 136.7500 131.2500 Du        
  28014 ****       119.5000 136.7500 131.5000 Du        
  28015 ****       119.5000 136.7500 131.7500 Du        
  28016 ****       119.5000 136.7500 144.7500 Du        
  28017 ****       119.5000 136.7500 145.0000 Du        
  28018 ****       119.5000 136.7500 145.2500 Du        
  28019 ****       119.5000 137.0000 129.7500 Du        
  28020 ****       119.5000 137.0000 130.0000 Du        
  28021 ****       119.5000 137.0000 130.2500 Du        
  28022 ****       119.5000 137.0000 130.5000 Du        
  28023 ****       119.5000 137.0000 130.7500 Du        
  28024 ****       119.5000 137.0000 131.0000 Du        
  28025 ****       119.5000 137.0000 131.2500 Du        
  28026 ****       119.5000 137.0000 131.5000 Du        
  28027 ****       119.5000 137.0000 131.7500 Du        
  28028 ****       119.5000 137.0000 144.7500 Du        
  28029 ****       119.5000 137.0000 145.0000 Du        
  28030 ****       119.5000 137.0000 145.2500 Du        
  28031 ****       119.5000 137.2500 129.7500 Du        
  28032 ****       119.5000 137.2500 130.0000 Du        
  28033 ****       119.5000 137.2500 130.2500 Du        
  28034 ****       119.5000 137.2500 130.5000 Du        
  28035 ****       119.5000 137.2500 130.7500 Du        
  28036 ****       119.5000 137.2500 131.0000 Du        
  28037 ****       119.5000 137.2500 131.2500 Du        
  28038 ****       119.5000 137.2500 131.5000 Du        
  28039 ****       119.5000 137.2500 131.7500 Du        
  28040 ****       119.5000 137.2500 132.0000 Du        
  28041 ****       119.5000 137.5000 129.2500 Du        
  28042 ****       119.5000 137.5000 129.5000 Du        
  28043 ****       119.5000 137.5000 129.7500 Du        
  28044 ****       119.5000 137.5000 130.0000 Du        
  28045 ****       119.5000 137.5000 130.2500 Du        
  28046 ****       119.5000 137.5000 130.5000 Du        
  28047 ****       119.5000 137.5000 130.7500 Du        
  28048 ****       119.5000 137.5000 131.0000 Du        
  28049 ****       119.5000 137.5000 131.2500 Du        
  28050 ****       119.5000 137.5000 131.5000 Du        
  28051 ****       119.5000 137.5000 131.7500 Du        
  28052 ****       119.5000 137.5000 132.0000 Du        
  28053 ****       119.5000 137.7500 129.2500 Du        
  28054 ****       119.5000 137.7500 129.5000 Du        
  28055 ****       119.5000 137.7500 129.7500 Du        
  28056 ****       119.5000 137.7500 130.0000 Du        
  28057 ****       119.5000 137.7500 130.2500 Du        
  28058 ****       119.5000 137.7500 130.5000 Du        
  28059 ****       119.5000 137.7500 130.7500 Du        
  28060 ****       119.5000 137.7500 131.0000 Du        
  28061 ****       119.5000 137.7500 131.2500 Du        
  28062 ****       119.5000 137.7500 131.5000 Du        
  28063 ****       119.5000 137.7500 131.7500 Du        
  28064 ****       119.5000 137.7500 132.0000 Du        
  28065 ****       119.5000 137.7500 132.2500 Du        
  28066 ****       119.5000 138.0000 129.5000 Du        
  28067 ****       119.5000 138.0000 129.7500 Du        
  28068 ****       119.5000 138.0000 130.0000 Du        
  28069 ****       119.5000 138.0000 130.2500 Du        
  28070 ****       119.5000 138.0000 130.5000 Du        
  28071 ****       119.5000 138.0000 130.7500 Du        
  28072 ****       119.5000 138.0000 131.0000 Du        
  28073 ****       119.5000 138.0000 131.2500 Du        
  28074 ****       119.5000 138.0000 131.5000 Du        
  28075 ****       119.5000 138.0000 131.7500 Du        
  28076 ****       119.5000 138.0000 132.0000 Du        
  28077 ****       119.5000 138.0000 132.2500 Du        
  28078 ****       119.5000 138.2500 129.7500 Du        
  28079 ****       119.5000 138.2500 130.0000 Du        
  28080 ****       119.5000 138.2500 130.2500 Du        
  28081 ****       119.5000 138.2500 130.5000 Du        
  28082 ****       119.5000 138.2500 130.7500 Du        
  28083 ****       119.5000 138.2500 131.0000 Du        
  28084 ****       119.5000 138.2500 131.2500 Du        
  28085 ****       119.5000 138.2500 131.5000 Du        
  28086 ****       119.5000 138.2500 131.7500 Du        
  28087 ****       119.5000 138.2500 132.0000 Du        
  28088 ****       119.5000 138.2500 132.2500 Du        
  28089 ****       119.5000 138.5000 130.2500 Du        
  28090 ****       119.5000 138.5000 130.5000 Du        
  28091 ****       119.5000 138.5000 130.7500 Du        
  28092 ****       119.5000 138.5000 131.0000 Du        
  28093 ****       119.5000 138.5000 131.2500 Du        
  28094 ****       119.5000 138.5000 131.5000 Du        
  28095 ****       119.5000 138.5000 131.7500 Du        
  28096 ****       119.5000 138.5000 132.0000 Du        
  28097 ****       119.5000 138.5000 132.2500 Du        
  28098 ****       119.5000 138.7500 130.2500 Du        
  28099 ****       119.5000 138.7500 130.5000 Du        
  28100 ****       119.5000 138.7500 130.7500 Du        
  28101 ****       119.5000 138.7500 131.0000 Du        
  28102 ****       119.5000 138.7500 131.2500 Du        
  28103 ****       119.5000 138.7500 131.5000 Du        
  28104 ****       119.5000 138.7500 131.7500 Du        
  28105 ****       119.5000 138.7500 132.0000 Du        
  28106 ****       119.5000 138.7500 132.2500 Du        
  28107 ****       119.5000 139.0000 130.7500 Du        
  28108 ****       119.5000 139.0000 131.0000 Du        
  28109 ****       119.5000 139.0000 131.2500 Du        
  28110 ****       119.5000 139.0000 131.5000 Du        
  28111 ****       119.5000 139.0000 131.7500 Du        
  28112 ****       119.5000 139.0000 132.0000 Du        
  28113 ****       119.5000 139.0000 132.2500 Du        
  28114 ****       119.5000 139.0000 132.5000 Du        
  28115 ****       119.5000 139.2500 131.0000 Du        
  28116 ****       119.5000 139.2500 131.2500 Du        
  28117 ****       119.5000 139.2500 131.5000 Du        
  28118 ****       119.5000 139.2500 131.7500 Du        
  28119 ****       119.5000 139.2500 132.0000 Du        
  28120 ****       119.5000 139.2500 132.2500 Du        
  28121 ****       119.5000 139.2500 132.5000 Du        
  28122 ****       119.5000 139.2500 132.7500 Du        
  28123 ****       119.5000 139.5000 131.2500 Du        
  28124 ****       119.5000 139.5000 131.5000 Du        
  28125 ****       119.5000 139.5000 131.7500 Du        
  28126 ****       119.5000 139.5000 132.0000 Du        
  28127 ****       119.5000 139.5000 132.2500 Du        
  28128 ****       119.5000 139.5000 132.5000 Du        
  28129 ****       119.5000 139.5000 132.7500 Du        
  28130 ****       119.5000 139.7500 131.7500 Du        
  28131 ****       119.5000 139.7500 132.0000 Du        
  28132 ****       119.5000 139.7500 132.2500 Du        
  28133 ****       119.5000 139.7500 132.5000 Du        
  28134 ****       119.5000 139.7500 132.7500 Du        
  28135 ****       119.5000 140.0000 131.7500 Du        
  28136 ****       119.5000 140.0000 132.0000 Du        
  28137 ****       119.5000 140.0000 132.2500 Du        
  28138 ****       119.5000 140.0000 132.5000 Du        
  28139 ****       119.5000 140.0000 132.7500 Du        
  28140 ****       119.5000 140.0000 133.0000 Du        
  28141 ****       119.5000 140.2500 132.0000 Du        
  28142 ****       119.5000 140.2500 132.2500 Du        
  28143 ****       119.5000 140.2500 132.5000 Du        
  28144 ****       119.5000 140.2500 132.7500 Du        
  28145 ****       119.5000 140.2500 133.0000 Du        
  28146 ****       119.5000 140.5000 132.2500 Du        
  28147 ****       119.5000 140.5000 132.5000 Du        
  28148 ****       119.5000 140.5000 132.7500 Du        
  28149 ****       119.5000 140.5000 133.0000 Du        
  28150 ****       119.5000 140.7500 132.5000 Du        
  28151 ****       119.5000 140.7500 132.7500 Du        
  28152 ****       119.5000 140.7500 133.0000 Du        
  28153 ****       119.5000 141.0000 132.5000 Du        
  28154 ****       119.5000 141.0000 132.7500 Du        
  28155 ****       119.5000 141.0000 133.0000 Du        
  28156 ****       119.5000 141.2500 132.7500 Du        
  28157 ****       119.5000 141.2500 133.0000 Du        
  28158 ****       119.5000 141.2500 133.2500 Du        
  28159 ****       119.5000 141.5000 132.7500 Du        
  28160 ****       119.5000 141.5000 133.0000 Du        
  28161 ****       119.5000 141.5000 133.2500 Du        
  28162 ****       119.5000 141.7500 124.2500 Du        
  28163 ****       119.5000 141.7500 124.5000 Du        
  28164 ****       119.5000 141.7500 132.7500 Du        
  28165 ****       119.5000 141.7500 133.0000 Du        
  28166 ****       119.5000 141.7500 133.2500 Du        
  28167 ****       119.5000 141.7500 137.7500 Du        
  28168 ****       119.5000 141.7500 138.0000 Du        
  28169 ****       119.5000 142.0000 124.2500 Du        
  28170 ****       119.5000 142.0000 124.5000 Du        
  28171 ****       119.5000 142.0000 124.7500 Du        
  28172 ****       119.5000 142.0000 137.2500 Du        
  28173 ****       119.5000 142.0000 137.5000 Du        
  28174 ****       119.5000 142.0000 137.7500 Du        
  28175 ****       119.5000 142.0000 138.0000 Du        
  28176 ****       119.5000 142.2500 124.0000 Du        
  28177 ****       119.5000 142.2500 124.2500 Du        
  28178 ****       119.5000 142.2500 124.5000 Du        
  28179 ****       119.5000 142.2500 124.7500 Du        
  28180 ****       119.5000 142.2500 125.0000 Du        
  28181 ****       119.5000 142.2500 137.0000 Du        
  28182 ****       119.5000 142.2500 137.2500 Du        
  28183 ****       119.5000 142.2500 137.5000 Du        
  28184 ****       119.5000 142.2500 137.7500 Du        
  28185 ****       119.5000 142.5000 124.0000 Du        
  28186 ****       119.5000 142.5000 124.2500 Du        
  28187 ****       119.5000 142.5000 124.5000 Du        
  28188 ****       119.5000 142.5000 124.7500 Du        
  28189 ****       119.5000 142.5000 125.0000 Du        
  28190 ****       119.5000 142.5000 125.2500 Du        
  28191 ****       119.5000 142.5000 137.0000 Du        
  28192 ****       119.5000 142.5000 137.2500 Du        
  28193 ****       119.5000 142.5000 137.5000 Du        
  28194 ****       119.5000 142.5000 137.7500 Du        
  28195 ****       119.5000 142.7500 117.5000 Du        
  28196 ****       119.5000 142.7500 124.0000 Du        
  28197 ****       119.5000 142.7500 124.2500 Du        
  28198 ****       119.5000 142.7500 124.5000 Du        
  28199 ****       119.5000 142.7500 124.7500 Du        
  28200 ****       119.5000 142.7500 125.0000 Du        
  28201 ****       119.5000 142.7500 125.2500 Du        
  28202 ****       119.5000 142.7500 125.5000 Du        
  28203 ****       119.5000 142.7500 136.7500 Du        
  28204 ****       119.5000 142.7500 137.0000 Du        
  28205 ****       119.5000 142.7500 137.2500 Du        
  28206 ****       119.5000 142.7500 137.5000 Du        
  28207 ****       119.5000 142.7500 137.7500 Du        
  28208 ****       119.5000 143.0000 117.5000 Du        
  28209 ****       119.5000 143.0000 124.5000 Du        
  28210 ****       119.5000 143.0000 124.7500 Du        
  28211 ****       119.5000 143.0000 125.0000 Du        
  28212 ****       119.5000 143.0000 125.2500 Du        
  28213 ****       119.5000 143.0000 125.5000 Du        
  28214 ****       119.5000 143.0000 125.7500 Du        
  28215 ****       119.5000 143.0000 137.0000 Du        
  28216 ****       119.5000 143.0000 137.2500 Du        
  28217 ****       119.5000 143.2500 125.0000 Du        
  28218 ****       119.5000 143.2500 125.2500 Du        
  28219 ****       119.5000 143.2500 125.5000 Du        
  28220 ****       119.5000 143.2500 125.7500 Du        
  28221 ****       119.5000 143.2500 132.2500 Du        
  28222 ****       119.5000 143.5000 125.2500 Du        
  28223 ****       119.5000 143.5000 125.5000 Du        
  28224 ****       119.5000 143.5000 125.7500 Du        
  28225 ****       119.5000 147.5000 119.0000 Du        
  28226 ****       119.5000 147.7500 119.0000 Du        
  28227 ****       119.5000 147.7500 119.2500 Du        
  28228 ****       119.5000 148.0000 109.5000 Du        
  28229 ****       119.5000 148.0000 118.7500 Du        
  28230 ****       119.5000 148.0000 119.0000 Du        
  28231 ****       119.5000 148.0000 119.2500 Du        
  28232 ****       119.5000 148.0000 128.2500 Du        
  28233 ****       119.5000 148.0000 128.7500 Du        
  28234 ****       119.5000 148.2500 108.7500 Du        
  28235 ****       119.5000 148.2500 109.0000 Du        
  28236 ****       119.5000 148.2500 109.2500 Du        
  28237 ****       119.5000 148.2500 109.5000 Du        
  28238 ****       119.5000 148.2500 109.7500 Du        
  28239 ****       119.5000 148.2500 110.0000 Du        
  28240 ****       119.5000 148.2500 110.2500 Du        
  28241 ****       119.5000 148.2500 110.5000 Du        
  28242 ****       119.5000 148.2500 110.7500 Du        
  28243 ****       119.5000 148.2500 118.7500 Du        
  28244 ****       119.5000 148.2500 119.0000 Du        
  28245 ****       119.5000 148.2500 119.2500 Du        
  28246 ****       119.5000 148.2500 128.0000 Du        
  28247 ****       119.5000 148.2500 128.2500 Du        
  28248 ****       119.5000 148.2500 128.5000 Du        
  28249 ****       119.5000 148.2500 128.7500 Du        
  28250 ****       119.5000 148.2500 129.0000 Du        
  28251 ****       119.5000 148.2500 129.2500 Du        
  28252 ****       119.5000 148.5000 109.0000 Du        
  28253 ****       119.5000 148.5000 109.2500 Du        
  28254 ****       119.5000 148.5000 109.5000 Du        
  28255 ****       119.5000 148.5000 109.7500 Du        
  28256 ****       119.5000 148.5000 110.0000 Du        
  28257 ****       119.5000 148.5000 110.2500 Du        
  28258 ****       119.5000 148.5000 110.5000 Du        
  28259 ****       119.5000 148.5000 110.7500 Du        
  28260 ****       119.5000 148.5000 128.0000 Du        
  28261 ****       119.5000 148.5000 128.2500 Du        
  28262 ****       119.5000 148.5000 128.5000 Du        
  28263 ****       119.5000 148.5000 128.7500 Du        
  28264 ****       119.5000 148.5000 129.0000 Du        
  28265 ****       119.5000 148.5000 129.2500 Du        
  28266 ****       119.5000 148.7500 109.0000 Du        
  28267 ****       119.5000 148.7500 109.2500 Du        
  28268 ****       119.5000 148.7500 109.5000 Du        
  28269 ****       119.5000 148.7500 109.7500 Du        
  28270 ****       119.5000 148.7500 110.0000 Du        
  28271 ****       119.5000 148.7500 110.2500 Du        
  28272 ****       119.5000 148.7500 110.5000 Du        
  28273 ****       119.5000 148.7500 110.7500 Du        
  28274 ****       119.5000 148.7500 128.0000 Du        
  28275 ****       119.5000 148.7500 128.2500 Du        
  28276 ****       119.5000 148.7500 128.5000 Du        
  28277 ****       119.5000 148.7500 128.7500 Du        
  28278 ****       119.5000 148.7500 129.0000 Du        
  28279 ****       119.5000 148.7500 129.2500 Du        
  28280 ****       119.5000 148.7500 129.5000 Du        
  28281 ****       119.5000 149.0000 109.0000 Du        
  28282 ****       119.5000 149.0000 109.2500 Du        
  28283 ****       119.5000 149.0000 109.5000 Du        
  28284 ****       119.5000 149.0000 109.7500 Du        
  28285 ****       119.5000 149.0000 110.0000 Du        
  28286 ****       119.5000 149.0000 110.2500 Du        
  28287 ****       119.5000 149.0000 110.5000 Du        
  28288 ****       119.5000 149.0000 110.7500 Du        
  28289 ****       119.5000 149.0000 128.0000 Du        
  28290 ****       119.5000 149.0000 128.2500 Du        
  28291 ****       119.5000 149.0000 128.5000 Du        
  28292 ****       119.5000 149.0000 128.7500 Du        
  28293 ****       119.5000 149.0000 129.0000 Du        
  28294 ****       119.5000 149.0000 129.2500 Du        
  28295 ****       119.5000 149.0000 129.5000 Du        
  28296 ****       119.5000 149.2500 109.0000 Du        
  28297 ****       119.5000 149.2500 109.2500 Du        
  28298 ****       119.5000 149.2500 109.5000 Du        
  28299 ****       119.5000 149.2500 109.7500 Du        
  28300 ****       119.5000 149.2500 110.0000 Du        
  28301 ****       119.5000 149.2500 110.2500 Du        
  28302 ****       119.5000 149.2500 110.5000 Du        
  28303 ****       119.5000 149.2500 128.2500 Du        
  28304 ****       119.5000 149.2500 128.5000 Du        
  28305 ****       119.5000 149.2500 128.7500 Du        
  28306 ****       119.5000 149.2500 129.0000 Du        
  28307 ****       119.5000 149.2500 129.2500 Du        
  28308 ****       119.5000 149.2500 129.5000 Du        
  28309 ****       119.5000 149.5000 109.0000 Du        
  28310 ****       119.5000 149.5000 109.2500 Du        
  28311 ****       119.5000 149.5000 109.5000 Du        
  28312 ****       119.5000 149.5000 109.7500 Du        
  28313 ****       119.5000 149.5000 110.0000 Du        
  28314 ****       119.5000 149.5000 110.2500 Du        
  28315 ****       119.5000 149.5000 110.5000 Du        
  28316 ****       119.5000 149.5000 128.2500 Du        
  28317 ****       119.5000 149.5000 128.5000 Du        
  28318 ****       119.5000 149.5000 128.7500 Du        
  28319 ****       119.5000 149.5000 129.0000 Du        
  28320 ****       119.5000 149.5000 129.2500 Du        
  28321 ****       119.5000 149.7500 109.0000 Du        
  28322 ****       119.5000 149.7500 109.2500 Du        
  28323 ****       119.5000 149.7500 109.5000 Du        
  28324 ****       119.5000 149.7500 109.7500 Du        
  28325 ****       119.5000 149.7500 110.0000 Du        
  28326 ****       119.5000 149.7500 110.2500 Du        
  28327 ****       119.5000 149.7500 128.2500 Du        
  28328 ****       119.5000 149.7500 128.5000 Du        
  28329 ****       119.5000 149.7500 128.7500 Du        
  28330 ****       119.5000 149.7500 129.0000 Du        
  28331 ****       119.5000 149.7500 129.2500 Du        
  28332 ****       119.5000 150.0000 109.2500 Du        
  28333 ****       119.5000 150.0000 109.5000 Du        
  28334 ****       119.5000 150.0000 109.7500 Du        
  28335 ****       119.5000 150.0000 110.0000 Du        
  28336 ****       119.5000 150.0000 110.2500 Du        
  28337 ****       119.5000 150.0000 128.5000 Du        
  28338 ****       119.5000 150.0000 128.7500 Du        
  28339 ****       119.5000 150.0000 129.0000 Du        
  28340 ****       119.5000 150.0000 129.2500 Du        
  28341 ****       119.5000 150.2500 109.5000 Du        
  28342 ****       119.5000 150.2500 109.7500 Du        
  28343 ****       119.5000 150.2500 110.0000 Du        
  28344 ****       119.5000 150.2500 128.5000 Du        
  28345 ****       119.5000 150.2500 128.7500 Du        
  28346 ****       119.5000 150.2500 129.0000 Du        
  28347 ****       119.5000 150.2500 129.2500 Du        
  28348 ****       119.5000 150.5000 109.5000 Du        
  28349 ****       119.5000 150.5000 109.7500 Du        
  28350 ****       119.5000 150.5000 129.0000 Du        
  28351 ****       119.5000 150.5000 129.2500 Du        
  28352 ****       119.5000 150.7500 129.0000 Du        
  28353 ****       119.5000 151.0000 128.7500 Du        
  28354 ****       119.5000 151.0000 129.0000 Du        
  28355 ****       119.5000 151.0000 129.2500 Du        
  28356 ****       119.5000 151.2500 128.7500 Du        
  28357 ****       119.5000 151.2500 129.0000 Du        
  28358 ****       119.5000 151.2500 129.2500 Du        
  28359 ****       119.5000 151.2500 129.5000 Du        
  28360 ****       119.5000 151.5000 129.0000 Du        
  28361 ****       119.5000 151.5000 129.2500 Du        
  28362 ****       119.5000 151.5000 129.5000 Du        
  28363 ****       119.5000 151.7500 128.7500 Du        
  28364 ****       119.5000 151.7500 129.0000 Du        
  28365 ****       119.5000 151.7500 129.2500 Du        
  28366 ****       119.5000 151.7500 129.5000 Du        
  28367 ****       119.5000 152.0000 128.7500 Du        
  28368 ****       119.5000 152.0000 129.0000 Du        
  28369 ****       119.5000 152.0000 129.2500 Du        
  28370 ****       119.5000 152.2500 128.5000 Du        
  28371 ****       119.5000 152.2500 128.7500 Du        
  28372 ****       119.5000 152.2500 129.0000 Du        
  28373 ****       119.5000 152.5000 128.2500 Du        
  28374 ****       119.5000 152.5000 128.5000 Du        
  28375 ****       119.5000 152.5000 128.7500 Du        
  28376 ****       119.5000 152.5000 129.0000 Du        
  28377 ****       119.5000 152.7500 128.0000 Du        
  28378 ****       119.5000 152.7500 128.2500 Du        
  28379 ****       119.5000 152.7500 128.5000 Du        
  28380 ****       119.5000 152.7500 128.7500 Du        
  28381 ****       119.5000 152.7500 129.0000 Du        
  28382 ****       119.5000 153.0000 128.0000 Du        
  28383 ****       119.5000 153.0000 128.2500 Du        
  28384 ****       119.5000 153.0000 128.5000 Du        
  28385 ****       119.5000 153.0000 128.7500 Du        
  28386 ****       119.5000 153.2500 127.5000 Du        
  28387 ****       119.5000 153.2500 127.7500 Du        
  28388 ****       119.5000 153.2500 128.0000 Du        
  28389 ****       119.5000 153.2500 128.2500 Du        
  28390 ****       119.5000 153.2500 128.5000 Du        
  28391 ****       119.5000 153.2500 128.7500 Du        
  28392 ****       119.5000 153.5000 127.2500 Du        
  28393 ****       119.5000 153.5000 127.5000 Du        
  28394 ****       119.5000 153.5000 127.7500 Du        
  28395 ****       119.5000 153.5000 128.0000 Du        
  28396 ****       119.5000 153.5000 128.2500 Du        
  28397 ****       119.5000 153.5000 128.5000 Du        
  28398 ****       119.5000 153.5000 128.7500 Du        
  28399 ****       119.5000 153.7500 127.0000 Du        
  28400 ****       119.5000 153.7500 127.2500 Du        
  28401 ****       119.5000 153.7500 127.5000 Du        
  28402 ****       119.5000 153.7500 127.7500 Du        
  28403 ****       119.5000 153.7500 128.0000 Du        
  28404 ****       119.5000 153.7500 128.2500 Du        
  28405 ****       119.5000 153.7500 128.5000 Du        
  28406 ****       119.5000 153.7500 128.7500 Du        
  28407 ****       119.5000 154.0000 126.7500 Du        
  28408 ****       119.5000 154.0000 127.0000 Du        
  28409 ****       119.5000 154.0000 127.2500 Du        
  28410 ****       119.5000 154.0000 127.5000 Du        
  28411 ****       119.5000 154.0000 127.7500 Du        
  28412 ****       119.5000 154.0000 128.0000 Du        
  28413 ****       119.5000 154.0000 128.2500 Du        
  28414 ****       119.5000 154.0000 128.5000 Du        
  28415 ****       119.5000 154.2500 126.7500 Du        
  28416 ****       119.5000 154.2500 127.0000 Du        
  28417 ****       119.5000 154.2500 127.2500 Du        
  28418 ****       119.5000 154.2500 127.5000 Du        
  28419 ****       119.5000 154.2500 127.7500 Du        
  28420 ****       119.5000 154.2500 128.0000 Du        
  28421 ****       119.5000 154.2500 128.2500 Du        
  28422 ****       119.5000 154.2500 128.5000 Du        
  28423 ****       119.5000 154.5000 126.7500 Du        
  28424 ****       119.5000 154.5000 127.0000 Du        
  28425 ****       119.5000 154.5000 127.2500 Du        
  28426 ****       119.5000 154.5000 127.5000 Du        
  28427 ****       119.5000 154.5000 127.7500 Du        
  28428 ****       119.5000 154.5000 128.0000 Du        
  28429 ****       119.5000 154.5000 128.2500 Du        
  28430 ****       119.5000 154.5000 137.0000 Du        
  28431 ****       119.5000 154.5000 137.2500 Du        
  28432 ****       119.5000 154.5000 137.5000 Du        
  28433 ****       119.5000 154.5000 137.7500 Du        
  28434 ****       119.5000 154.5000 138.0000 Du        
  28435 ****       119.5000 154.5000 138.2500 Du        
  28436 ****       119.5000 154.5000 138.5000 Du        
  28437 ****       119.5000 154.7500 126.7500 Du        
  28438 ****       119.5000 154.7500 127.0000 Du        
  28439 ****       119.5000 154.7500 127.2500 Du        
  28440 ****       119.5000 154.7500 127.5000 Du        
  28441 ****       119.5000 154.7500 127.7500 Du        
  28442 ****       119.5000 154.7500 128.0000 Du        
  28443 ****       119.5000 154.7500 136.7500 Du        
  28444 ****       119.5000 154.7500 137.0000 Du        
  28445 ****       119.5000 154.7500 137.2500 Du        
  28446 ****       119.5000 154.7500 137.5000 Du        
  28447 ****       119.5000 154.7500 137.7500 Du        
  28448 ****       119.5000 154.7500 138.0000 Du        
  28449 ****       119.5000 154.7500 138.2500 Du        
  28450 ****       119.5000 154.7500 138.5000 Du        
  28451 ****       119.5000 155.0000 126.7500 Du        
  28452 ****       119.5000 155.0000 127.0000 Du        
  28453 ****       119.5000 155.0000 127.2500 Du        
  28454 ****       119.5000 155.0000 127.5000 Du        
  28455 ****       119.5000 155.0000 127.7500 Du        
  28456 ****       119.5000 155.0000 136.7500 Du        
  28457 ****       119.5000 155.0000 137.0000 Du        
  28458 ****       119.5000 155.0000 137.2500 Du        
  28459 ****       119.5000 155.0000 137.5000 Du        
  28460 ****       119.5000 155.0000 137.7500 Du        
  28461 ****       119.5000 155.0000 138.0000 Du        
  28462 ****       119.5000 155.0000 138.2500 Du        
  28463 ****       119.5000 155.0000 138.5000 Du        
  28464 ****       119.5000 155.2500 126.7500 Du        
  28465 ****       119.5000 155.2500 127.0000 Du        
  28466 ****       119.5000 155.2500 127.2500 Du        
  28467 ****       119.5000 155.2500 127.5000 Du        
  28468 ****       119.5000 155.2500 137.0000 Du        
  28469 ****       119.5000 155.2500 137.2500 Du        
  28470 ****       119.5000 155.2500 137.5000 Du        
  28471 ****       119.5000 155.2500 137.7500 Du        
  28472 ****       119.5000 155.2500 138.0000 Du        
  28473 ****       119.5000 155.2500 138.2500 Du        
  28474 ****       119.5000 155.5000 126.7500 Du        
  28475 ****       119.5000 155.5000 127.0000 Du        
  28476 ****       119.5000 155.5000 127.2500 Du        
  28477 ****       119.5000 155.5000 137.2500 Du        
  28478 ****       119.5000 155.5000 137.5000 Du        
  28479 ****       119.5000 155.5000 137.7500 Du        
  28480 ****       119.5000 155.5000 138.0000 Du        
  28481 ****       119.5000 155.7500 114.2500 Du        
  28482 ****       119.5000 155.7500 126.7500 Du        
  28483 ****       119.5000 155.7500 127.0000 Du        
  28484 ****       119.5000 155.7500 127.2500 Du        
  28485 ****       119.5000 156.0000 114.0000 Du        
  28486 ****       119.5000 156.0000 114.2500 Du        
  28487 ****       119.5000 156.0000 114.5000 Du        
  28488 ****       119.5000 156.0000 114.7500 Du        
  28489 ****       119.5000 156.0000 126.5000 Du        
  28490 ****       119.5000 156.0000 126.7500 Du        
  28491 ****       119.5000 156.0000 127.0000 Du        
  28492 ****       119.5000 156.2500 114.0000 Du        
  28493 ****       119.5000 156.2500 114.2500 Du        
  28494 ****       119.5000 156.2500 114.5000 Du        
  28495 ****       119.5000 156.2500 114.7500 Du        
  28496 ****       119.5000 156.2500 126.5000 Du        
  28497 ****       119.5000 156.2500 126.7500 Du        
  28498 ****       119.5000 156.2500 127.0000 Du        
  28499 ****       119.5000 156.5000 114.0000 Du        
  28500 ****       119.5000 156.5000 114.2500 Du        
  28501 ****       119.5000 156.5000 114.5000 Du        
  28502 ****       119.5000 156.5000 114.7500 Du        
  28503 ****       119.5000 156.5000 115.0000 Du        
  28504 ****       119.5000 156.5000 126.5000 Du        
  28505 ****       119.5000 156.5000 126.7500 Du        
  28506 ****       119.5000 156.5000 127.0000 Du        
  28507 ****       119.5000 156.7500 114.2500 Du        
  28508 ****       119.5000 156.7500 114.5000 Du        
  28509 ****       119.5000 156.7500 114.7500 Du        
  28510 ****       119.5000 156.7500 115.0000 Du        
  28511 ****       119.5000 156.7500 126.5000 Du        
  28512 ****       119.5000 156.7500 126.7500 Du        
  28513 ****       119.5000 156.7500 127.0000 Du        
  28514 ****       119.5000 157.0000 115.0000 Du        
  28515 ****       119.5000 157.0000 126.7500 Du        
  28516 ****       119.5000 159.2500 116.0000 Du        
  28517 ****       119.7500 134.5000 144.7500 Du        
  28518 ****       119.7500 134.5000 145.0000 Du        
  28519 ****       119.7500 134.7500 144.7500 Du        
  28520 ****       119.7500 134.7500 145.0000 Du        
  28521 ****       119.7500 135.0000 144.7500 Du        
  28522 ****       119.7500 135.0000 145.0000 Du        
  28523 ****       119.7500 135.2500 144.7500 Du        
  28524 ****       119.7500 135.2500 145.0000 Du        
  28525 ****       119.7500 135.5000 145.0000 Du        
  28526 ****       119.7500 135.5000 145.2500 Du        
  28527 ****       119.7500 135.7500 144.7500 Du        
  28528 ****       119.7500 135.7500 145.0000 Du        
  28529 ****       119.7500 135.7500 145.2500 Du        
  28530 ****       119.7500 136.0000 144.7500 Du        
  28531 ****       119.7500 136.0000 145.0000 Du        
  28532 ****       119.7500 136.0000 145.2500 Du        
  28533 ****       119.7500 136.2500 129.7500 Du        
  28534 ****       119.7500 136.2500 130.0000 Du        
  28535 ****       119.7500 136.2500 144.7500 Du        
  28536 ****       119.7500 136.2500 145.0000 Du        
  28537 ****       119.7500 136.2500 145.2500 Du        
  28538 ****       119.7500 136.5000 129.5000 Du        
  28539 ****       119.7500 136.5000 129.7500 Du        
  28540 ****       119.7500 136.5000 130.0000 Du        
  28541 ****       119.7500 136.5000 130.2500 Du        
  28542 ****       119.7500 136.5000 130.5000 Du        
  28543 ****       119.7500 136.5000 130.7500 Du        
  28544 ****       119.7500 136.5000 131.0000 Du        
  28545 ****       119.7500 136.5000 144.7500 Du        
  28546 ****       119.7500 136.5000 145.0000 Du        
  28547 ****       119.7500 136.5000 145.2500 Du        
  28548 ****       119.7500 136.7500 129.5000 Du        
  28549 ****       119.7500 136.7500 129.7500 Du        
  28550 ****       119.7500 136.7500 130.0000 Du        
  28551 ****       119.7500 136.7500 130.2500 Du        
  28552 ****       119.7500 136.7500 130.5000 Du        
  28553 ****       119.7500 136.7500 130.7500 Du        
  28554 ****       119.7500 136.7500 131.0000 Du        
  28555 ****       119.7500 136.7500 131.2500 Du        
  28556 ****       119.7500 136.7500 131.5000 Du        
  28557 ****       119.7500 136.7500 144.7500 Du        
  28558 ****       119.7500 136.7500 145.0000 Du        
  28559 ****       119.7500 136.7500 145.2500 Du        
  28560 ****       119.7500 137.0000 129.2500 Du        
  28561 ****       119.7500 137.0000 129.5000 Du        
  28562 ****       119.7500 137.0000 129.7500 Du        
  28563 ****       119.7500 137.0000 130.0000 Du        
  28564 ****       119.7500 137.0000 130.2500 Du        
  28565 ****       119.7500 137.0000 130.5000 Du        
  28566 ****       119.7500 137.0000 130.7500 Du        
  28567 ****       119.7500 137.0000 131.0000 Du        
  28568 ****       119.7500 137.0000 131.2500 Du        
  28569 ****       119.7500 137.0000 131.5000 Du        
  28570 ****       119.7500 137.0000 131.7500 Du        
  28571 ****       119.7500 137.0000 145.0000 Du        
  28572 ****       119.7500 137.0000 145.2500 Du        
  28573 ****       119.7500 137.2500 129.0000 Du        
  28574 ****       119.7500 137.2500 129.2500 Du        
  28575 ****       119.7500 137.2500 129.5000 Du        
  28576 ****       119.7500 137.2500 129.7500 Du        
  28577 ****       119.7500 137.2500 130.0000 Du        
  28578 ****       119.7500 137.2500 130.2500 Du        
  28579 ****       119.7500 137.2500 130.5000 Du        
  28580 ****       119.7500 137.2500 130.7500 Du        
  28581 ****       119.7500 137.2500 131.0000 Du        
  28582 ****       119.7500 137.2500 131.2500 Du        
  28583 ****       119.7500 137.2500 131.5000 Du        
  28584 ****       119.7500 137.2500 131.7500 Du        
  28585 ****       119.7500 137.5000 128.7500 Du        
  28586 ****       119.7500 137.5000 129.0000 Du        
  28587 ****       119.7500 137.5000 129.2500 Du        
  28588 ****       119.7500 137.5000 129.5000 Du        
  28589 ****       119.7500 137.5000 129.7500 Du        
  28590 ****       119.7500 137.5000 130.0000 Du        
  28591 ****       119.7500 137.5000 130.2500 Du        
  28592 ****       119.7500 137.5000 130.5000 Du        
  28593 ****       119.7500 137.5000 130.7500 Du        
  28594 ****       119.7500 137.5000 131.0000 Du        
  28595 ****       119.7500 137.5000 131.2500 Du        
  28596 ****       119.7500 137.5000 131.5000 Du        
  28597 ****       119.7500 137.5000 131.7500 Du        
  28598 ****       119.7500 137.7500 128.7500 Du        
  28599 ****       119.7500 137.7500 129.0000 Du        
  28600 ****       119.7500 137.7500 129.2500 Du        
  28601 ****       119.7500 137.7500 129.5000 Du        
  28602 ****       119.7500 137.7500 129.7500 Du        
  28603 ****       119.7500 137.7500 130.0000 Du        
  28604 ****       119.7500 137.7500 130.2500 Du        
  28605 ****       119.7500 137.7500 130.5000 Du        
  28606 ****       119.7500 137.7500 130.7500 Du        
  28607 ****       119.7500 137.7500 131.0000 Du        
  28608 ****       119.7500 137.7500 131.2500 Du        
  28609 ****       119.7500 137.7500 131.5000 Du        
  28610 ****       119.7500 137.7500 131.7500 Du        
  28611 ****       119.7500 138.0000 129.0000 Du        
  28612 ****       119.7500 138.0000 129.2500 Du        
  28613 ****       119.7500 138.0000 129.5000 Du        
  28614 ****       119.7500 138.0000 129.7500 Du        
  28615 ****       119.7500 138.0000 130.0000 Du        
  28616 ****       119.7500 138.0000 130.2500 Du        
  28617 ****       119.7500 138.0000 130.5000 Du        
  28618 ****       119.7500 138.0000 130.7500 Du        
  28619 ****       119.7500 138.0000 131.0000 Du        
  28620 ****       119.7500 138.0000 131.2500 Du        
  28621 ****       119.7500 138.0000 131.5000 Du        
  28622 ****       119.7500 138.0000 131.7500 Du        
  28623 ****       119.7500 138.2500 129.2500 Du        
  28624 ****       119.7500 138.2500 129.5000 Du        
  28625 ****       119.7500 138.2500 129.7500 Du        
  28626 ****       119.7500 138.2500 130.0000 Du        
  28627 ****       119.7500 138.2500 130.2500 Du        
  28628 ****       119.7500 138.2500 130.5000 Du        
  28629 ****       119.7500 138.2500 130.7500 Du        
  28630 ****       119.7500 138.2500 131.0000 Du        
  28631 ****       119.7500 138.2500 131.2500 Du        
  28632 ****       119.7500 138.2500 131.5000 Du        
  28633 ****       119.7500 138.2500 131.7500 Du        
  28634 ****       119.7500 138.5000 130.0000 Du        
  28635 ****       119.7500 138.5000 130.2500 Du        
  28636 ****       119.7500 138.5000 130.5000 Du        
  28637 ****       119.7500 138.5000 130.7500 Du        
  28638 ****       119.7500 138.5000 131.0000 Du        
  28639 ****       119.7500 138.5000 131.2500 Du        
  28640 ****       119.7500 138.5000 131.5000 Du        
  28641 ****       119.7500 138.7500 130.2500 Du        
  28642 ****       119.7500 138.7500 130.7500 Du        
  28643 ****       119.7500 138.7500 131.0000 Du        
  28644 ****       119.7500 139.7500 132.5000 Du        
  28645 ****       119.7500 140.0000 132.5000 Du        
  28646 ****       119.7500 140.5000 132.7500 Du        
  28647 ****       119.7500 140.7500 132.7500 Du        
  28648 ****       119.7500 141.0000 133.0000 Du        
  28649 ****       119.7500 141.2500 133.0000 Du        
  28650 ****       119.7500 141.2500 133.2500 Du        
  28651 ****       119.7500 141.5000 124.0000 Du        
  28652 ****       119.7500 141.5000 124.2500 Du        
  28653 ****       119.7500 141.5000 124.5000 Du        
  28654 ****       119.7500 141.5000 133.0000 Du        
  28655 ****       119.7500 141.5000 133.2500 Du        
  28656 ****       119.7500 141.7500 123.7500 Du        
  28657 ****       119.7500 141.7500 124.0000 Du        
  28658 ****       119.7500 141.7500 124.2500 Du        
  28659 ****       119.7500 141.7500 124.5000 Du        
  28660 ****       119.7500 141.7500 124.7500 Du        
  28661 ****       119.7500 141.7500 133.0000 Du        
  28662 ****       119.7500 141.7500 133.2500 Du        
  28663 ****       119.7500 141.7500 133.5000 Du        
  28664 ****       119.7500 142.0000 123.7500 Du        
  28665 ****       119.7500 142.0000 124.0000 Du        
  28666 ****       119.7500 142.0000 124.2500 Du        
  28667 ****       119.7500 142.0000 124.5000 Du        
  28668 ****       119.7500 142.0000 124.7500 Du        
  28669 ****       119.7500 142.0000 125.0000 Du        
  28670 ****       119.7500 142.0000 133.0000 Du        
  28671 ****       119.7500 142.0000 133.2500 Du        
  28672 ****       119.7500 142.2500 123.7500 Du        
  28673 ****       119.7500 142.2500 124.0000 Du        
  28674 ****       119.7500 142.2500 124.2500 Du        
  28675 ****       119.7500 142.2500 124.5000 Du        
  28676 ****       119.7500 142.2500 124.7500 Du        
  28677 ****       119.7500 142.2500 125.0000 Du        
  28678 ****       119.7500 142.2500 125.2500 Du        
  28679 ****       119.7500 142.2500 133.0000 Du        
  28680 ****       119.7500 142.2500 133.2500 Du        
  28681 ****       119.7500 142.2500 137.2500 Du        
  28682 ****       119.7500 142.2500 137.5000 Du        
  28683 ****       119.7500 142.5000 117.5000 Du        
  28684 ****       119.7500 142.5000 117.7500 Du        
  28685 ****       119.7500 142.5000 123.7500 Du        
  28686 ****       119.7500 142.5000 124.0000 Du        
  28687 ****       119.7500 142.5000 124.2500 Du        
  28688 ****       119.7500 142.5000 124.5000 Du        
  28689 ****       119.7500 142.5000 124.7500 Du        
  28690 ****       119.7500 142.5000 125.0000 Du        
  28691 ****       119.7500 142.5000 125.2500 Du        
  28692 ****       119.7500 142.5000 125.5000 Du        
  28693 ****       119.7500 142.5000 137.0000 Du        
  28694 ****       119.7500 142.5000 137.2500 Du        
  28695 ****       119.7500 142.7500 117.2500 Du        
  28696 ****       119.7500 142.7500 117.5000 Du        
  28697 ****       119.7500 142.7500 117.7500 Du        
  28698 ****       119.7500 142.7500 123.7500 Du        
  28699 ****       119.7500 142.7500 124.0000 Du        
  28700 ****       119.7500 142.7500 124.2500 Du        
  28701 ****       119.7500 142.7500 124.5000 Du        
  28702 ****       119.7500 142.7500 124.7500 Du        
  28703 ****       119.7500 142.7500 125.0000 Du        
  28704 ****       119.7500 142.7500 125.2500 Du        
  28705 ****       119.7500 142.7500 125.5000 Du        
  28706 ****       119.7500 142.7500 125.7500 Du        
  28707 ****       119.7500 142.7500 133.0000 Du        
  28708 ****       119.7500 142.7500 136.7500 Du        
  28709 ****       119.7500 142.7500 137.0000 Du        
  28710 ****       119.7500 142.7500 137.2500 Du        
  28711 ****       119.7500 143.0000 117.5000 Du        
  28712 ****       119.7500 143.0000 117.7500 Du        
  28713 ****       119.7500 143.0000 124.2500 Du        
  28714 ****       119.7500 143.0000 124.5000 Du        
  28715 ****       119.7500 143.0000 124.7500 Du        
  28716 ****       119.7500 143.0000 125.0000 Du        
  28717 ****       119.7500 143.0000 125.2500 Du        
  28718 ****       119.7500 143.0000 125.5000 Du        
  28719 ****       119.7500 143.0000 125.7500 Du        
  28720 ****       119.7500 143.0000 126.0000 Du        
  28721 ****       119.7500 143.0000 133.0000 Du        
  28722 ****       119.7500 143.0000 137.0000 Du        
  28723 ****       119.7500 143.2500 117.5000 Du        
  28724 ****       119.7500 143.2500 117.7500 Du        
  28725 ****       119.7500 143.2500 124.7500 Du        
  28726 ****       119.7500 143.2500 125.0000 Du        
  28727 ****       119.7500 143.2500 125.2500 Du        
  28728 ****       119.7500 143.2500 125.5000 Du        
  28729 ****       119.7500 143.2500 125.7500 Du        
  28730 ****       119.7500 143.2500 126.0000 Du        
  28731 ****       119.7500 143.2500 126.2500 Du        
  28732 ****       119.7500 143.5000 125.2500 Du        
  28733 ****       119.7500 143.5000 125.5000 Du        
  28734 ****       119.7500 143.5000 125.7500 Du        
  28735 ****       119.7500 143.5000 126.0000 Du        
  28736 ****       119.7500 143.7500 125.7500 Du        
  28737 ****       119.7500 147.7500 118.7500 Du        
  28738 ****       119.7500 147.7500 119.0000 Du        
  28739 ****       119.7500 147.7500 119.2500 Du        
  28740 ****       119.7500 148.0000 118.7500 Du        
  28741 ****       119.7500 148.0000 119.0000 Du        
  28742 ****       119.7500 148.0000 119.2500 Du        
  28743 ****       119.7500 148.0000 128.0000 Du        
  28744 ****       119.7500 148.0000 128.2500 Du        
  28745 ****       119.7500 148.0000 128.7500 Du        
  28746 ****       119.7500 148.2500 118.5000 Du        
  28747 ****       119.7500 148.2500 118.7500 Du        
  28748 ****       119.7500 148.2500 119.0000 Du        
  28749 ****       119.7500 148.2500 119.2500 Du        
  28750 ****       119.7500 148.2500 128.0000 Du        
  28751 ****       119.7500 148.2500 128.2500 Du        
  28752 ****       119.7500 148.2500 128.5000 Du        
  28753 ****       119.7500 148.2500 128.7500 Du        
  28754 ****       119.7500 148.5000 128.0000 Du        
  28755 ****       119.7500 148.5000 128.2500 Du        
  28756 ****       119.7500 148.5000 128.5000 Du        
  28757 ****       119.7500 148.5000 128.7500 Du        
  28758 ****       119.7500 148.5000 129.0000 Du        
  28759 ****       119.7500 148.7500 109.0000 Du        
  28760 ****       119.7500 148.7500 109.2500 Du        
  28761 ****       119.7500 148.7500 109.5000 Du        
  28762 ****       119.7500 148.7500 109.7500 Du        
  28763 ****       119.7500 148.7500 110.0000 Du        
  28764 ****       119.7500 148.7500 110.2500 Du        
  28765 ****       119.7500 148.7500 110.5000 Du        
  28766 ****       119.7500 148.7500 128.0000 Du        
  28767 ****       119.7500 148.7500 128.2500 Du        
  28768 ****       119.7500 148.7500 128.5000 Du        
  28769 ****       119.7500 148.7500 128.7500 Du        
  28770 ****       119.7500 148.7500 129.0000 Du        
  28771 ****       119.7500 148.7500 129.2500 Du        
  28772 ****       119.7500 149.0000 109.0000 Du        
  28773 ****       119.7500 149.0000 109.2500 Du        
  28774 ****       119.7500 149.0000 109.5000 Du        
  28775 ****       119.7500 149.0000 109.7500 Du        
  28776 ****       119.7500 149.0000 110.0000 Du        
  28777 ****       119.7500 149.0000 110.2500 Du        
  28778 ****       119.7500 149.0000 110.5000 Du        
  28779 ****       119.7500 149.0000 128.0000 Du        
  28780 ****       119.7500 149.0000 128.2500 Du        
  28781 ****       119.7500 149.0000 128.5000 Du        
  28782 ****       119.7500 149.0000 128.7500 Du        
  28783 ****       119.7500 149.0000 129.0000 Du        
  28784 ****       119.7500 149.0000 129.2500 Du        
  28785 ****       119.7500 149.2500 109.0000 Du        
  28786 ****       119.7500 149.2500 109.2500 Du        
  28787 ****       119.7500 149.2500 109.5000 Du        
  28788 ****       119.7500 149.2500 109.7500 Du        
  28789 ****       119.7500 149.2500 110.0000 Du        
  28790 ****       119.7500 149.2500 110.2500 Du        
  28791 ****       119.7500 149.2500 110.5000 Du        
  28792 ****       119.7500 149.2500 128.2500 Du        
  28793 ****       119.7500 149.2500 128.5000 Du        
  28794 ****       119.7500 149.2500 128.7500 Du        
  28795 ****       119.7500 149.2500 129.0000 Du        
  28796 ****       119.7500 149.2500 129.2500 Du        
  28797 ****       119.7500 149.5000 109.2500 Du        
  28798 ****       119.7500 149.5000 109.5000 Du        
  28799 ****       119.7500 149.5000 109.7500 Du        
  28800 ****       119.7500 149.5000 110.0000 Du        
  28801 ****       119.7500 149.5000 110.2500 Du        
  28802 ****       119.7500 149.5000 110.5000 Du        
  28803 ****       119.7500 149.5000 128.2500 Du        
  28804 ****       119.7500 149.5000 128.5000 Du        
  28805 ****       119.7500 149.5000 128.7500 Du        
  28806 ****       119.7500 149.5000 129.0000 Du        
  28807 ****       119.7500 149.5000 129.2500 Du        
  28808 ****       119.7500 149.7500 109.2500 Du        
  28809 ****       119.7500 149.7500 109.5000 Du        
  28810 ****       119.7500 149.7500 109.7500 Du        
  28811 ****       119.7500 149.7500 110.0000 Du        
  28812 ****       119.7500 149.7500 110.2500 Du        
  28813 ****       119.7500 149.7500 128.2500 Du        
  28814 ****       119.7500 149.7500 128.5000 Du        
  28815 ****       119.7500 149.7500 128.7500 Du        
  28816 ****       119.7500 149.7500 129.0000 Du        
  28817 ****       119.7500 149.7500 129.2500 Du        
  28818 ****       119.7500 150.0000 109.2500 Du        
  28819 ****       119.7500 150.0000 109.5000 Du        
  28820 ****       119.7500 150.0000 109.7500 Du        
  28821 ****       119.7500 150.0000 110.0000 Du        
  28822 ****       119.7500 150.0000 110.2500 Du        
  28823 ****       119.7500 150.0000 128.5000 Du        
  28824 ****       119.7500 150.0000 128.7500 Du        
  28825 ****       119.7500 150.0000 129.0000 Du        
  28826 ****       119.7500 150.0000 129.2500 Du        
  28827 ****       119.7500 150.2500 109.5000 Du        
  28828 ****       119.7500 150.2500 109.7500 Du        
  28829 ****       119.7500 150.2500 110.0000 Du        
  28830 ****       119.7500 150.2500 128.7500 Du        
  28831 ****       119.7500 150.2500 129.0000 Du        
  28832 ****       119.7500 150.5000 109.5000 Du        
  28833 ****       119.7500 150.5000 109.7500 Du        
  28834 ****       119.7500 151.2500 128.7500 Du        
  28835 ****       119.7500 151.2500 129.0000 Du        
  28836 ****       119.7500 151.5000 129.2500 Du        
  28837 ****       119.7500 151.7500 128.7500 Du        
  28838 ****       119.7500 151.7500 129.0000 Du        
  28839 ****       119.7500 151.7500 129.2500 Du        
  28840 ****       119.7500 151.7500 129.5000 Du        
  28841 ****       119.7500 152.0000 128.5000 Du        
  28842 ****       119.7500 152.0000 128.7500 Du        
  28843 ****       119.7500 152.0000 129.0000 Du        
  28844 ****       119.7500 152.0000 129.2500 Du        
  28845 ****       119.7500 152.0000 129.5000 Du        
  28846 ****       119.7500 152.2500 128.2500 Du        
  28847 ****       119.7500 152.2500 128.5000 Du        
  28848 ****       119.7500 152.2500 128.7500 Du        
  28849 ****       119.7500 152.2500 129.0000 Du        
  28850 ****       119.7500 152.2500 129.2500 Du        
  28851 ****       119.7500 152.5000 128.0000 Du        
  28852 ****       119.7500 152.5000 128.2500 Du        
  28853 ****       119.7500 152.5000 128.5000 Du        
  28854 ****       119.7500 152.5000 128.7500 Du        
  28855 ****       119.7500 152.5000 129.0000 Du        
  28856 ****       119.7500 152.5000 129.2500 Du        
  28857 ****       119.7500 152.7500 128.0000 Du        
  28858 ****       119.7500 152.7500 128.2500 Du        
  28859 ****       119.7500 152.7500 128.5000 Du        
  28860 ****       119.7500 152.7500 128.7500 Du        
  28861 ****       119.7500 152.7500 129.0000 Du        
  28862 ****       119.7500 152.7500 129.2500 Du        
  28863 ****       119.7500 153.0000 127.5000 Du        
  28864 ****       119.7500 153.0000 127.7500 Du        
  28865 ****       119.7500 153.0000 128.0000 Du        
  28866 ****       119.7500 153.0000 128.2500 Du        
  28867 ****       119.7500 153.0000 128.5000 Du        
  28868 ****       119.7500 153.0000 128.7500 Du        
  28869 ****       119.7500 153.0000 129.0000 Du        
  28870 ****       119.7500 153.0000 129.2500 Du        
  28871 ****       119.7500 153.2500 127.2500 Du        
  28872 ****       119.7500 153.2500 127.5000 Du        
  28873 ****       119.7500 153.2500 127.7500 Du        
  28874 ****       119.7500 153.2500 128.0000 Du        
  28875 ****       119.7500 153.2500 128.2500 Du        
  28876 ****       119.7500 153.2500 128.5000 Du        
  28877 ****       119.7500 153.2500 128.7500 Du        
  28878 ****       119.7500 153.2500 129.0000 Du        
  28879 ****       119.7500 153.5000 127.0000 Du        
  28880 ****       119.7500 153.5000 127.2500 Du        
  28881 ****       119.7500 153.5000 127.5000 Du        
  28882 ****       119.7500 153.5000 127.7500 Du        
  28883 ****       119.7500 153.5000 128.0000 Du        
  28884 ****       119.7500 153.5000 128.2500 Du        
  28885 ****       119.7500 153.5000 128.5000 Du        
  28886 ****       119.7500 153.5000 128.7500 Du        
  28887 ****       119.7500 153.5000 129.0000 Du        
  28888 ****       119.7500 153.5000 129.2500 Du        
  28889 ****       119.7500 153.7500 126.7500 Du        
  28890 ****       119.7500 153.7500 127.0000 Du        
  28891 ****       119.7500 153.7500 127.2500 Du        
  28892 ****       119.7500 153.7500 127.5000 Du        
  28893 ****       119.7500 153.7500 127.7500 Du        
  28894 ****       119.7500 153.7500 128.0000 Du        
  28895 ****       119.7500 153.7500 128.2500 Du        
  28896 ****       119.7500 153.7500 128.5000 Du        
  28897 ****       119.7500 153.7500 128.7500 Du        
  28898 ****       119.7500 153.7500 129.0000 Du        
  28899 ****       119.7500 154.0000 126.5000 Du        
  28900 ****       119.7500 154.0000 126.7500 Du        
  28901 ****       119.7500 154.0000 127.0000 Du        
  28902 ****       119.7500 154.0000 127.2500 Du        
  28903 ****       119.7500 154.0000 127.5000 Du        
  28904 ****       119.7500 154.0000 127.7500 Du        
  28905 ****       119.7500 154.0000 128.0000 Du        
  28906 ****       119.7500 154.0000 128.2500 Du        
  28907 ****       119.7500 154.0000 128.5000 Du        
  28908 ****       119.7500 154.0000 128.7500 Du        
  28909 ****       119.7500 154.2500 126.5000 Du        
  28910 ****       119.7500 154.2500 126.7500 Du        
  28911 ****       119.7500 154.2500 127.0000 Du        
  28912 ****       119.7500 154.2500 127.2500 Du        
  28913 ****       119.7500 154.2500 127.5000 Du        
  28914 ****       119.7500 154.2500 127.7500 Du        
  28915 ****       119.7500 154.2500 128.0000 Du        
  28916 ****       119.7500 154.2500 128.2500 Du        
  28917 ****       119.7500 154.2500 128.5000 Du        
  28918 ****       119.7500 154.5000 126.5000 Du        
  28919 ****       119.7500 154.5000 126.7500 Du        
  28920 ****       119.7500 154.5000 127.0000 Du        
  28921 ****       119.7500 154.5000 127.2500 Du        
  28922 ****       119.7500 154.5000 127.5000 Du        
  28923 ****       119.7500 154.5000 127.7500 Du        
  28924 ****       119.7500 154.5000 128.0000 Du        
  28925 ****       119.7500 154.5000 136.7500 Du        
  28926 ****       119.7500 154.5000 137.0000 Du        
  28927 ****       119.7500 154.5000 137.2500 Du        
  28928 ****       119.7500 154.5000 137.5000 Du        
  28929 ****       119.7500 154.5000 137.7500 Du        
  28930 ****       119.7500 154.5000 138.0000 Du        
  28931 ****       119.7500 154.5000 138.2500 Du        
  28932 ****       119.7500 154.5000 138.5000 Du        
  28933 ****       119.7500 154.7500 126.2500 Du        
  28934 ****       119.7500 154.7500 126.5000 Du        
  28935 ****       119.7500 154.7500 126.7500 Du        
  28936 ****       119.7500 154.7500 127.0000 Du        
  28937 ****       119.7500 154.7500 127.2500 Du        
  28938 ****       119.7500 154.7500 127.5000 Du        
  28939 ****       119.7500 154.7500 127.7500 Du        
  28940 ****       119.7500 154.7500 136.5000 Du        
  28941 ****       119.7500 154.7500 136.7500 Du        
  28942 ****       119.7500 154.7500 137.0000 Du        
  28943 ****       119.7500 154.7500 137.2500 Du        
  28944 ****       119.7500 154.7500 137.5000 Du        
  28945 ****       119.7500 154.7500 137.7500 Du        
  28946 ****       119.7500 154.7500 138.0000 Du        
  28947 ****       119.7500 154.7500 138.2500 Du        
  28948 ****       119.7500 154.7500 138.5000 Du        
  28949 ****       119.7500 155.0000 126.2500 Du        
  28950 ****       119.7500 155.0000 126.5000 Du        
  28951 ****       119.7500 155.0000 126.7500 Du        
  28952 ****       119.7500 155.0000 127.0000 Du        
  28953 ****       119.7500 155.0000 127.2500 Du        
  28954 ****       119.7500 155.0000 127.5000 Du        
  28955 ****       119.7500 155.0000 136.5000 Du        
  28956 ****       119.7500 155.0000 136.7500 Du        
  28957 ****       119.7500 155.0000 137.0000 Du        
  28958 ****       119.7500 155.0000 137.2500 Du        
  28959 ****       119.7500 155.0000 137.5000 Du        
  28960 ****       119.7500 155.0000 137.7500 Du        
  28961 ****       119.7500 155.0000 138.0000 Du        
  28962 ****       119.7500 155.0000 138.2500 Du        
  28963 ****       119.7500 155.2500 126.2500 Du        
  28964 ****       119.7500 155.2500 126.5000 Du        
  28965 ****       119.7500 155.2500 126.7500 Du        
  28966 ****       119.7500 155.2500 127.0000 Du        
  28967 ****       119.7500 155.2500 127.2500 Du        
  28968 ****       119.7500 155.2500 127.5000 Du        
  28969 ****       119.7500 155.2500 136.5000 Du        
  28970 ****       119.7500 155.2500 136.7500 Du        
  28971 ****       119.7500 155.2500 137.0000 Du        
  28972 ****       119.7500 155.2500 137.2500 Du        
  28973 ****       119.7500 155.2500 137.5000 Du        
  28974 ****       119.7500 155.2500 137.7500 Du        
  28975 ****       119.7500 155.2500 138.0000 Du        
  28976 ****       119.7500 155.2500 138.2500 Du        
  28977 ****       119.7500 155.5000 114.2500 Du        
  28978 ****       119.7500 155.5000 114.5000 Du        
  28979 ****       119.7500 155.5000 114.7500 Du        
  28980 ****       119.7500 155.5000 115.0000 Du        
  28981 ****       119.7500 155.5000 126.2500 Du        
  28982 ****       119.7500 155.5000 126.5000 Du        
  28983 ****       119.7500 155.5000 126.7500 Du        
  28984 ****       119.7500 155.5000 127.0000 Du        
  28985 ****       119.7500 155.5000 127.2500 Du        
  28986 ****       119.7500 155.5000 136.7500 Du        
  28987 ****       119.7500 155.5000 137.0000 Du        
  28988 ****       119.7500 155.5000 137.2500 Du        
  28989 ****       119.7500 155.5000 137.5000 Du        
  28990 ****       119.7500 155.5000 137.7500 Du        
  28991 ****       119.7500 155.5000 138.0000 Du        
  28992 ****       119.7500 155.5000 138.2500 Du        
  28993 ****       119.7500 155.7500 114.0000 Du        
  28994 ****       119.7500 155.7500 114.2500 Du        
  28995 ****       119.7500 155.7500 114.5000 Du        
  28996 ****       119.7500 155.7500 114.7500 Du        
  28997 ****       119.7500 155.7500 115.0000 Du        
  28998 ****       119.7500 155.7500 126.2500 Du        
  28999 ****       119.7500 155.7500 126.5000 Du        
  29000 ****       119.7500 155.7500 126.7500 Du        
  29001 ****       119.7500 155.7500 127.0000 Du        
  29002 ****       119.7500 155.7500 127.2500 Du        
  29003 ****       119.7500 156.0000 114.0000 Du        
  29004 ****       119.7500 156.0000 114.2500 Du        
  29005 ****       119.7500 156.0000 114.5000 Du        
  29006 ****       119.7500 156.0000 114.7500 Du        
  29007 ****       119.7500 156.0000 115.0000 Du        
  29008 ****       119.7500 156.0000 115.2500 Du        
  29009 ****       119.7500 156.0000 126.2500 Du        
  29010 ****       119.7500 156.0000 126.5000 Du        
  29011 ****       119.7500 156.0000 126.7500 Du        
  29012 ****       119.7500 156.0000 127.0000 Du        
  29013 ****       119.7500 156.2500 113.7500 Du        
  29014 ****       119.7500 156.2500 114.0000 Du        
  29015 ****       119.7500 156.2500 114.2500 Du        
  29016 ****       119.7500 156.2500 114.5000 Du        
  29017 ****       119.7500 156.2500 114.7500 Du        
  29018 ****       119.7500 156.2500 115.0000 Du        
  29019 ****       119.7500 156.2500 115.2500 Du        
  29020 ****       119.7500 156.2500 126.2500 Du        
  29021 ****       119.7500 156.2500 126.5000 Du        
  29022 ****       119.7500 156.2500 126.7500 Du        
  29023 ****       119.7500 156.2500 127.0000 Du        
  29024 ****       119.7500 156.5000 113.7500 Du        
  29025 ****       119.7500 156.5000 114.0000 Du        
  29026 ****       119.7500 156.5000 114.2500 Du        
  29027 ****       119.7500 156.5000 114.5000 Du        
  29028 ****       119.7500 156.5000 114.7500 Du        
  29029 ****       119.7500 156.5000 115.0000 Du        
  29030 ****       119.7500 156.5000 115.2500 Du        
  29031 ****       119.7500 156.5000 126.2500 Du        
  29032 ****       119.7500 156.5000 126.5000 Du        
  29033 ****       119.7500 156.5000 126.7500 Du        
  29034 ****       119.7500 156.5000 127.0000 Du        
  29035 ****       119.7500 156.7500 113.7500 Du        
  29036 ****       119.7500 156.7500 114.0000 Du        
  29037 ****       119.7500 156.7500 114.2500 Du        
  29038 ****       119.7500 156.7500 114.5000 Du        
  29039 ****       119.7500 156.7500 114.7500 Du        
  29040 ****       119.7500 156.7500 115.0000 Du        
  29041 ****       119.7500 156.7500 115.2500 Du        
  29042 ****       119.7500 156.7500 115.5000 Du        
  29043 ****       119.7500 156.7500 126.0000 Du        
  29044 ****       119.7500 156.7500 126.2500 Du        
  29045 ****       119.7500 156.7500 126.5000 Du        
  29046 ****       119.7500 156.7500 126.7500 Du        
  29047 ****       119.7500 156.7500 127.0000 Du        
  29048 ****       119.7500 157.0000 114.0000 Du        
  29049 ****       119.7500 157.0000 114.2500 Du        
  29050 ****       119.7500 157.0000 114.5000 Du        
  29051 ****       119.7500 157.0000 114.7500 Du        
  29052 ****       119.7500 157.0000 115.0000 Du        
  29053 ****       119.7500 157.0000 115.2500 Du        
  29054 ****       119.7500 157.0000 115.5000 Du        
  29055 ****       119.7500 157.0000 126.2500 Du        
  29056 ****       119.7500 157.0000 126.5000 Du        
  29057 ****       119.7500 157.0000 126.7500 Du        
  29058 ****       119.7500 157.0000 127.0000 Du        
  29059 ****       119.7500 157.2500 114.5000 Du        
  29060 ****       119.7500 157.2500 114.7500 Du        
  29061 ****       119.7500 157.2500 115.0000 Du        
  29062 ****       119.7500 157.2500 115.2500 Du        
  29063 ****       119.7500 157.2500 115.5000 Du        
  29064 ****       119.7500 157.2500 115.7500 Du        
  29065 ****       119.7500 157.5000 115.2500 Du        
  29066 ****       119.7500 157.5000 115.5000 Du        
  29067 ****       119.7500 157.5000 115.7500 Du        
  29068 ****       119.7500 157.7500 115.5000 Du        
  29069 ****       119.7500 157.7500 115.7500 Du        
  29070 ****       119.7500 157.7500 116.0000 Du        
  29071 ****       119.7500 158.0000 115.5000 Du        
  29072 ****       119.7500 158.0000 115.7500 Du        
  29073 ****       119.7500 158.0000 116.0000 Du        
  29074 ****       119.7500 158.2500 115.7500 Du        
  29075 ****       119.7500 158.2500 116.0000 Du        
  29076 ****       119.7500 158.5000 115.7500 Du        
  29077 ****       119.7500 158.5000 116.0000 Du        
  29078 ****       119.7500 158.7500 115.7500 Du        
  29079 ****       119.7500 158.7500 116.0000 Du        
  29080 ****       119.7500 159.0000 115.7500 Du        
  29081 ****       119.7500 159.0000 116.0000 Du        
  29082 ****       119.7500 159.0000 116.2500 Du        
  29083 ****       119.7500 159.2500 115.7500 Du        
  29084 ****       119.7500 159.2500 116.0000 Du        
  29085 ****       119.7500 159.2500 116.2500 Du        
  29086 ****       119.7500 159.5000 115.7500 Du        
  29087 ****       119.7500 159.5000 116.0000 Du        
  29088 ****       119.7500 159.5000 116.2500 Du        
  29089 ****       120.0000 134.5000 144.5000 Du        
  29090 ****       120.0000 134.5000 144.7500 Du        
  29091 ****       120.0000 134.7500 144.7500 Du        
  29092 ****       120.0000 136.2500 129.7500 Du        
  29093 ****       120.0000 136.2500 130.0000 Du        
  29094 ****       120.0000 136.2500 130.2500 Du        
  29095 ****       120.0000 136.2500 144.7500 Du        
  29096 ****       120.0000 136.5000 129.5000 Du        
  29097 ****       120.0000 136.5000 129.7500 Du        
  29098 ****       120.0000 136.5000 130.0000 Du        
  29099 ****       120.0000 136.5000 130.2500 Du        
  29100 ****       120.0000 136.5000 130.5000 Du        
  29101 ****       120.0000 136.5000 130.7500 Du        
  29102 ****       120.0000 136.5000 131.0000 Du        
  29103 ****       120.0000 136.5000 144.7500 Du        
  29104 ****       120.0000 136.5000 145.0000 Du        
  29105 ****       120.0000 136.7500 128.7500 Du        
  29106 ****       120.0000 136.7500 129.0000 Du        
  29107 ****       120.0000 136.7500 129.2500 Du        
  29108 ****       120.0000 136.7500 129.5000 Du        
  29109 ****       120.0000 136.7500 129.7500 Du        
  29110 ****       120.0000 136.7500 130.0000 Du        
  29111 ****       120.0000 136.7500 130.2500 Du        
  29112 ****       120.0000 136.7500 130.5000 Du        
  29113 ****       120.0000 136.7500 130.7500 Du        
  29114 ****       120.0000 136.7500 131.0000 Du        
  29115 ****       120.0000 136.7500 131.2500 Du        
  29116 ****       120.0000 136.7500 131.5000 Du        
  29117 ****       120.0000 137.0000 128.2500 Du        
  29118 ****       120.0000 137.0000 128.7500 Du        
  29119 ****       120.0000 137.0000 129.0000 Du        
  29120 ****       120.0000 137.0000 129.2500 Du        
  29121 ****       120.0000 137.0000 129.5000 Du        
  29122 ****       120.0000 137.0000 129.7500 Du        
  29123 ****       120.0000 137.0000 130.0000 Du        
  29124 ****       120.0000 137.0000 130.2500 Du        
  29125 ****       120.0000 137.0000 130.5000 Du        
  29126 ****       120.0000 137.0000 130.7500 Du        
  29127 ****       120.0000 137.0000 131.0000 Du        
  29128 ****       120.0000 137.0000 131.2500 Du        
  29129 ****       120.0000 137.0000 131.5000 Du        
  29130 ****       120.0000 137.2500 128.0000 Du        
  29131 ****       120.0000 137.2500 128.2500 Du        
  29132 ****       120.0000 137.2500 128.5000 Du        
  29133 ****       120.0000 137.2500 128.7500 Du        
  29134 ****       120.0000 137.2500 129.0000 Du        
  29135 ****       120.0000 137.2500 129.2500 Du        
  29136 ****       120.0000 137.2500 129.5000 Du        
  29137 ****       120.0000 137.2500 129.7500 Du        
  29138 ****       120.0000 137.2500 130.0000 Du        
  29139 ****       120.0000 137.2500 130.2500 Du        
  29140 ****       120.0000 137.2500 130.5000 Du        
  29141 ****       120.0000 137.2500 130.7500 Du        
  29142 ****       120.0000 137.2500 131.0000 Du        
  29143 ****       120.0000 137.2500 131.2500 Du        
  29144 ****       120.0000 137.2500 131.5000 Du        
  29145 ****       120.0000 137.5000 127.7500 Du        
  29146 ****       120.0000 137.5000 128.0000 Du        
  29147 ****       120.0000 137.5000 128.2500 Du        
  29148 ****       120.0000 137.5000 128.5000 Du        
  29149 ****       120.0000 137.5000 128.7500 Du        
  29150 ****       120.0000 137.5000 129.0000 Du        
  29151 ****       120.0000 137.5000 129.2500 Du        
  29152 ****       120.0000 137.5000 129.5000 Du        
  29153 ****       120.0000 137.5000 129.7500 Du        
  29154 ****       120.0000 137.5000 130.0000 Du        
  29155 ****       120.0000 137.5000 130.2500 Du        
  29156 ****       120.0000 137.5000 130.5000 Du        
  29157 ****       120.0000 137.5000 130.7500 Du        
  29158 ****       120.0000 137.5000 131.0000 Du        
  29159 ****       120.0000 137.5000 131.2500 Du        
  29160 ****       120.0000 137.7500 127.7500 Du        
  29161 ****       120.0000 137.7500 128.0000 Du        
  29162 ****       120.0000 137.7500 128.2500 Du        
  29163 ****       120.0000 137.7500 128.5000 Du        
  29164 ****       120.0000 137.7500 128.7500 Du        
  29165 ****       120.0000 137.7500 129.0000 Du        
  29166 ****       120.0000 137.7500 129.2500 Du        
  29167 ****       120.0000 137.7500 129.5000 Du        
  29168 ****       120.0000 137.7500 129.7500 Du        
  29169 ****       120.0000 137.7500 130.0000 Du        
  29170 ****       120.0000 137.7500 130.2500 Du        
  29171 ****       120.0000 137.7500 130.5000 Du        
  29172 ****       120.0000 137.7500 130.7500 Du        
  29173 ****       120.0000 137.7500 131.0000 Du        
  29174 ****       120.0000 137.7500 131.2500 Du        
  29175 ****       120.0000 138.0000 128.5000 Du        
  29176 ****       120.0000 138.0000 128.7500 Du        
  29177 ****       120.0000 138.0000 129.0000 Du        
  29178 ****       120.0000 138.0000 129.2500 Du        
  29179 ****       120.0000 138.0000 129.5000 Du        
  29180 ****       120.0000 138.0000 129.7500 Du        
  29181 ****       120.0000 138.0000 130.0000 Du        
  29182 ****       120.0000 138.0000 130.2500 Du        
  29183 ****       120.0000 138.0000 130.5000 Du        
  29184 ****       120.0000 138.0000 130.7500 Du        
  29185 ****       120.0000 138.0000 131.0000 Du        
  29186 ****       120.0000 138.2500 129.0000 Du        
  29187 ****       120.0000 138.2500 129.2500 Du        
  29188 ****       120.0000 138.2500 129.5000 Du        
  29189 ****       120.0000 138.2500 129.7500 Du        
  29190 ****       120.0000 138.2500 130.0000 Du        
  29191 ****       120.0000 138.2500 130.2500 Du        
  29192 ****       120.0000 140.7500 124.2500 Du        
  29193 ****       120.0000 141.0000 124.0000 Du        
  29194 ****       120.0000 141.0000 124.2500 Du        
  29195 ****       120.0000 141.0000 124.5000 Du        
  29196 ****       120.0000 141.2500 123.7500 Du        
  29197 ****       120.0000 141.2500 124.0000 Du        
  29198 ****       120.0000 141.2500 124.2500 Du        
  29199 ****       120.0000 141.2500 124.5000 Du        
  29200 ****       120.0000 141.2500 124.7500 Du        
  29201 ****       120.0000 141.5000 123.7500 Du        
  29202 ****       120.0000 141.5000 124.0000 Du        
  29203 ****       120.0000 141.5000 124.2500 Du        
  29204 ****       120.0000 141.5000 124.5000 Du        
  29205 ****       120.0000 141.5000 124.7500 Du        
  29206 ****       120.0000 141.7500 123.5000 Du        
  29207 ****       120.0000 141.7500 123.7500 Du        
  29208 ****       120.0000 141.7500 124.0000 Du        
  29209 ****       120.0000 141.7500 124.2500 Du        
  29210 ****       120.0000 141.7500 124.5000 Du        
  29211 ****       120.0000 141.7500 124.7500 Du        
  29212 ****       120.0000 141.7500 125.0000 Du        
  29213 ****       120.0000 141.7500 133.2500 Du        
  29214 ****       120.0000 142.0000 117.7500 Du        
  29215 ****       120.0000 142.0000 123.5000 Du        
  29216 ****       120.0000 142.0000 123.7500 Du        
  29217 ****       120.0000 142.0000 124.0000 Du        
  29218 ****       120.0000 142.0000 124.2500 Du        
  29219 ****       120.0000 142.0000 124.5000 Du        
  29220 ****       120.0000 142.0000 124.7500 Du        
  29221 ****       120.0000 142.0000 125.0000 Du        
  29222 ****       120.0000 142.0000 125.2500 Du        
  29223 ****       120.0000 142.0000 133.2500 Du        
  29224 ****       120.0000 142.0000 133.5000 Du        
  29225 ****       120.0000 142.0000 133.7500 Du        
  29226 ****       120.0000 142.2500 117.5000 Du        
  29227 ****       120.0000 142.2500 117.7500 Du        
  29228 ****       120.0000 142.2500 123.2500 Du        
  29229 ****       120.0000 142.2500 123.5000 Du        
  29230 ****       120.0000 142.2500 123.7500 Du        
  29231 ****       120.0000 142.2500 124.0000 Du        
  29232 ****       120.0000 142.2500 124.2500 Du        
  29233 ****       120.0000 142.2500 124.5000 Du        
  29234 ****       120.0000 142.2500 124.7500 Du        
  29235 ****       120.0000 142.2500 125.0000 Du        
  29236 ****       120.0000 142.2500 125.2500 Du        
  29237 ****       120.0000 142.2500 125.5000 Du        
  29238 ****       120.0000 142.2500 133.2500 Du        
  29239 ****       120.0000 142.2500 133.5000 Du        
  29240 ****       120.0000 142.2500 133.7500 Du        
  29241 ****       120.0000 142.5000 117.5000 Du        
  29242 ****       120.0000 142.5000 117.7500 Du        
  29243 ****       120.0000 142.5000 123.5000 Du        
  29244 ****       120.0000 142.5000 123.7500 Du        
  29245 ****       120.0000 142.5000 124.0000 Du        
  29246 ****       120.0000 142.5000 124.2500 Du        
  29247 ****       120.0000 142.5000 124.5000 Du        
  29248 ****       120.0000 142.5000 124.7500 Du        
  29249 ****       120.0000 142.5000 125.0000 Du        
  29250 ****       120.0000 142.5000 125.2500 Du        
  29251 ****       120.0000 142.5000 125.5000 Du        
  29252 ****       120.0000 142.5000 133.5000 Du        
  29253 ****       120.0000 142.5000 133.7500 Du        
  29254 ****       120.0000 142.5000 134.0000 Du        
  29255 ****       120.0000 142.7500 117.2500 Du        
  29256 ****       120.0000 142.7500 117.5000 Du        
  29257 ****       120.0000 142.7500 117.7500 Du        
  29258 ****       120.0000 142.7500 118.0000 Du        
  29259 ****       120.0000 142.7500 123.7500 Du        
  29260 ****       120.0000 142.7500 124.0000 Du        
  29261 ****       120.0000 142.7500 124.2500 Du        
  29262 ****       120.0000 142.7500 124.5000 Du        
  29263 ****       120.0000 142.7500 124.7500 Du        
  29264 ****       120.0000 142.7500 125.0000 Du        
  29265 ****       120.0000 142.7500 125.2500 Du        
  29266 ****       120.0000 142.7500 125.5000 Du        
  29267 ****       120.0000 142.7500 125.7500 Du        
  29268 ****       120.0000 142.7500 126.0000 Du        
  29269 ****       120.0000 142.7500 133.7500 Du        
  29270 ****       120.0000 142.7500 134.0000 Du        
  29271 ****       120.0000 142.7500 134.2500 Du        
  29272 ****       120.0000 143.0000 117.2500 Du        
  29273 ****       120.0000 143.0000 117.5000 Du        
  29274 ****       120.0000 143.0000 117.7500 Du        
  29275 ****       120.0000 143.0000 118.0000 Du        
  29276 ****       120.0000 143.0000 124.2500 Du        
  29277 ****       120.0000 143.0000 124.5000 Du        
  29278 ****       120.0000 143.0000 124.7500 Du        
  29279 ****       120.0000 143.0000 125.0000 Du        
  29280 ****       120.0000 143.0000 125.2500 Du        
  29281 ****       120.0000 143.0000 125.5000 Du        
  29282 ****       120.0000 143.0000 125.7500 Du        
  29283 ****       120.0000 143.0000 126.0000 Du        
  29284 ****       120.0000 143.0000 126.2500 Du        
  29285 ****       120.0000 143.2500 117.5000 Du        
  29286 ****       120.0000 143.2500 117.7500 Du        
  29287 ****       120.0000 143.2500 118.0000 Du        
  29288 ****       120.0000 143.2500 125.0000 Du        
  29289 ****       120.0000 143.2500 125.2500 Du        
  29290 ****       120.0000 143.2500 125.5000 Du        
  29291 ****       120.0000 143.2500 125.7500 Du        
  29292 ****       120.0000 143.2500 126.0000 Du        
  29293 ****       120.0000 143.2500 126.2500 Du        
  29294 ****       120.0000 143.5000 117.7500 Du        
  29295 ****       120.0000 143.5000 125.2500 Du        
  29296 ****       120.0000 143.5000 125.5000 Du        
  29297 ****       120.0000 143.5000 125.7500 Du        
  29298 ****       120.0000 143.5000 126.0000 Du        
  29299 ****       120.0000 143.5000 126.2500 Du        
  29300 ****       120.0000 143.5000 126.5000 Du        
  29301 ****       120.0000 143.7500 125.5000 Du        
  29302 ****       120.0000 143.7500 125.7500 Du        
  29303 ****       120.0000 143.7500 126.0000 Du        
  29304 ****       120.0000 143.7500 126.2500 Du        
  29305 ****       120.0000 147.7500 119.0000 Du        
  29306 ****       120.0000 147.7500 128.2500 Du        
  29307 ****       120.0000 148.0000 118.7500 Du        
  29308 ****       120.0000 148.0000 119.0000 Du        
  29309 ****       120.0000 148.0000 119.2500 Du        
  29310 ****       120.0000 148.0000 128.0000 Du        
  29311 ****       120.0000 148.0000 128.2500 Du        
  29312 ****       120.0000 148.2500 118.5000 Du        
  29313 ****       120.0000 148.2500 118.7500 Du        
  29314 ****       120.0000 148.2500 119.0000 Du        
  29315 ****       120.0000 148.2500 119.2500 Du        
  29316 ****       120.0000 148.2500 128.0000 Du        
  29317 ****       120.0000 148.2500 128.2500 Du        
  29318 ****       120.0000 148.2500 128.5000 Du        
  29319 ****       120.0000 148.5000 128.0000 Du        
  29320 ****       120.0000 148.5000 128.2500 Du        
  29321 ****       120.0000 148.7500 128.0000 Du        
  29322 ****       120.0000 148.7500 128.2500 Du        
  29323 ****       120.0000 148.7500 128.5000 Du        
  29324 ****       120.0000 148.7500 128.7500 Du        
  29325 ****       120.0000 149.0000 109.5000 Du        
  29326 ****       120.0000 149.0000 109.7500 Du        
  29327 ****       120.0000 149.0000 128.0000 Du        
  29328 ****       120.0000 149.0000 128.2500 Du        
  29329 ****       120.0000 149.0000 128.5000 Du        
  29330 ****       120.0000 149.0000 128.7500 Du        
  29331 ****       120.0000 149.2500 109.2500 Du        
  29332 ****       120.0000 149.2500 109.5000 Du        
  29333 ****       120.0000 149.2500 109.7500 Du        
  29334 ****       120.0000 149.2500 110.0000 Du        
  29335 ****       120.0000 149.2500 110.2500 Du        
  29336 ****       120.0000 149.2500 128.2500 Du        
  29337 ****       120.0000 149.2500 128.5000 Du        
  29338 ****       120.0000 149.2500 128.7500 Du        
  29339 ****       120.0000 149.5000 109.5000 Du        
  29340 ****       120.0000 149.5000 109.7500 Du        
  29341 ****       120.0000 149.5000 110.0000 Du        
  29342 ****       120.0000 149.5000 110.2500 Du        
  29343 ****       120.0000 149.5000 118.0000 Du        
  29344 ****       120.0000 149.5000 128.2500 Du        
  29345 ****       120.0000 149.5000 128.5000 Du        
  29346 ****       120.0000 149.5000 128.7500 Du        
  29347 ****       120.0000 149.7500 109.2500 Du        
  29348 ****       120.0000 149.7500 109.5000 Du        
  29349 ****       120.0000 149.7500 109.7500 Du        
  29350 ****       120.0000 149.7500 110.0000 Du        
  29351 ****       120.0000 149.7500 110.2500 Du        
  29352 ****       120.0000 149.7500 118.0000 Du        
  29353 ****       120.0000 149.7500 128.5000 Du        
  29354 ****       120.0000 149.7500 128.7500 Du        
  29355 ****       120.0000 150.0000 109.2500 Du        
  29356 ****       120.0000 150.0000 109.5000 Du        
  29357 ****       120.0000 150.0000 109.7500 Du        
  29358 ****       120.0000 150.0000 110.0000 Du        
  29359 ****       120.0000 150.0000 110.2500 Du        
  29360 ****       120.0000 150.2500 109.5000 Du        
  29361 ****       120.0000 150.2500 109.7500 Du        
  29362 ****       120.0000 150.2500 110.0000 Du        
  29363 ****       120.0000 150.5000 109.5000 Du        
  29364 ****       120.0000 150.5000 109.7500 Du        
  29365 ****       120.0000 150.7500 109.5000 Du        
  29366 ****       120.0000 151.7500 128.7500 Du        
  29367 ****       120.0000 151.7500 129.0000 Du        
  29368 ****       120.0000 152.0000 128.5000 Du        
  29369 ****       120.0000 152.0000 128.7500 Du        
  29370 ****       120.0000 152.0000 129.0000 Du        
  29371 ****       120.0000 152.0000 129.2500 Du        
  29372 ****       120.0000 152.2500 128.2500 Du        
  29373 ****       120.0000 152.2500 128.5000 Du        
  29374 ****       120.0000 152.2500 128.7500 Du        
  29375 ****       120.0000 152.2500 129.0000 Du        
  29376 ****       120.0000 152.2500 129.2500 Du        
  29377 ****       120.0000 152.2500 129.5000 Du        
  29378 ****       120.0000 152.2500 129.7500 Du        
  29379 ****       120.0000 152.5000 128.0000 Du        
  29380 ****       120.0000 152.5000 128.2500 Du        
  29381 ****       120.0000 152.5000 128.5000 Du        
  29382 ****       120.0000 152.5000 128.7500 Du        
  29383 ****       120.0000 152.5000 129.0000 Du        
  29384 ****       120.0000 152.5000 129.2500 Du        
  29385 ****       120.0000 152.5000 129.5000 Du        
  29386 ****       120.0000 152.5000 130.0000 Du        
  29387 ****       120.0000 152.7500 127.7500 Du        
  29388 ****       120.0000 152.7500 128.0000 Du        
  29389 ****       120.0000 152.7500 128.2500 Du        
  29390 ****       120.0000 152.7500 128.5000 Du        
  29391 ****       120.0000 152.7500 128.7500 Du        
  29392 ****       120.0000 152.7500 129.0000 Du        
  29393 ****       120.0000 152.7500 129.2500 Du        
  29394 ****       120.0000 152.7500 129.5000 Du        
  29395 ****       120.0000 152.7500 129.7500 Du        
  29396 ****       120.0000 153.0000 127.5000 Du        
  29397 ****       120.0000 153.0000 127.7500 Du        
  29398 ****       120.0000 153.0000 128.0000 Du        
  29399 ****       120.0000 153.0000 128.2500 Du        
  29400 ****       120.0000 153.0000 128.5000 Du        
  29401 ****       120.0000 153.0000 128.7500 Du        
  29402 ****       120.0000 153.0000 129.0000 Du        
  29403 ****       120.0000 153.0000 129.2500 Du        
  29404 ****       120.0000 153.0000 129.5000 Du        
  29405 ****       120.0000 153.0000 129.7500 Du        
  29406 ****       120.0000 153.0000 130.0000 Du        
  29407 ****       120.0000 153.0000 132.0000 Du        
  29408 ****       120.0000 153.2500 127.0000 Du        
  29409 ****       120.0000 153.2500 127.2500 Du        
  29410 ****       120.0000 153.2500 127.5000 Du        
  29411 ****       120.0000 153.2500 127.7500 Du        
  29412 ****       120.0000 153.2500 128.0000 Du        
  29413 ****       120.0000 153.2500 128.2500 Du        
  29414 ****       120.0000 153.2500 128.5000 Du        
  29415 ****       120.0000 153.2500 128.7500 Du        
  29416 ****       120.0000 153.2500 129.0000 Du        
  29417 ****       120.0000 153.2500 129.2500 Du        
  29418 ****       120.0000 153.2500 129.5000 Du        
  29419 ****       120.0000 153.2500 129.7500 Du        
  29420 ****       120.0000 153.5000 126.7500 Du        
  29421 ****       120.0000 153.5000 127.0000 Du        
  29422 ****       120.0000 153.5000 127.2500 Du        
  29423 ****       120.0000 153.5000 127.5000 Du        
  29424 ****       120.0000 153.5000 127.7500 Du        
  29425 ****       120.0000 153.5000 128.0000 Du        
  29426 ****       120.0000 153.5000 128.2500 Du        
  29427 ****       120.0000 153.5000 128.5000 Du        
  29428 ****       120.0000 153.5000 128.7500 Du        
  29429 ****       120.0000 153.5000 129.0000 Du        
  29430 ****       120.0000 153.5000 129.2500 Du        
  29431 ****       120.0000 153.7500 126.2500 Du        
  29432 ****       120.0000 153.7500 126.5000 Du        
  29433 ****       120.0000 153.7500 126.7500 Du        
  29434 ****       120.0000 153.7500 127.0000 Du        
  29435 ****       120.0000 153.7500 127.2500 Du        
  29436 ****       120.0000 153.7500 127.5000 Du        
  29437 ****       120.0000 153.7500 127.7500 Du        
  29438 ****       120.0000 153.7500 128.0000 Du        
  29439 ****       120.0000 153.7500 128.2500 Du        
  29440 ****       120.0000 153.7500 128.5000 Du        
  29441 ****       120.0000 153.7500 128.7500 Du        
  29442 ****       120.0000 153.7500 129.0000 Du        
  29443 ****       120.0000 153.7500 129.2500 Du        
  29444 ****       120.0000 154.0000 126.2500 Du        
  29445 ****       120.0000 154.0000 126.5000 Du        
  29446 ****       120.0000 154.0000 126.7500 Du        
  29447 ****       120.0000 154.0000 127.0000 Du        
  29448 ****       120.0000 154.0000 127.2500 Du        
  29449 ****       120.0000 154.0000 127.5000 Du        
  29450 ****       120.0000 154.0000 127.7500 Du        
  29451 ****       120.0000 154.0000 128.0000 Du        
  29452 ****       120.0000 154.0000 128.2500 Du        
  29453 ****       120.0000 154.0000 128.5000 Du        
  29454 ****       120.0000 154.0000 128.7500 Du        
  29455 ****       120.0000 154.2500 126.0000 Du        
  29456 ****       120.0000 154.2500 126.2500 Du        
  29457 ****       120.0000 154.2500 126.5000 Du        
  29458 ****       120.0000 154.2500 126.7500 Du        
  29459 ****       120.0000 154.2500 127.0000 Du        
  29460 ****       120.0000 154.2500 127.2500 Du        
  29461 ****       120.0000 154.2500 127.5000 Du        
  29462 ****       120.0000 154.2500 127.7500 Du        
  29463 ****       120.0000 154.2500 128.0000 Du        
  29464 ****       120.0000 154.2500 128.2500 Du        
  29465 ****       120.0000 154.5000 126.0000 Du        
  29466 ****       120.0000 154.5000 126.2500 Du        
  29467 ****       120.0000 154.5000 126.5000 Du        
  29468 ****       120.0000 154.5000 126.7500 Du        
  29469 ****       120.0000 154.5000 127.0000 Du        
  29470 ****       120.0000 154.5000 127.2500 Du        
  29471 ****       120.0000 154.5000 127.5000 Du        
  29472 ****       120.0000 154.5000 127.7500 Du        
  29473 ****       120.0000 154.5000 128.0000 Du        
  29474 ****       120.0000 154.5000 136.2500 Du        
  29475 ****       120.0000 154.5000 136.5000 Du        
  29476 ****       120.0000 154.5000 136.7500 Du        
  29477 ****       120.0000 154.5000 137.0000 Du        
  29478 ****       120.0000 154.5000 137.2500 Du        
  29479 ****       120.0000 154.5000 137.5000 Du        
  29480 ****       120.0000 154.5000 137.7500 Du        
  29481 ****       120.0000 154.5000 138.0000 Du        
  29482 ****       120.0000 154.5000 138.2500 Du        
  29483 ****       120.0000 154.7500 125.7500 Du        
  29484 ****       120.0000 154.7500 126.0000 Du        
  29485 ****       120.0000 154.7500 126.2500 Du        
  29486 ****       120.0000 154.7500 126.5000 Du        
  29487 ****       120.0000 154.7500 126.7500 Du        
  29488 ****       120.0000 154.7500 127.0000 Du        
  29489 ****       120.0000 154.7500 127.2500 Du        
  29490 ****       120.0000 154.7500 127.5000 Du        
  29491 ****       120.0000 154.7500 127.7500 Du        
  29492 ****       120.0000 154.7500 136.0000 Du        
  29493 ****       120.0000 154.7500 136.2500 Du        
  29494 ****       120.0000 154.7500 136.5000 Du        
  29495 ****       120.0000 154.7500 136.7500 Du        
  29496 ****       120.0000 154.7500 137.0000 Du        
  29497 ****       120.0000 154.7500 137.2500 Du        
  29498 ****       120.0000 154.7500 137.5000 Du        
  29499 ****       120.0000 154.7500 137.7500 Du        
  29500 ****       120.0000 154.7500 138.0000 Du        
  29501 ****       120.0000 154.7500 138.2500 Du        
  29502 ****       120.0000 155.0000 125.7500 Du        
  29503 ****       120.0000 155.0000 126.0000 Du        
  29504 ****       120.0000 155.0000 126.2500 Du        
  29505 ****       120.0000 155.0000 126.5000 Du        
  29506 ****       120.0000 155.0000 126.7500 Du        
  29507 ****       120.0000 155.0000 127.0000 Du        
  29508 ****       120.0000 155.0000 127.2500 Du        
  29509 ****       120.0000 155.0000 127.5000 Du        
  29510 ****       120.0000 155.0000 136.0000 Du        
  29511 ****       120.0000 155.0000 136.2500 Du        
  29512 ****       120.0000 155.0000 136.5000 Du        
  29513 ****       120.0000 155.0000 136.7500 Du        
  29514 ****       120.0000 155.0000 137.0000 Du        
  29515 ****       120.0000 155.0000 137.2500 Du        
  29516 ****       120.0000 155.0000 137.5000 Du        
  29517 ****       120.0000 155.0000 137.7500 Du        
  29518 ****       120.0000 155.0000 138.0000 Du        
  29519 ****       120.0000 155.0000 138.2500 Du        
  29520 ****       120.0000 155.2500 114.5000 Du        
  29521 ****       120.0000 155.2500 114.7500 Du        
  29522 ****       120.0000 155.2500 115.0000 Du        
  29523 ****       120.0000 155.2500 115.2500 Du        
  29524 ****       120.0000 155.2500 115.5000 Du        
  29525 ****       120.0000 155.2500 125.7500 Du        
  29526 ****       120.0000 155.2500 126.0000 Du        
  29527 ****       120.0000 155.2500 126.2500 Du        
  29528 ****       120.0000 155.2500 126.5000 Du        
  29529 ****       120.0000 155.2500 126.7500 Du        
  29530 ****       120.0000 155.2500 127.0000 Du        
  29531 ****       120.0000 155.2500 127.2500 Du        
  29532 ****       120.0000 155.2500 136.0000 Du        
  29533 ****       120.0000 155.2500 136.2500 Du        
  29534 ****       120.0000 155.2500 136.5000 Du        
  29535 ****       120.0000 155.2500 136.7500 Du        
  29536 ****       120.0000 155.2500 137.0000 Du        
  29537 ****       120.0000 155.2500 137.2500 Du        
  29538 ****       120.0000 155.2500 137.5000 Du        
  29539 ****       120.0000 155.2500 137.7500 Du        
  29540 ****       120.0000 155.2500 138.0000 Du        
  29541 ****       120.0000 155.2500 138.2500 Du        
  29542 ****       120.0000 155.5000 114.0000 Du        
  29543 ****       120.0000 155.5000 114.2500 Du        
  29544 ****       120.0000 155.5000 114.5000 Du        
  29545 ****       120.0000 155.5000 114.7500 Du        
  29546 ****       120.0000 155.5000 115.0000 Du        
  29547 ****       120.0000 155.5000 115.2500 Du        
  29548 ****       120.0000 155.5000 115.5000 Du        
  29549 ****       120.0000 155.5000 126.0000 Du        
  29550 ****       120.0000 155.5000 126.2500 Du        
  29551 ****       120.0000 155.5000 126.5000 Du        
  29552 ****       120.0000 155.5000 126.7500 Du        
  29553 ****       120.0000 155.5000 127.0000 Du        
  29554 ****       120.0000 155.5000 127.2500 Du        
  29555 ****       120.0000 155.5000 136.2500 Du        
  29556 ****       120.0000 155.5000 136.5000 Du        
  29557 ****       120.0000 155.5000 136.7500 Du        
  29558 ****       120.0000 155.5000 137.0000 Du        
  29559 ****       120.0000 155.5000 137.2500 Du        
  29560 ****       120.0000 155.5000 137.5000 Du        
  29561 ****       120.0000 155.5000 137.7500 Du        
  29562 ****       120.0000 155.5000 138.0000 Du        
  29563 ****       120.0000 155.7500 113.7500 Du        
  29564 ****       120.0000 155.7500 114.0000 Du        
  29565 ****       120.0000 155.7500 114.2500 Du        
  29566 ****       120.0000 155.7500 114.5000 Du        
  29567 ****       120.0000 155.7500 114.7500 Du        
  29568 ****       120.0000 155.7500 115.0000 Du        
  29569 ****       120.0000 155.7500 115.2500 Du        
  29570 ****       120.0000 155.7500 115.5000 Du        
  29571 ****       120.0000 155.7500 125.7500 Du        
  29572 ****       120.0000 155.7500 126.0000 Du        
  29573 ****       120.0000 155.7500 126.2500 Du        
  29574 ****       120.0000 155.7500 126.5000 Du        
  29575 ****       120.0000 155.7500 126.7500 Du        
  29576 ****       120.0000 155.7500 127.0000 Du        
  29577 ****       120.0000 155.7500 137.5000 Du        
  29578 ****       120.0000 155.7500 137.7500 Du        
  29579 ****       120.0000 156.0000 113.7500 Du        
  29580 ****       120.0000 156.0000 114.0000 Du        
  29581 ****       120.0000 156.0000 114.2500 Du        
  29582 ****       120.0000 156.0000 114.5000 Du        
  29583 ****       120.0000 156.0000 114.7500 Du        
  29584 ****       120.0000 156.0000 115.0000 Du        
  29585 ****       120.0000 156.0000 115.2500 Du        
  29586 ****       120.0000 156.0000 115.5000 Du        
  29587 ****       120.0000 156.0000 125.7500 Du        
  29588 ****       120.0000 156.0000 126.0000 Du        
  29589 ****       120.0000 156.0000 126.2500 Du        
  29590 ****       120.0000 156.0000 126.5000 Du        
  29591 ****       120.0000 156.0000 126.7500 Du        
  29592 ****       120.0000 156.0000 127.0000 Du        
  29593 ****       120.0000 156.2500 113.7500 Du        
  29594 ****       120.0000 156.2500 114.0000 Du        
  29595 ****       120.0000 156.2500 114.2500 Du        
  29596 ****       120.0000 156.2500 114.5000 Du        
  29597 ****       120.0000 156.2500 114.7500 Du        
  29598 ****       120.0000 156.2500 115.0000 Du        
  29599 ****       120.0000 156.2500 115.2500 Du        
  29600 ****       120.0000 156.2500 115.5000 Du        
  29601 ****       120.0000 156.2500 125.7500 Du        
  29602 ****       120.0000 156.2500 126.0000 Du        
  29603 ****       120.0000 156.2500 126.2500 Du        
  29604 ****       120.0000 156.2500 126.5000 Du        
  29605 ****       120.0000 156.2500 126.7500 Du        
  29606 ****       120.0000 156.2500 127.0000 Du        
  29607 ****       120.0000 156.5000 113.7500 Du        
  29608 ****       120.0000 156.5000 114.0000 Du        
  29609 ****       120.0000 156.5000 114.2500 Du        
  29610 ****       120.0000 156.5000 114.5000 Du        
  29611 ****       120.0000 156.5000 114.7500 Du        
  29612 ****       120.0000 156.5000 115.0000 Du        
  29613 ****       120.0000 156.5000 115.2500 Du        
  29614 ****       120.0000 156.5000 115.5000 Du        
  29615 ****       120.0000 156.5000 115.7500 Du        
  29616 ****       120.0000 156.5000 125.5000 Du        
  29617 ****       120.0000 156.5000 125.7500 Du        
  29618 ****       120.0000 156.5000 126.0000 Du        
  29619 ****       120.0000 156.5000 126.2500 Du        
  29620 ****       120.0000 156.5000 126.5000 Du        
  29621 ****       120.0000 156.5000 126.7500 Du        
  29622 ****       120.0000 156.5000 127.0000 Du        
  29623 ****       120.0000 156.7500 113.7500 Du        
  29624 ****       120.0000 156.7500 114.0000 Du        
  29625 ****       120.0000 156.7500 114.2500 Du        
  29626 ****       120.0000 156.7500 114.5000 Du        
  29627 ****       120.0000 156.7500 114.7500 Du        
  29628 ****       120.0000 156.7500 115.0000 Du        
  29629 ****       120.0000 156.7500 115.2500 Du        
  29630 ****       120.0000 156.7500 115.5000 Du        
  29631 ****       120.0000 156.7500 115.7500 Du        
  29632 ****       120.0000 156.7500 125.5000 Du        
  29633 ****       120.0000 156.7500 125.7500 Du        
  29634 ****       120.0000 156.7500 126.0000 Du        
  29635 ****       120.0000 156.7500 126.2500 Du        
  29636 ****       120.0000 156.7500 126.5000 Du        
  29637 ****       120.0000 156.7500 126.7500 Du        
  29638 ****       120.0000 156.7500 127.0000 Du        
  29639 ****       120.0000 157.0000 113.5000 Du        
  29640 ****       120.0000 157.0000 113.7500 Du        
  29641 ****       120.0000 157.0000 114.0000 Du        
  29642 ****       120.0000 157.0000 114.2500 Du        
  29643 ****       120.0000 157.0000 114.5000 Du        
  29644 ****       120.0000 157.0000 114.7500 Du        
  29645 ****       120.0000 157.0000 115.0000 Du        
  29646 ****       120.0000 157.0000 115.2500 Du        
  29647 ****       120.0000 157.0000 115.5000 Du        
  29648 ****       120.0000 157.0000 115.7500 Du        
  29649 ****       120.0000 157.0000 125.5000 Du        
  29650 ****       120.0000 157.0000 125.7500 Du        
  29651 ****       120.0000 157.0000 126.0000 Du        
  29652 ****       120.0000 157.0000 126.2500 Du        
  29653 ****       120.0000 157.0000 126.5000 Du        
  29654 ****       120.0000 157.0000 126.7500 Du        
  29655 ****       120.0000 157.0000 127.0000 Du        
  29656 ****       120.0000 157.2500 113.7500 Du        
  29657 ****       120.0000 157.2500 114.0000 Du        
  29658 ****       120.0000 157.2500 114.2500 Du        
  29659 ****       120.0000 157.2500 114.5000 Du        
  29660 ****       120.0000 157.2500 114.7500 Du        
  29661 ****       120.0000 157.2500 115.0000 Du        
  29662 ****       120.0000 157.2500 115.2500 Du        
  29663 ****       120.0000 157.2500 115.5000 Du        
  29664 ****       120.0000 157.2500 115.7500 Du        
  29665 ****       120.0000 157.2500 116.0000 Du        
  29666 ****       120.0000 157.5000 114.7500 Du        
  29667 ****       120.0000 157.5000 115.0000 Du        
  29668 ****       120.0000 157.5000 115.2500 Du        
  29669 ****       120.0000 157.5000 115.5000 Du        
  29670 ****       120.0000 157.5000 115.7500 Du        
  29671 ****       120.0000 157.5000 116.0000 Du        
  29672 ****       120.0000 157.7500 115.0000 Du        
  29673 ****       120.0000 157.7500 115.2500 Du        
  29674 ****       120.0000 157.7500 115.5000 Du        
  29675 ****       120.0000 157.7500 115.7500 Du        
  29676 ****       120.0000 157.7500 116.0000 Du        
  29677 ****       120.0000 157.7500 116.2500 Du        
  29678 ****       120.0000 158.0000 115.2500 Du        
  29679 ****       120.0000 158.0000 115.5000 Du        
  29680 ****       120.0000 158.0000 115.7500 Du        
  29681 ****       120.0000 158.0000 116.0000 Du        
  29682 ****       120.0000 158.0000 116.2500 Du        
  29683 ****       120.0000 158.2500 115.2500 Du        
  29684 ****       120.0000 158.2500 115.5000 Du        
  29685 ****       120.0000 158.2500 115.7500 Du        
  29686 ****       120.0000 158.2500 116.0000 Du        
  29687 ****       120.0000 158.2500 123.2500 Du        
  29688 ****       120.0000 158.5000 115.2500 Du        
  29689 ****       120.0000 158.5000 115.5000 Du        
  29690 ****       120.0000 158.5000 115.7500 Du        
  29691 ****       120.0000 158.5000 116.0000 Du        
  29692 ****       120.0000 158.5000 116.2500 Du        
  29693 ****       120.0000 158.7500 115.2500 Du        
  29694 ****       120.0000 158.7500 115.5000 Du        
  29695 ****       120.0000 158.7500 115.7500 Du        
  29696 ****       120.0000 158.7500 116.0000 Du        
  29697 ****       120.0000 158.7500 116.2500 Du        
  29698 ****       120.0000 159.0000 115.2500 Du        
  29699 ****       120.0000 159.0000 115.5000 Du        
  29700 ****       120.0000 159.0000 115.7500 Du        
  29701 ****       120.0000 159.0000 116.0000 Du        
  29702 ****       120.0000 159.0000 116.2500 Du        
  29703 ****       120.0000 159.2500 115.5000 Du        
  29704 ****       120.0000 159.2500 115.7500 Du        
  29705 ****       120.0000 159.2500 116.0000 Du        
  29706 ****       120.0000 159.2500 116.2500 Du        
  29707 ****       120.0000 159.5000 115.5000 Du        
  29708 ****       120.0000 159.5000 115.7500 Du        
  29709 ****       120.0000 159.5000 116.0000 Du        
  29710 ****       120.0000 159.5000 116.2500 Du        
  29711 ****       120.0000 159.7500 115.7500 Du        
  29712 ****       120.0000 159.7500 116.0000 Du        
  29713 ****       120.0000 159.7500 116.2500 Du        
  29714 ****       120.0000 159.7500 116.5000 Du        
  29715 ****       120.0000 160.0000 116.2500 Du        
  29716 ****       120.0000 160.0000 116.5000 Du        
  29717 ****       120.2500 134.0000 144.2500 Du        
  29718 ****       120.2500 134.2500 144.2500 Du        
  29719 ****       120.2500 136.0000 129.7500 Du        
  29720 ****       120.2500 136.2500 129.5000 Du        
  29721 ****       120.2500 136.2500 129.7500 Du        
  29722 ****       120.2500 136.2500 130.0000 Du        
  29723 ****       120.2500 136.2500 130.2500 Du        
  29724 ****       120.2500 136.5000 129.0000 Du        
  29725 ****       120.2500 136.5000 129.5000 Du        
  29726 ****       120.2500 136.5000 129.7500 Du        
  29727 ****       120.2500 136.5000 130.0000 Du        
  29728 ****       120.2500 136.5000 130.2500 Du        
  29729 ****       120.2500 136.5000 130.5000 Du        
  29730 ****       120.2500 136.5000 130.7500 Du        
  29731 ****       120.2500 136.5000 131.0000 Du        
  29732 ****       120.2500 136.7500 128.5000 Du        
  29733 ****       120.2500 136.7500 128.7500 Du        
  29734 ****       120.2500 136.7500 129.0000 Du        
  29735 ****       120.2500 136.7500 129.2500 Du        
  29736 ****       120.2500 136.7500 129.5000 Du        
  29737 ****       120.2500 136.7500 129.7500 Du        
  29738 ****       120.2500 136.7500 130.0000 Du        
  29739 ****       120.2500 136.7500 130.2500 Du        
  29740 ****       120.2500 136.7500 130.5000 Du        
  29741 ****       120.2500 136.7500 130.7500 Du        
  29742 ****       120.2500 136.7500 131.0000 Du        
  29743 ****       120.2500 137.0000 127.2500 Du        
  29744 ****       120.2500 137.0000 127.7500 Du        
  29745 ****       120.2500 137.0000 128.0000 Du        
  29746 ****       120.2500 137.0000 128.2500 Du        
  29747 ****       120.2500 137.0000 128.5000 Du        
  29748 ****       120.2500 137.0000 128.7500 Du        
  29749 ****       120.2500 137.0000 129.0000 Du        
  29750 ****       120.2500 137.0000 129.2500 Du        
  29751 ****       120.2500 137.0000 129.5000 Du        
  29752 ****       120.2500 137.0000 129.7500 Du        
  29753 ****       120.2500 137.0000 130.0000 Du        
  29754 ****       120.2500 137.0000 130.2500 Du        
  29755 ****       120.2500 137.0000 130.5000 Du        
  29756 ****       120.2500 137.0000 130.7500 Du        
  29757 ****       120.2500 137.0000 131.0000 Du        
  29758 ****       120.2500 137.0000 131.2500 Du        
  29759 ****       120.2500 137.2500 127.2500 Du        
  29760 ****       120.2500 137.2500 127.5000 Du        
  29761 ****       120.2500 137.2500 127.7500 Du        
  29762 ****       120.2500 137.2500 128.0000 Du        
  29763 ****       120.2500 137.2500 128.2500 Du        
  29764 ****       120.2500 137.2500 128.5000 Du        
  29765 ****       120.2500 137.2500 128.7500 Du        
  29766 ****       120.2500 137.2500 129.0000 Du        
  29767 ****       120.2500 137.2500 129.2500 Du        
  29768 ****       120.2500 137.2500 129.5000 Du        
  29769 ****       120.2500 137.2500 129.7500 Du        
  29770 ****       120.2500 137.2500 130.0000 Du        
  29771 ****       120.2500 137.2500 130.2500 Du        
  29772 ****       120.2500 137.2500 130.5000 Du        
  29773 ****       120.2500 137.2500 130.7500 Du        
  29774 ****       120.2500 137.2500 131.0000 Du        
  29775 ****       120.2500 137.5000 127.0000 Du        
  29776 ****       120.2500 137.5000 127.2500 Du        
  29777 ****       120.2500 137.5000 127.5000 Du        
  29778 ****       120.2500 137.5000 127.7500 Du        
  29779 ****       120.2500 137.5000 128.0000 Du        
  29780 ****       120.2500 137.5000 128.2500 Du        
  29781 ****       120.2500 137.5000 128.5000 Du        
  29782 ****       120.2500 137.5000 128.7500 Du        
  29783 ****       120.2500 137.5000 129.0000 Du        
  29784 ****       120.2500 137.5000 129.2500 Du        
  29785 ****       120.2500 137.5000 129.5000 Du        
  29786 ****       120.2500 137.5000 129.7500 Du        
  29787 ****       120.2500 137.5000 130.0000 Du        
  29788 ****       120.2500 137.5000 130.2500 Du        
  29789 ****       120.2500 137.5000 130.5000 Du        
  29790 ****       120.2500 137.5000 130.7500 Du        
  29791 ****       120.2500 137.7500 127.0000 Du        
  29792 ****       120.2500 137.7500 127.2500 Du        
  29793 ****       120.2500 137.7500 127.5000 Du        
  29794 ****       120.2500 137.7500 127.7500 Du        
  29795 ****       120.2500 137.7500 128.0000 Du        
  29796 ****       120.2500 137.7500 128.2500 Du        
  29797 ****       120.2500 137.7500 128.5000 Du        
  29798 ****       120.2500 137.7500 128.7500 Du        
  29799 ****       120.2500 137.7500 129.0000 Du        
  29800 ****       120.2500 137.7500 129.2500 Du        
  29801 ****       120.2500 137.7500 129.5000 Du        
  29802 ****       120.2500 137.7500 129.7500 Du        
  29803 ****       120.2500 137.7500 130.0000 Du        
  29804 ****       120.2500 137.7500 130.2500 Du        
  29805 ****       120.2500 138.0000 127.5000 Du        
  29806 ****       120.2500 138.0000 127.7500 Du        
  29807 ****       120.2500 138.0000 128.0000 Du        
  29808 ****       120.2500 138.0000 128.2500 Du        
  29809 ****       120.2500 138.0000 128.5000 Du        
  29810 ****       120.2500 138.0000 128.7500 Du        
  29811 ****       120.2500 138.0000 129.0000 Du        
  29812 ****       120.2500 138.0000 129.2500 Du        
  29813 ****       120.2500 138.0000 129.5000 Du        
  29814 ****       120.2500 138.0000 129.7500 Du        
  29815 ****       120.2500 138.2500 128.7500 Du        
  29816 ****       120.2500 138.2500 129.0000 Du        
  29817 ****       120.2500 138.2500 129.2500 Du        
  29818 ****       120.2500 138.2500 129.5000 Du        
  29819 ****       120.2500 140.5000 123.5000 Du        
  29820 ****       120.2500 140.5000 123.7500 Du        
  29821 ****       120.2500 140.5000 124.0000 Du        
  29822 ****       120.2500 140.5000 124.2500 Du        
  29823 ****       120.2500 140.5000 124.5000 Du        
  29824 ****       120.2500 140.7500 123.5000 Du        
  29825 ****       120.2500 140.7500 123.7500 Du        
  29826 ****       120.2500 140.7500 124.0000 Du        
  29827 ****       120.2500 140.7500 124.2500 Du        
  29828 ****       120.2500 140.7500 124.5000 Du        
  29829 ****       120.2500 140.7500 124.7500 Du        
  29830 ****       120.2500 141.0000 123.2500 Du        
  29831 ****       120.2500 141.0000 123.5000 Du        
  29832 ****       120.2500 141.0000 123.7500 Du        
  29833 ****       120.2500 141.0000 124.0000 Du        
  29834 ****       120.2500 141.0000 124.2500 Du        
  29835 ****       120.2500 141.0000 124.5000 Du        
  29836 ****       120.2500 141.0000 124.7500 Du        
  29837 ****       120.2500 141.2500 123.2500 Du        
  29838 ****       120.2500 141.2500 123.5000 Du        
  29839 ****       120.2500 141.2500 123.7500 Du        
  29840 ****       120.2500 141.2500 124.0000 Du        
  29841 ****       120.2500 141.2500 124.2500 Du        
  29842 ****       120.2500 141.2500 124.5000 Du        
  29843 ****       120.2500 141.2500 124.7500 Du        
  29844 ****       120.2500 141.5000 117.7500 Du        
  29845 ****       120.2500 141.5000 118.0000 Du        
  29846 ****       120.2500 141.5000 123.2500 Du        
  29847 ****       120.2500 141.5000 123.5000 Du        
  29848 ****       120.2500 141.5000 123.7500 Du        
  29849 ****       120.2500 141.5000 124.0000 Du        
  29850 ****       120.2500 141.5000 124.2500 Du        
  29851 ****       120.2500 141.5000 124.5000 Du        
  29852 ****       120.2500 141.5000 124.7500 Du        
  29853 ****       120.2500 141.5000 125.0000 Du        
  29854 ****       120.2500 141.7500 117.7500 Du        
  29855 ****       120.2500 141.7500 118.0000 Du        
  29856 ****       120.2500 141.7500 123.0000 Du        
  29857 ****       120.2500 141.7500 123.2500 Du        
  29858 ****       120.2500 141.7500 123.5000 Du        
  29859 ****       120.2500 141.7500 123.7500 Du        
  29860 ****       120.2500 141.7500 124.0000 Du        
  29861 ****       120.2500 141.7500 124.2500 Du        
  29862 ****       120.2500 141.7500 124.5000 Du        
  29863 ****       120.2500 141.7500 124.7500 Du        
  29864 ****       120.2500 141.7500 125.0000 Du        
  29865 ****       120.2500 141.7500 125.2500 Du        
  29866 ****       120.2500 142.0000 117.7500 Du        
  29867 ****       120.2500 142.0000 118.0000 Du        
  29868 ****       120.2500 142.0000 123.0000 Du        
  29869 ****       120.2500 142.0000 123.2500 Du        
  29870 ****       120.2500 142.0000 123.5000 Du        
  29871 ****       120.2500 142.0000 123.7500 Du        
  29872 ****       120.2500 142.0000 124.0000 Du        
  29873 ****       120.2500 142.0000 124.2500 Du        
  29874 ****       120.2500 142.0000 124.5000 Du        
  29875 ****       120.2500 142.0000 124.7500 Du        
  29876 ****       120.2500 142.0000 125.0000 Du        
  29877 ****       120.2500 142.0000 125.2500 Du        
  29878 ****       120.2500 142.0000 125.5000 Du        
  29879 ****       120.2500 142.2500 117.5000 Du        
  29880 ****       120.2500 142.2500 117.7500 Du        
  29881 ****       120.2500 142.2500 118.0000 Du        
  29882 ****       120.2500 142.2500 123.0000 Du        
  29883 ****       120.2500 142.2500 123.2500 Du        
  29884 ****       120.2500 142.2500 123.5000 Du        
  29885 ****       120.2500 142.2500 123.7500 Du        
  29886 ****       120.2500 142.2500 124.0000 Du        
  29887 ****       120.2500 142.2500 124.2500 Du        
  29888 ****       120.2500 142.2500 124.5000 Du        
  29889 ****       120.2500 142.2500 124.7500 Du        
  29890 ****       120.2500 142.2500 125.0000 Du        
  29891 ****       120.2500 142.2500 125.2500 Du        
  29892 ****       120.2500 142.2500 125.5000 Du        
  29893 ****       120.2500 142.2500 133.7500 Du        
  29894 ****       120.2500 142.5000 117.5000 Du        
  29895 ****       120.2500 142.5000 117.7500 Du        
  29896 ****       120.2500 142.5000 118.0000 Du        
  29897 ****       120.2500 142.5000 123.2500 Du        
  29898 ****       120.2500 142.5000 123.5000 Du        
  29899 ****       120.2500 142.5000 123.7500 Du        
  29900 ****       120.2500 142.5000 124.0000 Du        
  29901 ****       120.2500 142.5000 124.2500 Du        
  29902 ****       120.2500 142.5000 124.5000 Du        
  29903 ****       120.2500 142.5000 124.7500 Du        
  29904 ****       120.2500 142.5000 125.0000 Du        
  29905 ****       120.2500 142.5000 125.2500 Du        
  29906 ****       120.2500 142.5000 125.5000 Du        
  29907 ****       120.2500 142.5000 125.7500 Du        
  29908 ****       120.2500 142.5000 133.7500 Du        
  29909 ****       120.2500 142.7500 117.2500 Du        
  29910 ****       120.2500 142.7500 117.5000 Du        
  29911 ****       120.2500 142.7500 117.7500 Du        
  29912 ****       120.2500 142.7500 118.0000 Du        
  29913 ****       120.2500 142.7500 123.7500 Du        
  29914 ****       120.2500 142.7500 124.0000 Du        
  29915 ****       120.2500 142.7500 124.2500 Du        
  29916 ****       120.2500 142.7500 124.5000 Du        
  29917 ****       120.2500 142.7500 124.7500 Du        
  29918 ****       120.2500 142.7500 125.0000 Du        
  29919 ****       120.2500 142.7500 125.2500 Du        
  29920 ****       120.2500 142.7500 125.5000 Du        
  29921 ****       120.2500 142.7500 125.7500 Du        
  29922 ****       120.2500 142.7500 126.0000 Du        
  29923 ****       120.2500 142.7500 133.7500 Du        
  29924 ****       120.2500 142.7500 134.0000 Du        
  29925 ****       120.2500 143.0000 117.5000 Du        
  29926 ****       120.2500 143.0000 117.7500 Du        
  29927 ****       120.2500 143.0000 118.0000 Du        
  29928 ****       120.2500 143.0000 124.5000 Du        
  29929 ****       120.2500 143.0000 124.7500 Du        
  29930 ****       120.2500 143.0000 125.0000 Du        
  29931 ****       120.2500 143.0000 125.2500 Du        
  29932 ****       120.2500 143.0000 125.5000 Du        
  29933 ****       120.2500 143.0000 125.7500 Du        
  29934 ****       120.2500 143.0000 126.0000 Du        
  29935 ****       120.2500 143.0000 126.2500 Du        
  29936 ****       120.2500 143.2500 117.5000 Du        
  29937 ****       120.2500 143.2500 117.7500 Du        
  29938 ****       120.2500 143.2500 118.0000 Du        
  29939 ****       120.2500 143.2500 125.0000 Du        
  29940 ****       120.2500 143.2500 125.2500 Du        
  29941 ****       120.2500 143.2500 125.5000 Du        
  29942 ****       120.2500 143.2500 125.7500 Du        
  29943 ****       120.2500 143.2500 126.0000 Du        
  29944 ****       120.2500 143.2500 126.2500 Du        
  29945 ****       120.2500 143.2500 126.5000 Du        
  29946 ****       120.2500 143.5000 117.7500 Du        
  29947 ****       120.2500 143.5000 118.0000 Du        
  29948 ****       120.2500 143.5000 125.2500 Du        
  29949 ****       120.2500 143.5000 125.5000 Du        
  29950 ****       120.2500 143.5000 125.7500 Du        
  29951 ****       120.2500 143.5000 126.0000 Du        
  29952 ****       120.2500 143.5000 126.2500 Du        
  29953 ****       120.2500 143.5000 126.5000 Du        
  29954 ****       120.2500 143.5000 126.7500 Du        
  29955 ****       120.2500 143.5000 127.0000 Du        
  29956 ****       120.2500 143.7500 125.5000 Du        
  29957 ****       120.2500 143.7500 125.7500 Du        
  29958 ****       120.2500 143.7500 126.0000 Du        
  29959 ****       120.2500 143.7500 126.2500 Du        
  29960 ****       120.2500 143.7500 126.5000 Du        
  29961 ****       120.2500 143.7500 126.7500 Du        
  29962 ****       120.2500 143.7500 127.0000 Du        
  29963 ****       120.2500 143.7500 127.2500 Du        
  29964 ****       120.2500 144.0000 125.7500 Du        
  29965 ****       120.2500 144.0000 126.0000 Du        
  29966 ****       120.2500 144.0000 126.2500 Du        
  29967 ****       120.2500 144.0000 126.5000 Du        
  29968 ****       120.2500 144.0000 126.7500 Du        
  29969 ****       120.2500 144.0000 127.0000 Du        
  29970 ****       120.2500 144.0000 128.0000 Du        
  29971 ****       120.2500 144.2500 128.2500 Du        
  29972 ****       120.2500 147.7500 119.0000 Du        
  29973 ****       120.2500 147.7500 128.0000 Du        
  29974 ****       120.2500 147.7500 128.2500 Du        
  29975 ****       120.2500 148.0000 118.7500 Du        
  29976 ****       120.2500 148.0000 119.0000 Du        
  29977 ****       120.2500 148.0000 127.7500 Du        
  29978 ****       120.2500 148.0000 128.0000 Du        
  29979 ****       120.2500 148.0000 128.2500 Du        
  29980 ****       120.2500 148.2500 118.5000 Du        
  29981 ****       120.2500 148.2500 118.7500 Du        
  29982 ****       120.2500 148.2500 119.0000 Du        
  29983 ****       120.2500 148.2500 119.2500 Du        
  29984 ****       120.2500 148.2500 128.0000 Du        
  29985 ****       120.2500 148.2500 128.2500 Du        
  29986 ****       120.2500 148.5000 128.0000 Du        
  29987 ****       120.2500 148.5000 128.2500 Du        
  29988 ****       120.2500 149.5000 117.7500 Du        
  29989 ****       120.2500 149.5000 118.0000 Du        
  29990 ****       120.2500 149.5000 118.2500 Du        
  29991 ****       120.2500 149.5000 118.5000 Du        
  29992 ****       120.2500 149.7500 109.5000 Du        
  29993 ****       120.2500 149.7500 109.7500 Du        
  29994 ****       120.2500 149.7500 110.0000 Du        
  29995 ****       120.2500 149.7500 117.7500 Du        
  29996 ****       120.2500 149.7500 118.0000 Du        
  29997 ****       120.2500 149.7500 118.2500 Du        
  29998 ****       120.2500 150.0000 109.5000 Du        
  29999 ****       120.2500 150.0000 109.7500 Du        
  30000 ****       120.2500 150.0000 110.0000 Du        
  30001 ****       120.2500 150.0000 117.7500 Du        
  30002 ****       120.2500 150.0000 118.0000 Du        
  30003 ****       120.2500 150.0000 118.2500 Du        
  30004 ****       120.2500 150.2500 109.5000 Du        
  30005 ****       120.2500 150.2500 109.7500 Du        
  30006 ****       120.2500 150.2500 110.0000 Du        
  30007 ****       120.2500 150.2500 117.7500 Du        
  30008 ****       120.2500 150.2500 118.0000 Du        
  30009 ****       120.2500 152.2500 128.5000 Du        
  30010 ****       120.2500 152.2500 128.7500 Du        
  30011 ****       120.2500 152.2500 129.0000 Du        
  30012 ****       120.2500 152.5000 128.0000 Du        
  30013 ****       120.2500 152.5000 128.2500 Du        
  30014 ****       120.2500 152.5000 128.5000 Du        
  30015 ****       120.2500 152.5000 128.7500 Du        
  30016 ****       120.2500 152.5000 129.0000 Du        
  30017 ****       120.2500 152.5000 129.2500 Du        
  30018 ****       120.2500 152.7500 127.7500 Du        
  30019 ****       120.2500 152.7500 128.0000 Du        
  30020 ****       120.2500 152.7500 128.2500 Du        
  30021 ****       120.2500 152.7500 128.5000 Du        
  30022 ****       120.2500 152.7500 128.7500 Du        
  30023 ****       120.2500 152.7500 129.0000 Du        
  30024 ****       120.2500 152.7500 129.2500 Du        
  30025 ****       120.2500 152.7500 129.5000 Du        
  30026 ****       120.2500 152.7500 129.7500 Du        
  30027 ****       120.2500 152.7500 130.0000 Du        
  30028 ****       120.2500 153.0000 127.2500 Du        
  30029 ****       120.2500 153.0000 127.5000 Du        
  30030 ****       120.2500 153.0000 127.7500 Du        
  30031 ****       120.2500 153.0000 128.0000 Du        
  30032 ****       120.2500 153.0000 128.2500 Du        
  30033 ****       120.2500 153.0000 128.5000 Du        
  30034 ****       120.2500 153.0000 128.7500 Du        
  30035 ****       120.2500 153.0000 129.0000 Du        
  30036 ****       120.2500 153.0000 129.2500 Du        
  30037 ****       120.2500 153.0000 129.5000 Du        
  30038 ****       120.2500 153.0000 129.7500 Du        
  30039 ****       120.2500 153.0000 130.0000 Du        
  30040 ****       120.2500 153.2500 126.7500 Du        
  30041 ****       120.2500 153.2500 127.0000 Du        
  30042 ****       120.2500 153.2500 127.2500 Du        
  30043 ****       120.2500 153.2500 127.5000 Du        
  30044 ****       120.2500 153.2500 127.7500 Du        
  30045 ****       120.2500 153.2500 128.0000 Du        
  30046 ****       120.2500 153.2500 128.2500 Du        
  30047 ****       120.2500 153.2500 128.5000 Du        
  30048 ****       120.2500 153.2500 128.7500 Du        
  30049 ****       120.2500 153.2500 129.0000 Du        
  30050 ****       120.2500 153.2500 129.2500 Du        
  30051 ****       120.2500 153.2500 129.5000 Du        
  30052 ****       120.2500 153.2500 129.7500 Du        
  30053 ****       120.2500 153.5000 126.5000 Du        
  30054 ****       120.2500 153.5000 126.7500 Du        
  30055 ****       120.2500 153.5000 127.0000 Du        
  30056 ****       120.2500 153.5000 127.2500 Du        
  30057 ****       120.2500 153.5000 127.5000 Du        
  30058 ****       120.2500 153.5000 127.7500 Du        
  30059 ****       120.2500 153.5000 128.0000 Du        
  30060 ****       120.2500 153.5000 128.2500 Du        
  30061 ****       120.2500 153.5000 128.5000 Du        
  30062 ****       120.2500 153.5000 128.7500 Du        
  30063 ****       120.2500 153.5000 129.0000 Du        
  30064 ****       120.2500 153.5000 129.2500 Du        
  30065 ****       120.2500 153.7500 126.2500 Du        
  30066 ****       120.2500 153.7500 126.5000 Du        
  30067 ****       120.2500 153.7500 126.7500 Du        
  30068 ****       120.2500 153.7500 127.0000 Du        
  30069 ****       120.2500 153.7500 127.2500 Du        
  30070 ****       120.2500 153.7500 127.5000 Du        
  30071 ****       120.2500 153.7500 127.7500 Du        
  30072 ****       120.2500 153.7500 128.0000 Du        
  30073 ****       120.2500 153.7500 128.2500 Du        
  30074 ****       120.2500 153.7500 128.5000 Du        
  30075 ****       120.2500 153.7500 128.7500 Du        
  30076 ****       120.2500 153.7500 129.0000 Du        
  30077 ****       120.2500 154.0000 126.0000 Du        
  30078 ****       120.2500 154.0000 126.2500 Du        
  30079 ****       120.2500 154.0000 126.5000 Du        
  30080 ****       120.2500 154.0000 126.7500 Du        
  30081 ****       120.2500 154.0000 127.0000 Du        
  30082 ****       120.2500 154.0000 127.2500 Du        
  30083 ****       120.2500 154.0000 127.5000 Du        
  30084 ****       120.2500 154.0000 127.7500 Du        
  30085 ****       120.2500 154.0000 128.0000 Du        
  30086 ****       120.2500 154.0000 128.2500 Du        
  30087 ****       120.2500 154.0000 128.5000 Du        
  30088 ****       120.2500 154.2500 125.7500 Du        
  30089 ****       120.2500 154.2500 126.0000 Du        
  30090 ****       120.2500 154.2500 126.2500 Du        
  30091 ****       120.2500 154.2500 126.5000 Du        
  30092 ****       120.2500 154.2500 126.7500 Du        
  30093 ****       120.2500 154.2500 127.0000 Du        
  30094 ****       120.2500 154.2500 127.2500 Du        
  30095 ****       120.2500 154.2500 127.5000 Du        
  30096 ****       120.2500 154.2500 127.7500 Du        
  30097 ****       120.2500 154.2500 128.0000 Du        
  30098 ****       120.2500 154.5000 125.2500 Du        
  30099 ****       120.2500 154.5000 125.5000 Du        
  30100 ****       120.2500 154.5000 125.7500 Du        
  30101 ****       120.2500 154.5000 126.0000 Du        
  30102 ****       120.2500 154.5000 126.2500 Du        
  30103 ****       120.2500 154.5000 126.5000 Du        
  30104 ****       120.2500 154.5000 126.7500 Du        
  30105 ****       120.2500 154.5000 127.0000 Du        
  30106 ****       120.2500 154.5000 127.2500 Du        
  30107 ****       120.2500 154.5000 127.5000 Du        
  30108 ****       120.2500 154.5000 127.7500 Du        
  30109 ****       120.2500 154.5000 136.0000 Du        
  30110 ****       120.2500 154.5000 136.2500 Du        
  30111 ****       120.2500 154.5000 136.5000 Du        
  30112 ****       120.2500 154.5000 136.7500 Du        
  30113 ****       120.2500 154.5000 137.0000 Du        
  30114 ****       120.2500 154.5000 137.2500 Du        
  30115 ****       120.2500 154.5000 137.5000 Du        
  30116 ****       120.2500 154.5000 137.7500 Du        
  30117 ****       120.2500 154.5000 138.0000 Du        
  30118 ****       120.2500 154.7500 124.7500 Du        
  30119 ****       120.2500 154.7500 125.0000 Du        
  30120 ****       120.2500 154.7500 125.2500 Du        
  30121 ****       120.2500 154.7500 125.5000 Du        
  30122 ****       120.2500 154.7500 125.7500 Du        
  30123 ****       120.2500 154.7500 126.0000 Du        
  30124 ****       120.2500 154.7500 126.2500 Du        
  30125 ****       120.2500 154.7500 126.5000 Du        
  30126 ****       120.2500 154.7500 126.7500 Du        
  30127 ****       120.2500 154.7500 127.0000 Du        
  30128 ****       120.2500 154.7500 127.2500 Du        
  30129 ****       120.2500 154.7500 127.5000 Du        
  30130 ****       120.2500 154.7500 135.7500 Du        
  30131 ****       120.2500 154.7500 136.0000 Du        
  30132 ****       120.2500 154.7500 136.2500 Du        
  30133 ****       120.2500 154.7500 136.5000 Du        
  30134 ****       120.2500 154.7500 136.7500 Du        
  30135 ****       120.2500 154.7500 137.0000 Du        
  30136 ****       120.2500 154.7500 137.2500 Du        
  30137 ****       120.2500 154.7500 137.5000 Du        
  30138 ****       120.2500 154.7500 137.7500 Du        
  30139 ****       120.2500 154.7500 138.0000 Du        
  30140 ****       120.2500 155.0000 115.2500 Du        
  30141 ****       120.2500 155.0000 115.5000 Du        
  30142 ****       120.2500 155.0000 124.5000 Du        
  30143 ****       120.2500 155.0000 124.7500 Du        
  30144 ****       120.2500 155.0000 125.0000 Du        
  30145 ****       120.2500 155.0000 125.2500 Du        
  30146 ****       120.2500 155.0000 125.5000 Du        
  30147 ****       120.2500 155.0000 125.7500 Du        
  30148 ****       120.2500 155.0000 126.0000 Du        
  30149 ****       120.2500 155.0000 126.2500 Du        
  30150 ****       120.2500 155.0000 126.5000 Du        
  30151 ****       120.2500 155.0000 126.7500 Du        
  30152 ****       120.2500 155.0000 127.0000 Du        
  30153 ****       120.2500 155.0000 127.2500 Du        
  30154 ****       120.2500 155.0000 135.7500 Du        
  30155 ****       120.2500 155.0000 136.0000 Du        
  30156 ****       120.2500 155.0000 136.2500 Du        
  30157 ****       120.2500 155.0000 136.5000 Du        
  30158 ****       120.2500 155.0000 136.7500 Du        
  30159 ****       120.2500 155.0000 137.0000 Du        
  30160 ****       120.2500 155.0000 137.2500 Du        
  30161 ****       120.2500 155.0000 137.5000 Du        
  30162 ****       120.2500 155.0000 137.7500 Du        
  30163 ****       120.2500 155.0000 138.0000 Du        
  30164 ****       120.2500 155.2500 114.5000 Du        
  30165 ****       120.2500 155.2500 114.7500 Du        
  30166 ****       120.2500 155.2500 115.0000 Du        
  30167 ****       120.2500 155.2500 115.2500 Du        
  30168 ****       120.2500 155.2500 115.5000 Du        
  30169 ****       120.2500 155.2500 124.7500 Du        
  30170 ****       120.2500 155.2500 125.0000 Du        
  30171 ****       120.2500 155.2500 125.2500 Du        
  30172 ****       120.2500 155.2500 125.5000 Du        
  30173 ****       120.2500 155.2500 125.7500 Du        
  30174 ****       120.2500 155.2500 126.0000 Du        
  30175 ****       120.2500 155.2500 126.2500 Du        
  30176 ****       120.2500 155.2500 126.5000 Du        
  30177 ****       120.2500 155.2500 126.7500 Du        
  30178 ****       120.2500 155.2500 127.0000 Du        
  30179 ****       120.2500 155.2500 127.2500 Du        
  30180 ****       120.2500 155.2500 135.7500 Du        
  30181 ****       120.2500 155.2500 136.0000 Du        
  30182 ****       120.2500 155.2500 136.2500 Du        
  30183 ****       120.2500 155.2500 136.5000 Du        
  30184 ****       120.2500 155.2500 136.7500 Du        
  30185 ****       120.2500 155.2500 137.0000 Du        
  30186 ****       120.2500 155.2500 137.2500 Du        
  30187 ****       120.2500 155.2500 137.5000 Du        
  30188 ****       120.2500 155.2500 137.7500 Du        
  30189 ****       120.2500 155.2500 138.0000 Du        
  30190 ****       120.2500 155.5000 114.0000 Du        
  30191 ****       120.2500 155.5000 114.2500 Du        
  30192 ****       120.2500 155.5000 114.5000 Du        
  30193 ****       120.2500 155.5000 114.7500 Du        
  30194 ****       120.2500 155.5000 115.0000 Du        
  30195 ****       120.2500 155.5000 115.2500 Du        
  30196 ****       120.2500 155.5000 115.5000 Du        
  30197 ****       120.2500 155.5000 115.7500 Du        
  30198 ****       120.2500 155.5000 124.7500 Du        
  30199 ****       120.2500 155.5000 125.0000 Du        
  30200 ****       120.2500 155.5000 125.2500 Du        
  30201 ****       120.2500 155.5000 125.5000 Du        
  30202 ****       120.2500 155.5000 125.7500 Du        
  30203 ****       120.2500 155.5000 126.0000 Du        
  30204 ****       120.2500 155.5000 126.2500 Du        
  30205 ****       120.2500 155.5000 126.5000 Du        
  30206 ****       120.2500 155.5000 126.7500 Du        
  30207 ****       120.2500 155.5000 127.0000 Du        
  30208 ****       120.2500 155.5000 135.7500 Du        
  30209 ****       120.2500 155.5000 136.0000 Du        
  30210 ****       120.2500 155.5000 136.2500 Du        
  30211 ****       120.2500 155.5000 136.5000 Du        
  30212 ****       120.2500 155.5000 136.7500 Du        
  30213 ****       120.2500 155.5000 137.0000 Du        
  30214 ****       120.2500 155.5000 137.2500 Du        
  30215 ****       120.2500 155.5000 137.5000 Du        
  30216 ****       120.2500 155.5000 137.7500 Du        
  30217 ****       120.2500 155.5000 138.0000 Du        
  30218 ****       120.2500 155.7500 113.7500 Du        
  30219 ****       120.2500 155.7500 114.0000 Du        
  30220 ****       120.2500 155.7500 114.2500 Du        
  30221 ****       120.2500 155.7500 114.5000 Du        
  30222 ****       120.2500 155.7500 114.7500 Du        
  30223 ****       120.2500 155.7500 115.0000 Du        
  30224 ****       120.2500 155.7500 115.2500 Du        
  30225 ****       120.2500 155.7500 115.5000 Du        
  30226 ****       120.2500 155.7500 115.7500 Du        
  30227 ****       120.2500 155.7500 125.0000 Du        
  30228 ****       120.2500 155.7500 125.2500 Du        
  30229 ****       120.2500 155.7500 125.5000 Du        
  30230 ****       120.2500 155.7500 125.7500 Du        
  30231 ****       120.2500 155.7500 126.0000 Du        
  30232 ****       120.2500 155.7500 126.2500 Du        
  30233 ****       120.2500 155.7500 126.5000 Du        
  30234 ****       120.2500 155.7500 126.7500 Du        
  30235 ****       120.2500 155.7500 127.0000 Du        
  30236 ****       120.2500 155.7500 137.0000 Du        
  30237 ****       120.2500 155.7500 137.2500 Du        
  30238 ****       120.2500 155.7500 137.5000 Du        
  30239 ****       120.2500 155.7500 137.7500 Du        
  30240 ****       120.2500 156.0000 113.5000 Du        
  30241 ****       120.2500 156.0000 113.7500 Du        
  30242 ****       120.2500 156.0000 114.0000 Du        
  30243 ****       120.2500 156.0000 114.2500 Du        
  30244 ****       120.2500 156.0000 114.5000 Du        
  30245 ****       120.2500 156.0000 114.7500 Du        
  30246 ****       120.2500 156.0000 115.0000 Du        
  30247 ****       120.2500 156.0000 115.2500 Du        
  30248 ****       120.2500 156.0000 115.5000 Du        
  30249 ****       120.2500 156.0000 115.7500 Du        
  30250 ****       120.2500 156.0000 125.0000 Du        
  30251 ****       120.2500 156.0000 125.2500 Du        
  30252 ****       120.2500 156.0000 125.5000 Du        
  30253 ****       120.2500 156.0000 125.7500 Du        
  30254 ****       120.2500 156.0000 126.0000 Du        
  30255 ****       120.2500 156.0000 126.2500 Du        
  30256 ****       120.2500 156.0000 126.5000 Du        
  30257 ****       120.2500 156.0000 126.7500 Du        
  30258 ****       120.2500 156.0000 127.0000 Du        
  30259 ****       120.2500 156.2500 113.5000 Du        
  30260 ****       120.2500 156.2500 113.7500 Du        
  30261 ****       120.2500 156.2500 114.0000 Du        
  30262 ****       120.2500 156.2500 114.2500 Du        
  30263 ****       120.2500 156.2500 114.5000 Du        
  30264 ****       120.2500 156.2500 114.7500 Du        
  30265 ****       120.2500 156.2500 115.0000 Du        
  30266 ****       120.2500 156.2500 115.2500 Du        
  30267 ****       120.2500 156.2500 115.5000 Du        
  30268 ****       120.2500 156.2500 115.7500 Du        
  30269 ****       120.2500 156.2500 124.7500 Du        
  30270 ****       120.2500 156.2500 125.0000 Du        
  30271 ****       120.2500 156.2500 125.2500 Du        
  30272 ****       120.2500 156.2500 125.5000 Du        
  30273 ****       120.2500 156.2500 125.7500 Du        
  30274 ****       120.2500 156.2500 126.0000 Du        
  30275 ****       120.2500 156.2500 126.2500 Du        
  30276 ****       120.2500 156.2500 126.5000 Du        
  30277 ****       120.2500 156.2500 126.7500 Du        
  30278 ****       120.2500 156.2500 127.0000 Du        
  30279 ****       120.2500 156.5000 113.5000 Du        
  30280 ****       120.2500 156.5000 113.7500 Du        
  30281 ****       120.2500 156.5000 114.0000 Du        
  30282 ****       120.2500 156.5000 114.2500 Du        
  30283 ****       120.2500 156.5000 114.5000 Du        
  30284 ****       120.2500 156.5000 114.7500 Du        
  30285 ****       120.2500 156.5000 115.0000 Du        
  30286 ****       120.2500 156.5000 115.2500 Du        
  30287 ****       120.2500 156.5000 115.5000 Du        
  30288 ****       120.2500 156.5000 115.7500 Du        
  30289 ****       120.2500 156.5000 116.0000 Du        
  30290 ****       120.2500 156.5000 124.7500 Du        
  30291 ****       120.2500 156.5000 125.0000 Du        
  30292 ****       120.2500 156.5000 125.2500 Du        
  30293 ****       120.2500 156.5000 125.5000 Du        
  30294 ****       120.2500 156.5000 125.7500 Du        
  30295 ****       120.2500 156.5000 126.0000 Du        
  30296 ****       120.2500 156.5000 126.2500 Du        
  30297 ****       120.2500 156.5000 126.5000 Du        
  30298 ****       120.2500 156.5000 126.7500 Du        
  30299 ****       120.2500 156.5000 127.0000 Du        
  30300 ****       120.2500 156.7500 113.5000 Du        
  30301 ****       120.2500 156.7500 113.7500 Du        
  30302 ****       120.2500 156.7500 114.0000 Du        
  30303 ****       120.2500 156.7500 114.2500 Du        
  30304 ****       120.2500 156.7500 114.5000 Du        
  30305 ****       120.2500 156.7500 114.7500 Du        
  30306 ****       120.2500 156.7500 115.0000 Du        
  30307 ****       120.2500 156.7500 115.2500 Du        
  30308 ****       120.2500 156.7500 115.5000 Du        
  30309 ****       120.2500 156.7500 115.7500 Du        
  30310 ****       120.2500 156.7500 116.0000 Du        
  30311 ****       120.2500 156.7500 124.5000 Du        
  30312 ****       120.2500 156.7500 124.7500 Du        
  30313 ****       120.2500 156.7500 125.0000 Du        
  30314 ****       120.2500 156.7500 125.2500 Du        
  30315 ****       120.2500 156.7500 125.5000 Du        
  30316 ****       120.2500 156.7500 125.7500 Du        
  30317 ****       120.2500 156.7500 126.0000 Du        
  30318 ****       120.2500 156.7500 126.2500 Du        
  30319 ****       120.2500 156.7500 126.5000 Du        
  30320 ****       120.2500 156.7500 126.7500 Du        
  30321 ****       120.2500 156.7500 127.0000 Du        
  30322 ****       120.2500 157.0000 113.5000 Du        
  30323 ****       120.2500 157.0000 113.7500 Du        
  30324 ****       120.2500 157.0000 114.0000 Du        
  30325 ****       120.2500 157.0000 114.2500 Du        
  30326 ****       120.2500 157.0000 114.5000 Du        
  30327 ****       120.2500 157.0000 114.7500 Du        
  30328 ****       120.2500 157.0000 115.0000 Du        
  30329 ****       120.2500 157.0000 115.2500 Du        
  30330 ****       120.2500 157.0000 115.5000 Du        
  30331 ****       120.2500 157.0000 115.7500 Du        
  30332 ****       120.2500 157.0000 116.0000 Du        
  30333 ****       120.2500 157.0000 116.2500 Du        
  30334 ****       120.2500 157.0000 124.2500 Du        
  30335 ****       120.2500 157.0000 124.5000 Du        
  30336 ****       120.2500 157.0000 124.7500 Du        
  30337 ****       120.2500 157.0000 125.0000 Du        
  30338 ****       120.2500 157.0000 125.2500 Du        
  30339 ****       120.2500 157.0000 125.5000 Du        
  30340 ****       120.2500 157.0000 125.7500 Du        
  30341 ****       120.2500 157.0000 126.0000 Du        
  30342 ****       120.2500 157.0000 126.2500 Du        
  30343 ****       120.2500 157.0000 126.5000 Du        
  30344 ****       120.2500 157.0000 126.7500 Du        
  30345 ****       120.2500 157.0000 127.0000 Du        
  30346 ****       120.2500 157.2500 113.7500 Du        
  30347 ****       120.2500 157.2500 114.0000 Du        
  30348 ****       120.2500 157.2500 114.2500 Du        
  30349 ****       120.2500 157.2500 114.5000 Du        
  30350 ****       120.2500 157.2500 114.7500 Du        
  30351 ****       120.2500 157.2500 115.0000 Du        
  30352 ****       120.2500 157.2500 115.2500 Du        
  30353 ****       120.2500 157.2500 115.5000 Du        
  30354 ****       120.2500 157.2500 115.7500 Du        
  30355 ****       120.2500 157.2500 116.0000 Du        
  30356 ****       120.2500 157.2500 116.2500 Du        
  30357 ****       120.2500 157.2500 124.0000 Du        
  30358 ****       120.2500 157.2500 124.2500 Du        
  30359 ****       120.2500 157.2500 124.5000 Du        
  30360 ****       120.2500 157.2500 124.7500 Du        
  30361 ****       120.2500 157.2500 125.0000 Du        
  30362 ****       120.2500 157.2500 125.2500 Du        
  30363 ****       120.2500 157.2500 125.5000 Du        
  30364 ****       120.2500 157.2500 125.7500 Du        
  30365 ****       120.2500 157.2500 126.0000 Du        
  30366 ****       120.2500 157.2500 126.2500 Du        
  30367 ****       120.2500 157.2500 126.5000 Du        
  30368 ****       120.2500 157.2500 126.7500 Du        
  30369 ****       120.2500 157.5000 114.5000 Du        
  30370 ****       120.2500 157.5000 114.7500 Du        
  30371 ****       120.2500 157.5000 115.0000 Du        
  30372 ****       120.2500 157.5000 115.2500 Du        
  30373 ****       120.2500 157.5000 115.5000 Du        
  30374 ****       120.2500 157.5000 115.7500 Du        
  30375 ****       120.2500 157.5000 116.0000 Du        
  30376 ****       120.2500 157.5000 116.2500 Du        
  30377 ****       120.2500 157.5000 123.7500 Du        
  30378 ****       120.2500 157.5000 124.0000 Du        
  30379 ****       120.2500 157.5000 124.2500 Du        
  30380 ****       120.2500 157.5000 124.5000 Du        
  30381 ****       120.2500 157.5000 124.7500 Du        
  30382 ****       120.2500 157.7500 114.5000 Du        
  30383 ****       120.2500 157.7500 114.7500 Du        
  30384 ****       120.2500 157.7500 115.0000 Du        
  30385 ****       120.2500 157.7500 115.2500 Du        
  30386 ****       120.2500 157.7500 115.5000 Du        
  30387 ****       120.2500 157.7500 115.7500 Du        
  30388 ****       120.2500 157.7500 116.0000 Du        
  30389 ****       120.2500 157.7500 116.2500 Du        
  30390 ****       120.2500 157.7500 123.5000 Du        
  30391 ****       120.2500 157.7500 123.7500 Du        
  30392 ****       120.2500 157.7500 124.0000 Du        
  30393 ****       120.2500 157.7500 124.2500 Du        
  30394 ****       120.2500 158.0000 114.7500 Du        
  30395 ****       120.2500 158.0000 115.0000 Du        
  30396 ****       120.2500 158.0000 115.2500 Du        
  30397 ****       120.2500 158.0000 115.5000 Du        
  30398 ****       120.2500 158.0000 115.7500 Du        
  30399 ****       120.2500 158.0000 116.0000 Du        
  30400 ****       120.2500 158.0000 116.2500 Du        
  30401 ****       120.2500 158.0000 123.2500 Du        
  30402 ****       120.2500 158.0000 123.5000 Du        
  30403 ****       120.2500 158.0000 123.7500 Du        
  30404 ****       120.2500 158.2500 115.0000 Du        
  30405 ****       120.2500 158.2500 115.2500 Du        
  30406 ****       120.2500 158.2500 115.5000 Du        
  30407 ****       120.2500 158.2500 115.7500 Du        
  30408 ****       120.2500 158.2500 116.0000 Du        
  30409 ****       120.2500 158.2500 116.2500 Du        
  30410 ****       120.2500 158.2500 123.0000 Du        
  30411 ****       120.2500 158.2500 123.2500 Du        
  30412 ****       120.2500 158.5000 115.2500 Du        
  30413 ****       120.2500 158.5000 115.5000 Du        
  30414 ****       120.2500 158.5000 115.7500 Du        
  30415 ****       120.2500 158.5000 116.0000 Du        
  30416 ****       120.2500 158.5000 116.2500 Du        
  30417 ****       120.2500 158.5000 123.0000 Du        
  30418 ****       120.2500 158.5000 123.2500 Du        
  30419 ****       120.2500 158.7500 115.0000 Du        
  30420 ****       120.2500 158.7500 115.2500 Du        
  30421 ****       120.2500 158.7500 115.5000 Du        
  30422 ****       120.2500 158.7500 115.7500 Du        
  30423 ****       120.2500 158.7500 116.0000 Du        
  30424 ****       120.2500 158.7500 116.2500 Du        
  30425 ****       120.2500 159.0000 115.2500 Du        
  30426 ****       120.2500 159.0000 115.5000 Du        
  30427 ****       120.2500 159.0000 115.7500 Du        
  30428 ****       120.2500 159.0000 116.0000 Du        
  30429 ****       120.2500 159.0000 116.2500 Du        
  30430 ****       120.2500 159.2500 115.2500 Du        
  30431 ****       120.2500 159.2500 115.5000 Du        
  30432 ****       120.2500 159.2500 115.7500 Du        
  30433 ****       120.2500 159.2500 116.0000 Du        
  30434 ****       120.2500 159.2500 116.2500 Du        
  30435 ****       120.2500 159.5000 115.2500 Du        
  30436 ****       120.2500 159.5000 115.5000 Du        
  30437 ****       120.2500 159.5000 115.7500 Du        
  30438 ****       120.2500 159.5000 116.0000 Du        
  30439 ****       120.2500 159.5000 116.2500 Du        
  30440 ****       120.2500 159.5000 116.5000 Du        
  30441 ****       120.2500 159.7500 115.5000 Du        
  30442 ****       120.2500 159.7500 115.7500 Du        
  30443 ****       120.2500 159.7500 116.0000 Du        
  30444 ****       120.2500 159.7500 116.2500 Du        
  30445 ****       120.2500 159.7500 116.5000 Du        
  30446 ****       120.2500 160.0000 116.0000 Du        
  30447 ****       120.2500 160.0000 116.2500 Du        
  30448 ****       120.2500 160.0000 116.5000 Du        
  30449 ****       120.2500 160.2500 116.2500 Du        
  30450 ****       120.2500 160.2500 116.5000 Du        
  30451 ****       120.2500 160.2500 116.7500 Du        
  30452 ****       120.2500 160.5000 116.5000 Du        
  30453 ****       120.2500 160.5000 116.7500 Du        
  30454 ****       120.2500 160.7500 116.7500 Du        
  30455 ****       120.2500 160.7500 117.0000 Du        
  30456 ****       120.2500 161.0000 117.0000 Du        
  30457 ****       120.5000 134.0000 144.2500 Du        
  30458 ****       120.5000 136.0000 129.7500 Du        
  30459 ****       120.5000 136.0000 130.0000 Du        
  30460 ****       120.5000 136.0000 130.2500 Du        
  30461 ****       120.5000 136.2500 130.0000 Du        
  30462 ****       120.5000 136.2500 130.2500 Du        
  30463 ****       120.5000 136.5000 129.0000 Du        
  30464 ****       120.5000 136.5000 129.2500 Du        
  30465 ****       120.5000 136.5000 129.5000 Du        
  30466 ****       120.5000 136.5000 129.7500 Du        
  30467 ****       120.5000 136.5000 130.0000 Du        
  30468 ****       120.5000 136.5000 130.2500 Du        
  30469 ****       120.5000 136.5000 130.5000 Du        
  30470 ****       120.5000 136.5000 130.7500 Du        
  30471 ****       120.5000 136.7500 128.5000 Du        
  30472 ****       120.5000 136.7500 128.7500 Du        
  30473 ****       120.5000 136.7500 129.0000 Du        
  30474 ****       120.5000 136.7500 129.2500 Du        
  30475 ****       120.5000 136.7500 129.7500 Du        
  30476 ****       120.5000 136.7500 130.0000 Du        
  30477 ****       120.5000 136.7500 130.2500 Du        
  30478 ****       120.5000 136.7500 130.5000 Du        
  30479 ****       120.5000 136.7500 130.7500 Du        
  30480 ****       120.5000 136.7500 131.0000 Du        
  30481 ****       120.5000 137.0000 127.2500 Du        
  30482 ****       120.5000 137.0000 127.7500 Du        
  30483 ****       120.5000 137.0000 128.0000 Du        
  30484 ****       120.5000 137.0000 128.2500 Du        
  30485 ****       120.5000 137.0000 128.5000 Du        
  30486 ****       120.5000 137.0000 128.7500 Du        
  30487 ****       120.5000 137.0000 129.0000 Du        
  30488 ****       120.5000 137.0000 129.2500 Du        
  30489 ****       120.5000 137.0000 129.5000 Du        
  30490 ****       120.5000 137.0000 129.7500 Du        
  30491 ****       120.5000 137.0000 130.0000 Du        
  30492 ****       120.5000 137.0000 130.2500 Du        
  30493 ****       120.5000 137.0000 130.5000 Du        
  30494 ****       120.5000 137.0000 130.7500 Du        
  30495 ****       120.5000 137.0000 131.0000 Du        
  30496 ****       120.5000 137.2500 127.0000 Du        
  30497 ****       120.5000 137.2500 127.2500 Du        
  30498 ****       120.5000 137.2500 127.5000 Du        
  30499 ****       120.5000 137.2500 127.7500 Du        
  30500 ****       120.5000 137.2500 128.0000 Du        
  30501 ****       120.5000 137.2500 128.2500 Du        
  30502 ****       120.5000 137.2500 128.5000 Du        
  30503 ****       120.5000 137.2500 128.7500 Du        
  30504 ****       120.5000 137.2500 129.0000 Du        
  30505 ****       120.5000 137.2500 129.2500 Du        
  30506 ****       120.5000 137.2500 129.5000 Du        
  30507 ****       120.5000 137.2500 129.7500 Du        
  30508 ****       120.5000 137.2500 130.0000 Du        
  30509 ****       120.5000 137.2500 130.2500 Du        
  30510 ****       120.5000 137.5000 126.5000 Du        
  30511 ****       120.5000 137.5000 126.7500 Du        
  30512 ****       120.5000 137.5000 127.0000 Du        
  30513 ****       120.5000 137.5000 127.2500 Du        
  30514 ****       120.5000 137.5000 127.5000 Du        
  30515 ****       120.5000 137.5000 127.7500 Du        
  30516 ****       120.5000 137.5000 128.0000 Du        
  30517 ****       120.5000 137.5000 128.2500 Du        
  30518 ****       120.5000 137.5000 128.5000 Du        
  30519 ****       120.5000 137.5000 128.7500 Du        
  30520 ****       120.5000 137.5000 129.0000 Du        
  30521 ****       120.5000 137.5000 129.2500 Du        
  30522 ****       120.5000 137.5000 129.7500 Du        
  30523 ****       120.5000 137.7500 126.5000 Du        
  30524 ****       120.5000 137.7500 126.7500 Du        
  30525 ****       120.5000 137.7500 127.0000 Du        
  30526 ****       120.5000 137.7500 127.2500 Du        
  30527 ****       120.5000 137.7500 127.5000 Du        
  30528 ****       120.5000 137.7500 127.7500 Du        
  30529 ****       120.5000 137.7500 128.0000 Du        
  30530 ****       120.5000 137.7500 128.2500 Du        
  30531 ****       120.5000 137.7500 128.5000 Du        
  30532 ****       120.5000 137.7500 128.7500 Du        
  30533 ****       120.5000 137.7500 129.0000 Du        
  30534 ****       120.5000 137.7500 129.2500 Du        
  30535 ****       120.5000 138.0000 126.5000 Du        
  30536 ****       120.5000 138.0000 126.7500 Du        
  30537 ****       120.5000 138.0000 127.0000 Du        
  30538 ****       120.5000 138.0000 127.2500 Du        
  30539 ****       120.5000 138.0000 127.5000 Du        
  30540 ****       120.5000 138.0000 127.7500 Du        
  30541 ****       120.5000 138.0000 128.0000 Du        
  30542 ****       120.5000 138.0000 128.2500 Du        
  30543 ****       120.5000 138.0000 128.5000 Du        
  30544 ****       120.5000 138.0000 128.7500 Du        
  30545 ****       120.5000 138.0000 129.0000 Du        
  30546 ****       120.5000 138.0000 129.2500 Du        
  30547 ****       120.5000 138.2500 126.5000 Du        
  30548 ****       120.5000 138.2500 126.7500 Du        
  30549 ****       120.5000 138.2500 127.0000 Du        
  30550 ****       120.5000 138.2500 127.2500 Du        
  30551 ****       120.5000 138.2500 128.0000 Du        
  30552 ****       120.5000 138.2500 128.2500 Du        
  30553 ****       120.5000 138.2500 128.5000 Du        
  30554 ****       120.5000 138.2500 128.7500 Du        
  30555 ****       120.5000 138.2500 129.0000 Du        
  30556 ****       120.5000 140.5000 124.5000 Du        
  30557 ****       120.5000 140.5000 124.7500 Du        
  30558 ****       120.5000 140.7500 123.7500 Du        
  30559 ****       120.5000 140.7500 124.0000 Du        
  30560 ****       120.5000 140.7500 124.2500 Du        
  30561 ****       120.5000 140.7500 124.5000 Du        
  30562 ****       120.5000 140.7500 124.7500 Du        
  30563 ****       120.5000 141.0000 118.0000 Du        
  30564 ****       120.5000 141.0000 118.2500 Du        
  30565 ****       120.5000 141.0000 123.5000 Du        
  30566 ****       120.5000 141.0000 123.7500 Du        
  30567 ****       120.5000 141.0000 124.0000 Du        
  30568 ****       120.5000 141.0000 124.2500 Du        
  30569 ****       120.5000 141.0000 124.5000 Du        
  30570 ****       120.5000 141.0000 124.7500 Du        
  30571 ****       120.5000 141.0000 125.0000 Du        
  30572 ****       120.5000 141.2500 118.0000 Du        
  30573 ****       120.5000 141.2500 123.5000 Du        
  30574 ****       120.5000 141.2500 123.7500 Du        
  30575 ****       120.5000 141.2500 124.0000 Du        
  30576 ****       120.5000 141.2500 124.2500 Du        
  30577 ****       120.5000 141.2500 124.5000 Du        
  30578 ****       120.5000 141.2500 124.7500 Du        
  30579 ****       120.5000 141.2500 125.0000 Du        
  30580 ****       120.5000 141.5000 117.7500 Du        
  30581 ****       120.5000 141.5000 118.0000 Du        
  30582 ****       120.5000 141.5000 118.2500 Du        
  30583 ****       120.5000 141.5000 123.0000 Du        
  30584 ****       120.5000 141.5000 123.2500 Du        
  30585 ****       120.5000 141.5000 123.5000 Du        
  30586 ****       120.5000 141.5000 123.7500 Du        
  30587 ****       120.5000 141.5000 124.0000 Du        
  30588 ****       120.5000 141.5000 124.2500 Du        
  30589 ****       120.5000 141.5000 124.5000 Du        
  30590 ****       120.5000 141.5000 124.7500 Du        
  30591 ****       120.5000 141.5000 125.0000 Du        
  30592 ****       120.5000 141.7500 117.7500 Du        
  30593 ****       120.5000 141.7500 118.0000 Du        
  30594 ****       120.5000 141.7500 118.2500 Du        
  30595 ****       120.5000 141.7500 122.7500 Du        
  30596 ****       120.5000 141.7500 123.0000 Du        
  30597 ****       120.5000 141.7500 123.2500 Du        
  30598 ****       120.5000 141.7500 123.5000 Du        
  30599 ****       120.5000 141.7500 123.7500 Du        
  30600 ****       120.5000 141.7500 124.0000 Du        
  30601 ****       120.5000 141.7500 124.2500 Du        
  30602 ****       120.5000 141.7500 124.5000 Du        
  30603 ****       120.5000 141.7500 124.7500 Du        
  30604 ****       120.5000 141.7500 125.0000 Du        
  30605 ****       120.5000 141.7500 125.2500 Du        
  30606 ****       120.5000 142.0000 117.5000 Du        
  30607 ****       120.5000 142.0000 117.7500 Du        
  30608 ****       120.5000 142.0000 118.0000 Du        
  30609 ****       120.5000 142.0000 118.2500 Du        
  30610 ****       120.5000 142.0000 122.7500 Du        
  30611 ****       120.5000 142.0000 123.0000 Du        
  30612 ****       120.5000 142.0000 123.2500 Du        
  30613 ****       120.5000 142.0000 123.5000 Du        
  30614 ****       120.5000 142.0000 123.7500 Du        
  30615 ****       120.5000 142.0000 124.0000 Du        
  30616 ****       120.5000 142.0000 124.2500 Du        
  30617 ****       120.5000 142.0000 124.5000 Du        
  30618 ****       120.5000 142.0000 124.7500 Du        
  30619 ****       120.5000 142.0000 125.0000 Du        
  30620 ****       120.5000 142.0000 125.2500 Du        
  30621 ****       120.5000 142.2500 117.5000 Du        
  30622 ****       120.5000 142.2500 117.7500 Du        
  30623 ****       120.5000 142.2500 118.0000 Du        
  30624 ****       120.5000 142.2500 118.2500 Du        
  30625 ****       120.5000 142.2500 123.0000 Du        
  30626 ****       120.5000 142.2500 123.2500 Du        
  30627 ****       120.5000 142.2500 123.5000 Du        
  30628 ****       120.5000 142.2500 123.7500 Du        
  30629 ****       120.5000 142.2500 124.0000 Du        
  30630 ****       120.5000 142.2500 124.2500 Du        
  30631 ****       120.5000 142.2500 124.5000 Du        
  30632 ****       120.5000 142.2500 124.7500 Du        
  30633 ****       120.5000 142.2500 125.0000 Du        
  30634 ****       120.5000 142.2500 125.2500 Du        
  30635 ****       120.5000 142.2500 125.5000 Du        
  30636 ****       120.5000 142.5000 117.5000 Du        
  30637 ****       120.5000 142.5000 117.7500 Du        
  30638 ****       120.5000 142.5000 118.0000 Du        
  30639 ****       120.5000 142.5000 118.2500 Du        
  30640 ****       120.5000 142.5000 123.5000 Du        
  30641 ****       120.5000 142.5000 123.7500 Du        
  30642 ****       120.5000 142.5000 124.0000 Du        
  30643 ****       120.5000 142.5000 124.2500 Du        
  30644 ****       120.5000 142.5000 124.5000 Du        
  30645 ****       120.5000 142.5000 124.7500 Du        
  30646 ****       120.5000 142.5000 125.0000 Du        
  30647 ****       120.5000 142.5000 125.2500 Du        
  30648 ****       120.5000 142.5000 125.5000 Du        
  30649 ****       120.5000 142.5000 125.7500 Du        
  30650 ****       120.5000 142.7500 117.5000 Du        
  30651 ****       120.5000 142.7500 117.7500 Du        
  30652 ****       120.5000 142.7500 118.0000 Du        
  30653 ****       120.5000 142.7500 118.2500 Du        
  30654 ****       120.5000 142.7500 124.2500 Du        
  30655 ****       120.5000 142.7500 124.5000 Du        
  30656 ****       120.5000 142.7500 124.7500 Du        
  30657 ****       120.5000 142.7500 125.0000 Du        
  30658 ****       120.5000 142.7500 125.2500 Du        
  30659 ****       120.5000 142.7500 125.5000 Du        
  30660 ****       120.5000 142.7500 125.7500 Du        
  30661 ****       120.5000 142.7500 126.0000 Du        
  30662 ****       120.5000 143.0000 117.5000 Du        
  30663 ****       120.5000 143.0000 117.7500 Du        
  30664 ****       120.5000 143.0000 118.0000 Du        
  30665 ****       120.5000 143.0000 118.2500 Du        
  30666 ****       120.5000 143.0000 124.7500 Du        
  30667 ****       120.5000 143.0000 125.0000 Du        
  30668 ****       120.5000 143.0000 125.2500 Du        
  30669 ****       120.5000 143.0000 125.5000 Du        
  30670 ****       120.5000 143.0000 125.7500 Du        
  30671 ****       120.5000 143.0000 126.0000 Du        
  30672 ****       120.5000 143.0000 126.2500 Du        
  30673 ****       120.5000 143.0000 126.5000 Du        
  30674 ****       120.5000 143.2500 117.5000 Du        
  30675 ****       120.5000 143.2500 117.7500 Du        
  30676 ****       120.5000 143.2500 118.0000 Du        
  30677 ****       120.5000 143.2500 118.2500 Du        
  30678 ****       120.5000 143.2500 125.2500 Du        
  30679 ****       120.5000 143.2500 125.5000 Du        
  30680 ****       120.5000 143.2500 125.7500 Du        
  30681 ****       120.5000 143.2500 126.0000 Du        
  30682 ****       120.5000 143.2500 126.2500 Du        
  30683 ****       120.5000 143.2500 126.5000 Du        
  30684 ****       120.5000 143.2500 126.7500 Du        
  30685 ****       120.5000 143.2500 127.0000 Du        
  30686 ****       120.5000 143.5000 117.7500 Du        
  30687 ****       120.5000 143.5000 118.0000 Du        
  30688 ****       120.5000 143.5000 118.2500 Du        
  30689 ****       120.5000 143.5000 125.5000 Du        
  30690 ****       120.5000 143.5000 125.7500 Du        
  30691 ****       120.5000 143.5000 126.0000 Du        
  30692 ****       120.5000 143.5000 126.2500 Du        
  30693 ****       120.5000 143.5000 126.5000 Du        
  30694 ****       120.5000 143.5000 126.7500 Du        
  30695 ****       120.5000 143.5000 127.0000 Du        
  30696 ****       120.5000 143.5000 127.2500 Du        
  30697 ****       120.5000 143.5000 127.5000 Du        
  30698 ****       120.5000 143.5000 127.7500 Du        
  30699 ****       120.5000 143.7500 118.0000 Du        
  30700 ****       120.5000 143.7500 125.7500 Du        
  30701 ****       120.5000 143.7500 126.0000 Du        
  30702 ****       120.5000 143.7500 126.2500 Du        
  30703 ****       120.5000 143.7500 126.5000 Du        
  30704 ****       120.5000 143.7500 126.7500 Du        
  30705 ****       120.5000 143.7500 127.0000 Du        
  30706 ****       120.5000 143.7500 127.2500 Du        
  30707 ****       120.5000 143.7500 127.5000 Du        
  30708 ****       120.5000 143.7500 127.7500 Du        
  30709 ****       120.5000 143.7500 128.0000 Du        
  30710 ****       120.5000 144.0000 126.0000 Du        
  30711 ****       120.5000 144.0000 126.2500 Du        
  30712 ****       120.5000 144.0000 126.5000 Du        
  30713 ****       120.5000 144.0000 126.7500 Du        
  30714 ****       120.5000 144.0000 127.0000 Du        
  30715 ****       120.5000 144.0000 127.2500 Du        
  30716 ****       120.5000 144.0000 127.7500 Du        
  30717 ****       120.5000 144.0000 128.0000 Du        
  30718 ****       120.5000 144.0000 128.2500 Du        
  30719 ****       120.5000 144.2500 126.2500 Du        
  30720 ****       120.5000 144.2500 126.5000 Du        
  30721 ****       120.5000 144.2500 126.7500 Du        
  30722 ****       120.5000 144.2500 127.0000 Du        
  30723 ****       120.5000 144.2500 127.2500 Du        
  30724 ****       120.5000 148.0000 118.7500 Du        
  30725 ****       120.5000 148.2500 118.5000 Du        
  30726 ****       120.5000 148.2500 118.7500 Du        
  30727 ****       120.5000 148.2500 119.0000 Du        
  30728 ****       120.5000 149.0000 119.2500 Du        
  30729 ****       120.5000 149.5000 117.5000 Du        
  30730 ****       120.5000 149.5000 117.7500 Du        
  30731 ****       120.5000 149.5000 118.0000 Du        
  30732 ****       120.5000 149.5000 118.2500 Du        
  30733 ****       120.5000 149.5000 118.5000 Du        
  30734 ****       120.5000 149.5000 118.7500 Du        
  30735 ****       120.5000 149.5000 119.0000 Du        
  30736 ****       120.5000 149.7500 117.5000 Du        
  30737 ****       120.5000 149.7500 117.7500 Du        
  30738 ****       120.5000 149.7500 118.0000 Du        
  30739 ****       120.5000 149.7500 118.2500 Du        
  30740 ****       120.5000 149.7500 118.5000 Du        
  30741 ****       120.5000 149.7500 118.7500 Du        
  30742 ****       120.5000 150.0000 117.5000 Du        
  30743 ****       120.5000 150.0000 117.7500 Du        
  30744 ****       120.5000 150.0000 118.0000 Du        
  30745 ****       120.5000 150.0000 118.2500 Du        
  30746 ****       120.5000 150.0000 118.5000 Du        
  30747 ****       120.5000 150.2500 117.7500 Du        
  30748 ****       120.5000 150.2500 118.0000 Du        
  30749 ****       120.5000 150.2500 118.2500 Du        
  30750 ****       120.5000 150.5000 117.7500 Du        
  30751 ****       120.5000 150.5000 118.0000 Du        
  30752 ****       120.5000 152.7500 128.0000 Du        
  30753 ****       120.5000 152.7500 128.2500 Du        
  30754 ****       120.5000 152.7500 128.7500 Du        
  30755 ****       120.5000 153.0000 127.7500 Du        
  30756 ****       120.5000 153.0000 128.0000 Du        
  30757 ****       120.5000 153.0000 128.2500 Du        
  30758 ****       120.5000 153.0000 128.5000 Du        
  30759 ****       120.5000 153.0000 128.7500 Du        
  30760 ****       120.5000 153.2500 127.0000 Du        
  30761 ****       120.5000 153.2500 127.2500 Du        
  30762 ****       120.5000 153.2500 127.5000 Du        
  30763 ****       120.5000 153.2500 127.7500 Du        
  30764 ****       120.5000 153.2500 128.0000 Du        
  30765 ****       120.5000 153.2500 128.2500 Du        
  30766 ****       120.5000 153.2500 128.5000 Du        
  30767 ****       120.5000 153.2500 128.7500 Du        
  30768 ****       120.5000 153.5000 126.7500 Du        
  30769 ****       120.5000 153.5000 127.0000 Du        
  30770 ****       120.5000 153.5000 127.2500 Du        
  30771 ****       120.5000 153.5000 127.5000 Du        
  30772 ****       120.5000 153.5000 127.7500 Du        
  30773 ****       120.5000 153.5000 128.0000 Du        
  30774 ****       120.5000 153.5000 128.2500 Du        
  30775 ****       120.5000 153.5000 128.5000 Du        
  30776 ****       120.5000 153.7500 126.2500 Du        
  30777 ****       120.5000 153.7500 126.5000 Du        
  30778 ****       120.5000 153.7500 126.7500 Du        
  30779 ****       120.5000 153.7500 127.0000 Du        
  30780 ****       120.5000 153.7500 127.2500 Du        
  30781 ****       120.5000 153.7500 127.5000 Du        
  30782 ****       120.5000 153.7500 127.7500 Du        
  30783 ****       120.5000 153.7500 128.0000 Du        
  30784 ****       120.5000 153.7500 128.2500 Du        
  30785 ****       120.5000 154.0000 125.7500 Du        
  30786 ****       120.5000 154.0000 126.0000 Du        
  30787 ****       120.5000 154.0000 126.2500 Du        
  30788 ****       120.5000 154.0000 126.5000 Du        
  30789 ****       120.5000 154.0000 126.7500 Du        
  30790 ****       120.5000 154.0000 127.0000 Du        
  30791 ****       120.5000 154.0000 127.2500 Du        
  30792 ****       120.5000 154.0000 127.5000 Du        
  30793 ****       120.5000 154.0000 127.7500 Du        
  30794 ****       120.5000 154.0000 128.0000 Du        
  30795 ****       120.5000 154.2500 125.2500 Du        
  30796 ****       120.5000 154.2500 125.5000 Du        
  30797 ****       120.5000 154.2500 125.7500 Du        
  30798 ****       120.5000 154.2500 126.0000 Du        
  30799 ****       120.5000 154.2500 126.2500 Du        
  30800 ****       120.5000 154.2500 126.5000 Du        
  30801 ****       120.5000 154.2500 126.7500 Du        
  30802 ****       120.5000 154.2500 127.0000 Du        
  30803 ****       120.5000 154.2500 127.2500 Du        
  30804 ****       120.5000 154.2500 127.5000 Du        
  30805 ****       120.5000 154.2500 127.7500 Du        
  30806 ****       120.5000 154.5000 124.5000 Du        
  30807 ****       120.5000 154.5000 124.7500 Du        
  30808 ****       120.5000 154.5000 125.0000 Du        
  30809 ****       120.5000 154.5000 125.2500 Du        
  30810 ****       120.5000 154.5000 125.5000 Du        
  30811 ****       120.5000 154.5000 125.7500 Du        
  30812 ****       120.5000 154.5000 126.0000 Du        
  30813 ****       120.5000 154.5000 126.2500 Du        
  30814 ****       120.5000 154.5000 126.5000 Du        
  30815 ****       120.5000 154.5000 126.7500 Du        
  30816 ****       120.5000 154.5000 127.0000 Du        
  30817 ****       120.5000 154.5000 127.2500 Du        
  30818 ****       120.5000 154.5000 136.0000 Du        
  30819 ****       120.5000 154.5000 136.2500 Du        
  30820 ****       120.5000 154.5000 136.5000 Du        
  30821 ****       120.5000 154.5000 136.7500 Du        
  30822 ****       120.5000 154.5000 137.0000 Du        
  30823 ****       120.5000 154.5000 137.2500 Du        
  30824 ****       120.5000 154.5000 137.5000 Du        
  30825 ****       120.5000 154.5000 137.7500 Du        
  30826 ****       120.5000 154.7500 124.2500 Du        
  30827 ****       120.5000 154.7500 124.5000 Du        
  30828 ****       120.5000 154.7500 124.7500 Du        
  30829 ****       120.5000 154.7500 125.0000 Du        
  30830 ****       120.5000 154.7500 125.2500 Du        
  30831 ****       120.5000 154.7500 125.5000 Du        
  30832 ****       120.5000 154.7500 125.7500 Du        
  30833 ****       120.5000 154.7500 126.0000 Du        
  30834 ****       120.5000 154.7500 126.2500 Du        
  30835 ****       120.5000 154.7500 126.5000 Du        
  30836 ****       120.5000 154.7500 126.7500 Du        
  30837 ****       120.5000 154.7500 127.0000 Du        
  30838 ****       120.5000 154.7500 127.2500 Du        
  30839 ****       120.5000 154.7500 135.5000 Du        
  30840 ****       120.5000 154.7500 135.7500 Du        
  30841 ****       120.5000 154.7500 136.0000 Du        
  30842 ****       120.5000 154.7500 136.2500 Du        
  30843 ****       120.5000 154.7500 136.5000 Du        
  30844 ****       120.5000 154.7500 136.7500 Du        
  30845 ****       120.5000 154.7500 137.0000 Du        
  30846 ****       120.5000 154.7500 137.2500 Du        
  30847 ****       120.5000 154.7500 137.5000 Du        
  30848 ****       120.5000 154.7500 137.7500 Du        
  30849 ****       120.5000 154.7500 138.0000 Du        
  30850 ****       120.5000 155.0000 115.5000 Du        
  30851 ****       120.5000 155.0000 124.0000 Du        
  30852 ****       120.5000 155.0000 124.2500 Du        
  30853 ****       120.5000 155.0000 124.5000 Du        
  30854 ****       120.5000 155.0000 124.7500 Du        
  30855 ****       120.5000 155.0000 125.0000 Du        
  30856 ****       120.5000 155.0000 125.2500 Du        
  30857 ****       120.5000 155.0000 125.5000 Du        
  30858 ****       120.5000 155.0000 125.7500 Du        
  30859 ****       120.5000 155.0000 126.0000 Du        
  30860 ****       120.5000 155.0000 126.2500 Du        
  30861 ****       120.5000 155.0000 126.5000 Du        
  30862 ****       120.5000 155.0000 126.7500 Du        
  30863 ****       120.5000 155.0000 127.0000 Du        
  30864 ****       120.5000 155.0000 127.2500 Du        
  30865 ****       120.5000 155.0000 135.2500 Du        
  30866 ****       120.5000 155.0000 135.5000 Du        
  30867 ****       120.5000 155.0000 135.7500 Du        
  30868 ****       120.5000 155.0000 136.0000 Du        
  30869 ****       120.5000 155.0000 136.2500 Du        
  30870 ****       120.5000 155.0000 136.5000 Du        
  30871 ****       120.5000 155.0000 136.7500 Du        
  30872 ****       120.5000 155.0000 137.0000 Du        
  30873 ****       120.5000 155.0000 137.2500 Du        
  30874 ****       120.5000 155.0000 137.5000 Du        
  30875 ****       120.5000 155.0000 137.7500 Du        
  30876 ****       120.5000 155.0000 138.0000 Du        
  30877 ****       120.5000 155.2500 114.7500 Du        
  30878 ****       120.5000 155.2500 115.0000 Du        
  30879 ****       120.5000 155.2500 115.2500 Du        
  30880 ****       120.5000 155.2500 115.5000 Du        
  30881 ****       120.5000 155.2500 115.7500 Du        
  30882 ****       120.5000 155.2500 124.2500 Du        
  30883 ****       120.5000 155.2500 124.5000 Du        
  30884 ****       120.5000 155.2500 124.7500 Du        
  30885 ****       120.5000 155.2500 125.0000 Du        
  30886 ****       120.5000 155.2500 125.2500 Du        
  30887 ****       120.5000 155.2500 125.5000 Du        
  30888 ****       120.5000 155.2500 125.7500 Du        
  30889 ****       120.5000 155.2500 126.0000 Du        
  30890 ****       120.5000 155.2500 126.2500 Du        
  30891 ****       120.5000 155.2500 126.5000 Du        
  30892 ****       120.5000 155.2500 126.7500 Du        
  30893 ****       120.5000 155.2500 127.0000 Du        
  30894 ****       120.5000 155.2500 127.2500 Du        
  30895 ****       120.5000 155.2500 135.2500 Du        
  30896 ****       120.5000 155.2500 135.5000 Du        
  30897 ****       120.5000 155.2500 135.7500 Du        
  30898 ****       120.5000 155.2500 136.0000 Du        
  30899 ****       120.5000 155.2500 136.2500 Du        
  30900 ****       120.5000 155.2500 136.5000 Du        
  30901 ****       120.5000 155.2500 136.7500 Du        
  30902 ****       120.5000 155.2500 137.0000 Du        
  30903 ****       120.5000 155.2500 137.2500 Du        
  30904 ****       120.5000 155.2500 137.5000 Du        
  30905 ****       120.5000 155.2500 137.7500 Du        
  30906 ****       120.5000 155.5000 114.2500 Du        
  30907 ****       120.5000 155.5000 114.5000 Du        
  30908 ****       120.5000 155.5000 114.7500 Du        
  30909 ****       120.5000 155.5000 115.0000 Du        
  30910 ****       120.5000 155.5000 115.2500 Du        
  30911 ****       120.5000 155.5000 115.5000 Du        
  30912 ****       120.5000 155.5000 115.7500 Du        
  30913 ****       120.5000 155.5000 124.2500 Du        
  30914 ****       120.5000 155.5000 124.5000 Du        
  30915 ****       120.5000 155.5000 124.7500 Du        
  30916 ****       120.5000 155.5000 125.0000 Du        
  30917 ****       120.5000 155.5000 125.2500 Du        
  30918 ****       120.5000 155.5000 125.5000 Du        
  30919 ****       120.5000 155.5000 125.7500 Du        
  30920 ****       120.5000 155.5000 126.0000 Du        
  30921 ****       120.5000 155.5000 126.2500 Du        
  30922 ****       120.5000 155.5000 126.5000 Du        
  30923 ****       120.5000 155.5000 126.7500 Du        
  30924 ****       120.5000 155.5000 127.0000 Du        
  30925 ****       120.5000 155.5000 135.2500 Du        
  30926 ****       120.5000 155.5000 135.5000 Du        
  30927 ****       120.5000 155.5000 135.7500 Du        
  30928 ****       120.5000 155.5000 136.0000 Du        
  30929 ****       120.5000 155.5000 136.2500 Du        
  30930 ****       120.5000 155.5000 136.5000 Du        
  30931 ****       120.5000 155.5000 136.7500 Du        
  30932 ****       120.5000 155.5000 137.0000 Du        
  30933 ****       120.5000 155.5000 137.2500 Du        
  30934 ****       120.5000 155.5000 137.5000 Du        
  30935 ****       120.5000 155.5000 137.7500 Du        
  30936 ****       120.5000 155.7500 113.7500 Du        
  30937 ****       120.5000 155.7500 114.0000 Du        
  30938 ****       120.5000 155.7500 114.2500 Du        
  30939 ****       120.5000 155.7500 114.5000 Du        
  30940 ****       120.5000 155.7500 114.7500 Du        
  30941 ****       120.5000 155.7500 115.0000 Du        
  30942 ****       120.5000 155.7500 115.2500 Du        
  30943 ****       120.5000 155.7500 115.5000 Du        
  30944 ****       120.5000 155.7500 115.7500 Du        
  30945 ****       120.5000 155.7500 124.2500 Du        
  30946 ****       120.5000 155.7500 124.5000 Du        
  30947 ****       120.5000 155.7500 124.7500 Du        
  30948 ****       120.5000 155.7500 125.0000 Du        
  30949 ****       120.5000 155.7500 125.2500 Du        
  30950 ****       120.5000 155.7500 125.5000 Du        
  30951 ****       120.5000 155.7500 125.7500 Du        
  30952 ****       120.5000 155.7500 126.0000 Du        
  30953 ****       120.5000 155.7500 126.2500 Du        
  30954 ****       120.5000 155.7500 126.5000 Du        
  30955 ****       120.5000 155.7500 126.7500 Du        
  30956 ****       120.5000 155.7500 127.0000 Du        
  30957 ****       120.5000 155.7500 135.5000 Du        
  30958 ****       120.5000 155.7500 135.7500 Du        
  30959 ****       120.5000 155.7500 136.0000 Du        
  30960 ****       120.5000 155.7500 136.2500 Du        
  30961 ****       120.5000 155.7500 136.5000 Du        
  30962 ****       120.5000 155.7500 136.7500 Du        
  30963 ****       120.5000 155.7500 137.0000 Du        
  30964 ****       120.5000 155.7500 137.2500 Du        
  30965 ****       120.5000 155.7500 137.5000 Du        
  30966 ****       120.5000 155.7500 137.7500 Du        
  30967 ****       120.5000 156.0000 113.7500 Du        
  30968 ****       120.5000 156.0000 114.0000 Du        
  30969 ****       120.5000 156.0000 114.2500 Du        
  30970 ****       120.5000 156.0000 114.5000 Du        
  30971 ****       120.5000 156.0000 114.7500 Du        
  30972 ****       120.5000 156.0000 115.0000 Du        
  30973 ****       120.5000 156.0000 115.2500 Du        
  30974 ****       120.5000 156.0000 115.5000 Du        
  30975 ****       120.5000 156.0000 115.7500 Du        
  30976 ****       120.5000 156.0000 116.0000 Du        
  30977 ****       120.5000 156.0000 124.2500 Du        
  30978 ****       120.5000 156.0000 124.5000 Du        
  30979 ****       120.5000 156.0000 124.7500 Du        
  30980 ****       120.5000 156.0000 125.0000 Du        
  30981 ****       120.5000 156.0000 125.2500 Du        
  30982 ****       120.5000 156.0000 125.5000 Du        
  30983 ****       120.5000 156.0000 125.7500 Du        
  30984 ****       120.5000 156.0000 126.0000 Du        
  30985 ****       120.5000 156.0000 126.2500 Du        
  30986 ****       120.5000 156.0000 126.5000 Du        
  30987 ****       120.5000 156.0000 126.7500 Du        
  30988 ****       120.5000 156.0000 127.0000 Du        
  30989 ****       120.5000 156.2500 113.5000 Du        
  30990 ****       120.5000 156.2500 113.7500 Du        
  30991 ****       120.5000 156.2500 114.0000 Du        
  30992 ****       120.5000 156.2500 114.2500 Du        
  30993 ****       120.5000 156.2500 114.5000 Du        
  30994 ****       120.5000 156.2500 114.7500 Du        
  30995 ****       120.5000 156.2500 115.0000 Du        
  30996 ****       120.5000 156.2500 115.2500 Du        
  30997 ****       120.5000 156.2500 115.5000 Du        
  30998 ****       120.5000 156.2500 115.7500 Du        
  30999 ****       120.5000 156.2500 116.0000 Du        
  31000 ****       120.5000 156.2500 124.2500 Du        
  31001 ****       120.5000 156.2500 124.5000 Du        
  31002 ****       120.5000 156.2500 124.7500 Du        
  31003 ****       120.5000 156.2500 125.0000 Du        
  31004 ****       120.5000 156.2500 125.2500 Du        
  31005 ****       120.5000 156.2500 125.5000 Du        
  31006 ****       120.5000 156.2500 125.7500 Du        
  31007 ****       120.5000 156.2500 126.0000 Du        
  31008 ****       120.5000 156.2500 126.2500 Du        
  31009 ****       120.5000 156.2500 126.5000 Du        
  31010 ****       120.5000 156.2500 126.7500 Du        
  31011 ****       120.5000 156.2500 127.0000 Du        
  31012 ****       120.5000 156.5000 113.7500 Du        
  31013 ****       120.5000 156.5000 114.0000 Du        
  31014 ****       120.5000 156.5000 114.2500 Du        
  31015 ****       120.5000 156.5000 114.5000 Du        
  31016 ****       120.5000 156.5000 114.7500 Du        
  31017 ****       120.5000 156.5000 115.0000 Du        
  31018 ****       120.5000 156.5000 115.2500 Du        
  31019 ****       120.5000 156.5000 115.5000 Du        
  31020 ****       120.5000 156.5000 115.7500 Du        
  31021 ****       120.5000 156.5000 116.0000 Du        
  31022 ****       120.5000 156.5000 124.2500 Du        
  31023 ****       120.5000 156.5000 124.5000 Du        
  31024 ****       120.5000 156.5000 124.7500 Du        
  31025 ****       120.5000 156.5000 125.0000 Du        
  31026 ****       120.5000 156.5000 125.2500 Du        
  31027 ****       120.5000 156.5000 125.5000 Du        
  31028 ****       120.5000 156.5000 125.7500 Du        
  31029 ****       120.5000 156.5000 126.0000 Du        
  31030 ****       120.5000 156.5000 126.2500 Du        
  31031 ****       120.5000 156.5000 126.5000 Du        
  31032 ****       120.5000 156.5000 126.7500 Du        
  31033 ****       120.5000 156.7500 113.7500 Du        
  31034 ****       120.5000 156.7500 114.0000 Du        
  31035 ****       120.5000 156.7500 114.2500 Du        
  31036 ****       120.5000 156.7500 114.5000 Du        
  31037 ****       120.5000 156.7500 114.7500 Du        
  31038 ****       120.5000 156.7500 115.0000 Du        
  31039 ****       120.5000 156.7500 115.2500 Du        
  31040 ****       120.5000 156.7500 115.5000 Du        
  31041 ****       120.5000 156.7500 115.7500 Du        
  31042 ****       120.5000 156.7500 116.0000 Du        
  31043 ****       120.5000 156.7500 116.2500 Du        
  31044 ****       120.5000 156.7500 124.0000 Du        
  31045 ****       120.5000 156.7500 124.2500 Du        
  31046 ****       120.5000 156.7500 124.5000 Du        
  31047 ****       120.5000 156.7500 124.7500 Du        
  31048 ****       120.5000 156.7500 125.0000 Du        
  31049 ****       120.5000 156.7500 125.2500 Du        
  31050 ****       120.5000 156.7500 125.5000 Du        
  31051 ****       120.5000 156.7500 125.7500 Du        
  31052 ****       120.5000 156.7500 126.0000 Du        
  31053 ****       120.5000 156.7500 126.2500 Du        
  31054 ****       120.5000 156.7500 126.5000 Du        
  31055 ****       120.5000 156.7500 126.7500 Du        
  31056 ****       120.5000 157.0000 113.7500 Du        
  31057 ****       120.5000 157.0000 114.0000 Du        
  31058 ****       120.5000 157.0000 114.2500 Du        
  31059 ****       120.5000 157.0000 114.5000 Du        
  31060 ****       120.5000 157.0000 114.7500 Du        
  31061 ****       120.5000 157.0000 115.0000 Du        
  31062 ****       120.5000 157.0000 115.2500 Du        
  31063 ****       120.5000 157.0000 115.5000 Du        
  31064 ****       120.5000 157.0000 115.7500 Du        
  31065 ****       120.5000 157.0000 116.0000 Du        
  31066 ****       120.5000 157.0000 116.2500 Du        
  31067 ****       120.5000 157.0000 124.0000 Du        
  31068 ****       120.5000 157.0000 124.2500 Du        
  31069 ****       120.5000 157.0000 124.5000 Du        
  31070 ****       120.5000 157.0000 124.7500 Du        
  31071 ****       120.5000 157.0000 125.0000 Du        
  31072 ****       120.5000 157.0000 125.2500 Du        
  31073 ****       120.5000 157.0000 125.5000 Du        
  31074 ****       120.5000 157.0000 125.7500 Du        
  31075 ****       120.5000 157.0000 126.0000 Du        
  31076 ****       120.5000 157.0000 126.2500 Du        
  31077 ****       120.5000 157.0000 126.5000 Du        
  31078 ****       120.5000 157.0000 126.7500 Du        
  31079 ****       120.5000 157.2500 114.5000 Du        
  31080 ****       120.5000 157.2500 114.7500 Du        
  31081 ****       120.5000 157.2500 115.0000 Du        
  31082 ****       120.5000 157.2500 115.2500 Du        
  31083 ****       120.5000 157.2500 115.5000 Du        
  31084 ****       120.5000 157.2500 115.7500 Du        
  31085 ****       120.5000 157.2500 116.0000 Du        
  31086 ****       120.5000 157.2500 116.2500 Du        
  31087 ****       120.5000 157.2500 124.0000 Du        
  31088 ****       120.5000 157.2500 124.2500 Du        
  31089 ****       120.5000 157.2500 124.5000 Du        
  31090 ****       120.5000 157.2500 124.7500 Du        
  31091 ****       120.5000 157.2500 125.0000 Du        
  31092 ****       120.5000 157.2500 125.2500 Du        
  31093 ****       120.5000 157.2500 125.5000 Du        
  31094 ****       120.5000 157.2500 125.7500 Du        
  31095 ****       120.5000 157.2500 126.0000 Du        
  31096 ****       120.5000 157.2500 126.2500 Du        
  31097 ****       120.5000 157.2500 126.5000 Du        
  31098 ****       120.5000 157.2500 126.7500 Du        
  31099 ****       120.5000 157.5000 115.0000 Du        
  31100 ****       120.5000 157.5000 115.2500 Du        
  31101 ****       120.5000 157.5000 115.5000 Du        
  31102 ****       120.5000 157.5000 115.7500 Du        
  31103 ****       120.5000 157.5000 123.7500 Du        
  31104 ****       120.5000 157.5000 124.0000 Du        
  31105 ****       120.5000 157.5000 124.2500 Du        
  31106 ****       120.5000 157.5000 124.5000 Du        
  31107 ****       120.5000 157.5000 124.7500 Du        
  31108 ****       120.5000 157.5000 125.0000 Du        
  31109 ****       120.5000 157.5000 125.2500 Du        
  31110 ****       120.5000 157.7500 115.0000 Du        
  31111 ****       120.5000 157.7500 115.2500 Du        
  31112 ****       120.5000 157.7500 115.5000 Du        
  31113 ****       120.5000 157.7500 115.7500 Du        
  31114 ****       120.5000 157.7500 116.0000 Du        
  31115 ****       120.5000 157.7500 123.7500 Du        
  31116 ****       120.5000 157.7500 124.0000 Du        
  31117 ****       120.5000 157.7500 124.2500 Du        
  31118 ****       120.5000 158.0000 115.2500 Du        
  31119 ****       120.5000 158.0000 115.7500 Du        
  31120 ****       120.5000 158.0000 116.0000 Du        
  31121 ****       120.5000 158.2500 115.2500 Du        
  31122 ****       120.5000 158.7500 115.7500 Du        
  31123 ****       120.5000 158.7500 116.0000 Du        
  31124 ****       120.5000 159.0000 115.7500 Du        
  31125 ****       120.5000 159.0000 116.0000 Du        
  31126 ****       120.5000 159.0000 116.2500 Du        
  31127 ****       120.5000 159.2500 115.7500 Du        
  31128 ****       120.5000 159.2500 116.0000 Du        
  31129 ****       120.5000 159.2500 116.2500 Du        
  31130 ****       120.5000 159.7500 116.2500 Du        
  31131 ****       120.5000 159.7500 116.5000 Du        
  31132 ****       120.5000 160.0000 116.2500 Du        
  31133 ****       120.5000 160.0000 116.5000 Du        
  31134 ****       120.5000 160.0000 116.7500 Du        
  31135 ****       120.5000 160.2500 116.2500 Du        
  31136 ****       120.5000 160.2500 116.5000 Du        
  31137 ****       120.5000 160.2500 116.7500 Du        
  31138 ****       120.5000 160.5000 116.2500 Du        
  31139 ****       120.5000 160.5000 116.5000 Du        
  31140 ****       120.5000 160.5000 116.7500 Du        
  31141 ****       120.5000 160.5000 117.0000 Du        
  31142 ****       120.5000 160.7500 116.5000 Du        
  31143 ****       120.5000 160.7500 116.7500 Du        
  31144 ****       120.5000 160.7500 117.0000 Du        
  31145 ****       120.5000 161.0000 116.7500 Du        
  31146 ****       120.5000 161.0000 117.0000 Du        
  31147 ****       120.7500 135.7500 129.5000 Du        
  31148 ****       120.7500 135.7500 129.7500 Du        
  31149 ****       120.7500 135.7500 130.0000 Du        
  31150 ****       120.7500 136.0000 129.5000 Du        
  31151 ****       120.7500 136.0000 129.7500 Du        
  31152 ****       120.7500 136.0000 130.0000 Du        
  31153 ****       120.7500 136.0000 130.2500 Du        
  31154 ****       120.7500 136.2500 129.5000 Du        
  31155 ****       120.7500 136.2500 129.7500 Du        
  31156 ****       120.7500 136.2500 130.0000 Du        
  31157 ****       120.7500 136.2500 130.2500 Du        
  31158 ****       120.7500 136.2500 130.5000 Du        
  31159 ****       120.7500 136.5000 128.7500 Du        
  31160 ****       120.7500 136.5000 129.0000 Du        
  31161 ****       120.7500 136.5000 129.2500 Du        
  31162 ****       120.7500 136.5000 129.5000 Du        
  31163 ****       120.7500 136.5000 129.7500 Du        
  31164 ****       120.7500 136.5000 130.0000 Du        
  31165 ****       120.7500 136.5000 130.2500 Du        
  31166 ****       120.7500 136.5000 130.5000 Du        
  31167 ****       120.7500 136.5000 130.7500 Du        
  31168 ****       120.7500 136.7500 128.2500 Du        
  31169 ****       120.7500 136.7500 128.5000 Du        
  31170 ****       120.7500 136.7500 128.7500 Du        
  31171 ****       120.7500 136.7500 129.0000 Du        
  31172 ****       120.7500 136.7500 129.2500 Du        
  31173 ****       120.7500 136.7500 129.5000 Du        
  31174 ****       120.7500 136.7500 129.7500 Du        
  31175 ****       120.7500 136.7500 130.0000 Du        
  31176 ****       120.7500 136.7500 130.2500 Du        
  31177 ****       120.7500 136.7500 130.5000 Du        
  31178 ****       120.7500 136.7500 130.7500 Du        
  31179 ****       120.7500 137.0000 127.0000 Du        
  31180 ****       120.7500 137.0000 127.2500 Du        
  31181 ****       120.7500 137.0000 127.5000 Du        
  31182 ****       120.7500 137.0000 127.7500 Du        
  31183 ****       120.7500 137.0000 128.0000 Du        
  31184 ****       120.7500 137.0000 128.2500 Du        
  31185 ****       120.7500 137.0000 128.5000 Du        
  31186 ****       120.7500 137.0000 128.7500 Du        
  31187 ****       120.7500 137.0000 129.0000 Du        
  31188 ****       120.7500 137.0000 129.2500 Du        
  31189 ****       120.7500 137.0000 129.5000 Du        
  31190 ****       120.7500 137.0000 129.7500 Du        
  31191 ****       120.7500 137.0000 130.0000 Du        
  31192 ****       120.7500 137.0000 130.2500 Du        
  31193 ****       120.7500 137.2500 126.7500 Du        
  31194 ****       120.7500 137.2500 127.0000 Du        
  31195 ****       120.7500 137.2500 127.2500 Du        
  31196 ****       120.7500 137.2500 127.5000 Du        
  31197 ****       120.7500 137.2500 127.7500 Du        
  31198 ****       120.7500 137.2500 128.0000 Du        
  31199 ****       120.7500 137.2500 128.2500 Du        
  31200 ****       120.7500 137.2500 128.5000 Du        
  31201 ****       120.7500 137.2500 128.7500 Du        
  31202 ****       120.7500 137.2500 129.0000 Du        
  31203 ****       120.7500 137.2500 129.2500 Du        
  31204 ****       120.7500 137.5000 126.2500 Du        
  31205 ****       120.7500 137.5000 126.5000 Du        
  31206 ****       120.7500 137.5000 126.7500 Du        
  31207 ****       120.7500 137.5000 127.0000 Du        
  31208 ****       120.7500 137.5000 127.2500 Du        
  31209 ****       120.7500 137.5000 127.5000 Du        
  31210 ****       120.7500 137.5000 127.7500 Du        
  31211 ****       120.7500 137.5000 128.0000 Du        
  31212 ****       120.7500 137.5000 128.2500 Du        
  31213 ****       120.7500 137.5000 128.5000 Du        
  31214 ****       120.7500 137.5000 128.7500 Du        
  31215 ****       120.7500 137.5000 129.0000 Du        
  31216 ****       120.7500 137.5000 129.2500 Du        
  31217 ****       120.7500 137.7500 126.0000 Du        
  31218 ****       120.7500 137.7500 126.2500 Du        
  31219 ****       120.7500 137.7500 126.5000 Du        
  31220 ****       120.7500 137.7500 126.7500 Du        
  31221 ****       120.7500 137.7500 127.0000 Du        
  31222 ****       120.7500 137.7500 127.2500 Du        
  31223 ****       120.7500 137.7500 127.5000 Du        
  31224 ****       120.7500 137.7500 127.7500 Du        
  31225 ****       120.7500 137.7500 128.0000 Du        
  31226 ****       120.7500 137.7500 128.2500 Du        
  31227 ****       120.7500 137.7500 128.5000 Du        
  31228 ****       120.7500 137.7500 128.7500 Du        
  31229 ****       120.7500 137.7500 129.0000 Du        
  31230 ****       120.7500 138.0000 126.0000 Du        
  31231 ****       120.7500 138.0000 126.2500 Du        
  31232 ****       120.7500 138.0000 126.5000 Du        
  31233 ****       120.7500 138.0000 126.7500 Du        
  31234 ****       120.7500 138.0000 127.0000 Du        
  31235 ****       120.7500 138.0000 127.2500 Du        
  31236 ****       120.7500 138.0000 127.5000 Du        
  31237 ****       120.7500 138.0000 127.7500 Du        
  31238 ****       120.7500 138.0000 128.0000 Du        
  31239 ****       120.7500 138.0000 128.2500 Du        
  31240 ****       120.7500 138.0000 128.5000 Du        
  31241 ****       120.7500 138.0000 128.7500 Du        
  31242 ****       120.7500 138.2500 126.0000 Du        
  31243 ****       120.7500 138.2500 126.2500 Du        
  31244 ****       120.7500 138.2500 126.5000 Du        
  31245 ****       120.7500 138.2500 126.7500 Du        
  31246 ****       120.7500 138.2500 127.0000 Du        
  31247 ****       120.7500 138.2500 127.2500 Du        
  31248 ****       120.7500 138.2500 127.5000 Du        
  31249 ****       120.7500 138.2500 127.7500 Du        
  31250 ****       120.7500 138.2500 128.0000 Du        
  31251 ****       120.7500 138.2500 128.2500 Du        
  31252 ****       120.7500 138.2500 128.5000 Du        
  31253 ****       120.7500 138.5000 126.0000 Du        
  31254 ****       120.7500 138.5000 126.2500 Du        
  31255 ****       120.7500 138.5000 126.5000 Du        
  31256 ****       120.7500 138.5000 126.7500 Du        
  31257 ****       120.7500 138.5000 127.0000 Du        
  31258 ****       120.7500 138.5000 127.2500 Du        
  31259 ****       120.7500 138.5000 128.0000 Du        
  31260 ****       120.7500 138.5000 128.2500 Du        
  31261 ****       120.7500 138.7500 126.0000 Du        
  31262 ****       120.7500 138.7500 126.2500 Du        
  31263 ****       120.7500 140.5000 124.5000 Du        
  31264 ****       120.7500 140.5000 124.7500 Du        
  31265 ****       120.7500 140.5000 125.0000 Du        
  31266 ****       120.7500 140.7500 118.0000 Du        
  31267 ****       120.7500 140.7500 118.2500 Du        
  31268 ****       120.7500 140.7500 123.7500 Du        
  31269 ****       120.7500 140.7500 124.0000 Du        
  31270 ****       120.7500 140.7500 124.2500 Du        
  31271 ****       120.7500 140.7500 124.5000 Du        
  31272 ****       120.7500 140.7500 124.7500 Du        
  31273 ****       120.7500 140.7500 125.0000 Du        
  31274 ****       120.7500 141.0000 118.0000 Du        
  31275 ****       120.7500 141.0000 118.2500 Du        
  31276 ****       120.7500 141.0000 123.5000 Du        
  31277 ****       120.7500 141.0000 123.7500 Du        
  31278 ****       120.7500 141.0000 124.0000 Du        
  31279 ****       120.7500 141.0000 124.2500 Du        
  31280 ****       120.7500 141.0000 124.5000 Du        
  31281 ****       120.7500 141.0000 124.7500 Du        
  31282 ****       120.7500 141.0000 125.0000 Du        
  31283 ****       120.7500 141.2500 117.7500 Du        
  31284 ****       120.7500 141.2500 118.0000 Du        
  31285 ****       120.7500 141.2500 118.2500 Du        
  31286 ****       120.7500 141.2500 123.2500 Du        
  31287 ****       120.7500 141.2500 123.5000 Du        
  31288 ****       120.7500 141.2500 123.7500 Du        
  31289 ****       120.7500 141.2500 124.0000 Du        
  31290 ****       120.7500 141.2500 124.2500 Du        
  31291 ****       120.7500 141.2500 124.5000 Du        
  31292 ****       120.7500 141.2500 124.7500 Du        
  31293 ****       120.7500 141.2500 125.0000 Du        
  31294 ****       120.7500 141.5000 117.7500 Du        
  31295 ****       120.7500 141.5000 118.0000 Du        
  31296 ****       120.7500 141.5000 118.2500 Du        
  31297 ****       120.7500 141.5000 118.5000 Du        
  31298 ****       120.7500 141.5000 122.7500 Du        
  31299 ****       120.7500 141.5000 123.0000 Du        
  31300 ****       120.7500 141.5000 123.2500 Du        
  31301 ****       120.7500 141.5000 123.5000 Du        
  31302 ****       120.7500 141.5000 123.7500 Du        
  31303 ****       120.7500 141.5000 124.0000 Du        
  31304 ****       120.7500 141.5000 124.2500 Du        
  31305 ****       120.7500 141.5000 124.5000 Du        
  31306 ****       120.7500 141.5000 124.7500 Du        
  31307 ****       120.7500 141.5000 125.0000 Du        
  31308 ****       120.7500 141.5000 125.2500 Du        
  31309 ****       120.7500 141.7500 117.7500 Du        
  31310 ****       120.7500 141.7500 118.0000 Du        
  31311 ****       120.7500 141.7500 118.2500 Du        
  31312 ****       120.7500 141.7500 118.5000 Du        
  31313 ****       120.7500 141.7500 122.5000 Du        
  31314 ****       120.7500 141.7500 122.7500 Du        
  31315 ****       120.7500 141.7500 123.0000 Du        
  31316 ****       120.7500 141.7500 123.2500 Du        
  31317 ****       120.7500 141.7500 123.5000 Du        
  31318 ****       120.7500 141.7500 123.7500 Du        
  31319 ****       120.7500 141.7500 124.0000 Du        
  31320 ****       120.7500 141.7500 124.2500 Du        
  31321 ****       120.7500 141.7500 124.5000 Du        
  31322 ****       120.7500 141.7500 124.7500 Du        
  31323 ****       120.7500 141.7500 125.0000 Du        
  31324 ****       120.7500 141.7500 125.2500 Du        
  31325 ****       120.7500 142.0000 117.5000 Du        
  31326 ****       120.7500 142.0000 117.7500 Du        
  31327 ****       120.7500 142.0000 118.0000 Du        
  31328 ****       120.7500 142.0000 118.2500 Du        
  31329 ****       120.7500 142.0000 118.5000 Du        
  31330 ****       120.7500 142.0000 122.5000 Du        
  31331 ****       120.7500 142.0000 122.7500 Du        
  31332 ****       120.7500 142.0000 123.0000 Du        
  31333 ****       120.7500 142.0000 123.2500 Du        
  31334 ****       120.7500 142.0000 123.5000 Du        
  31335 ****       120.7500 142.0000 123.7500 Du        
  31336 ****       120.7500 142.0000 124.0000 Du        
  31337 ****       120.7500 142.0000 124.2500 Du        
  31338 ****       120.7500 142.0000 124.5000 Du        
  31339 ****       120.7500 142.0000 124.7500 Du        
  31340 ****       120.7500 142.0000 125.0000 Du        
  31341 ****       120.7500 142.0000 125.2500 Du        
  31342 ****       120.7500 142.0000 125.5000 Du        
  31343 ****       120.7500 142.2500 117.5000 Du        
  31344 ****       120.7500 142.2500 117.7500 Du        
  31345 ****       120.7500 142.2500 118.0000 Du        
  31346 ****       120.7500 142.2500 118.2500 Du        
  31347 ****       120.7500 142.2500 118.5000 Du        
  31348 ****       120.7500 142.2500 123.0000 Du        
  31349 ****       120.7500 142.2500 123.2500 Du        
  31350 ****       120.7500 142.2500 123.5000 Du        
  31351 ****       120.7500 142.2500 123.7500 Du        
  31352 ****       120.7500 142.2500 124.0000 Du        
  31353 ****       120.7500 142.2500 124.2500 Du        
  31354 ****       120.7500 142.2500 124.5000 Du        
  31355 ****       120.7500 142.2500 124.7500 Du        
  31356 ****       120.7500 142.2500 125.0000 Du        
  31357 ****       120.7500 142.2500 125.2500 Du        
  31358 ****       120.7500 142.2500 125.5000 Du        
  31359 ****       120.7500 142.2500 125.7500 Du        
  31360 ****       120.7500 142.5000 117.5000 Du        
  31361 ****       120.7500 142.5000 117.7500 Du        
  31362 ****       120.7500 142.5000 118.0000 Du        
  31363 ****       120.7500 142.5000 118.2500 Du        
  31364 ****       120.7500 142.5000 118.5000 Du        
  31365 ****       120.7500 142.5000 124.0000 Du        
  31366 ****       120.7500 142.5000 124.2500 Du        
  31367 ****       120.7500 142.5000 124.5000 Du        
  31368 ****       120.7500 142.5000 124.7500 Du        
  31369 ****       120.7500 142.5000 125.0000 Du        
  31370 ****       120.7500 142.5000 125.2500 Du        
  31371 ****       120.7500 142.5000 125.5000 Du        
  31372 ****       120.7500 142.5000 125.7500 Du        
  31373 ****       120.7500 142.5000 126.0000 Du        
  31374 ****       120.7500 142.7500 117.5000 Du        
  31375 ****       120.7500 142.7500 117.7500 Du        
  31376 ****       120.7500 142.7500 118.0000 Du        
  31377 ****       120.7500 142.7500 118.2500 Du        
  31378 ****       120.7500 142.7500 118.5000 Du        
  31379 ****       120.7500 142.7500 124.5000 Du        
  31380 ****       120.7500 142.7500 124.7500 Du        
  31381 ****       120.7500 142.7500 125.0000 Du        
  31382 ****       120.7500 142.7500 125.2500 Du        
  31383 ****       120.7500 142.7500 125.5000 Du        
  31384 ****       120.7500 142.7500 125.7500 Du        
  31385 ****       120.7500 142.7500 126.0000 Du        
  31386 ****       120.7500 142.7500 126.2500 Du        
  31387 ****       120.7500 142.7500 126.5000 Du        
  31388 ****       120.7500 143.0000 117.5000 Du        
  31389 ****       120.7500 143.0000 117.7500 Du        
  31390 ****       120.7500 143.0000 118.0000 Du        
  31391 ****       120.7500 143.0000 118.2500 Du        
  31392 ****       120.7500 143.0000 118.5000 Du        
  31393 ****       120.7500 143.0000 125.0000 Du        
  31394 ****       120.7500 143.0000 125.2500 Du        
  31395 ****       120.7500 143.0000 125.5000 Du        
  31396 ****       120.7500 143.0000 125.7500 Du        
  31397 ****       120.7500 143.0000 126.0000 Du        
  31398 ****       120.7500 143.0000 126.2500 Du        
  31399 ****       120.7500 143.0000 126.5000 Du        
  31400 ****       120.7500 143.0000 126.7500 Du        
  31401 ****       120.7500 143.0000 127.0000 Du        
  31402 ****       120.7500 143.2500 117.5000 Du        
  31403 ****       120.7500 143.2500 117.7500 Du        
  31404 ****       120.7500 143.2500 118.0000 Du        
  31405 ****       120.7500 143.2500 118.2500 Du        
  31406 ****       120.7500 143.2500 118.5000 Du        
  31407 ****       120.7500 143.2500 125.2500 Du        
  31408 ****       120.7500 143.2500 125.5000 Du        
  31409 ****       120.7500 143.2500 125.7500 Du        
  31410 ****       120.7500 143.2500 126.0000 Du        
  31411 ****       120.7500 143.2500 126.2500 Du        
  31412 ****       120.7500 143.2500 126.5000 Du        
  31413 ****       120.7500 143.2500 126.7500 Du        
  31414 ****       120.7500 143.2500 127.0000 Du        
  31415 ****       120.7500 143.2500 127.2500 Du        
  31416 ****       120.7500 143.5000 117.7500 Du        
  31417 ****       120.7500 143.5000 118.0000 Du        
  31418 ****       120.7500 143.5000 118.2500 Du        
  31419 ****       120.7500 143.5000 118.5000 Du        
  31420 ****       120.7500 143.5000 125.7500 Du        
  31421 ****       120.7500 143.5000 126.0000 Du        
  31422 ****       120.7500 143.5000 126.2500 Du        
  31423 ****       120.7500 143.5000 126.5000 Du        
  31424 ****       120.7500 143.5000 126.7500 Du        
  31425 ****       120.7500 143.5000 127.0000 Du        
  31426 ****       120.7500 143.5000 127.2500 Du        
  31427 ****       120.7500 143.5000 127.5000 Du        
  31428 ****       120.7500 143.5000 127.7500 Du        
  31429 ****       120.7500 143.5000 128.0000 Du        
  31430 ****       120.7500 143.7500 118.0000 Du        
  31431 ****       120.7500 143.7500 118.2500 Du        
  31432 ****       120.7500 143.7500 118.5000 Du        
  31433 ****       120.7500 143.7500 125.7500 Du        
  31434 ****       120.7500 143.7500 126.0000 Du        
  31435 ****       120.7500 143.7500 126.2500 Du        
  31436 ****       120.7500 143.7500 126.5000 Du        
  31437 ****       120.7500 143.7500 126.7500 Du        
  31438 ****       120.7500 143.7500 127.0000 Du        
  31439 ****       120.7500 143.7500 127.2500 Du        
  31440 ****       120.7500 143.7500 127.5000 Du        
  31441 ****       120.7500 143.7500 127.7500 Du        
  31442 ****       120.7500 143.7500 128.0000 Du        
  31443 ****       120.7500 143.7500 128.2500 Du        
  31444 ****       120.7500 144.0000 118.0000 Du        
  31445 ****       120.7500 144.0000 118.2500 Du        
  31446 ****       120.7500 144.0000 126.0000 Du        
  31447 ****       120.7500 144.0000 126.2500 Du        
  31448 ****       120.7500 144.0000 126.5000 Du        
  31449 ****       120.7500 144.0000 126.7500 Du        
  31450 ****       120.7500 144.0000 127.0000 Du        
  31451 ****       120.7500 144.0000 127.2500 Du        
  31452 ****       120.7500 144.0000 127.5000 Du        
  31453 ****       120.7500 144.0000 127.7500 Du        
  31454 ****       120.7500 144.0000 128.0000 Du        
  31455 ****       120.7500 144.0000 128.2500 Du        
  31456 ****       120.7500 144.2500 126.2500 Du        
  31457 ****       120.7500 144.2500 126.5000 Du        
  31458 ****       120.7500 144.2500 126.7500 Du        
  31459 ****       120.7500 144.2500 127.0000 Du        
  31460 ****       120.7500 144.2500 127.2500 Du        
  31461 ****       120.7500 144.2500 127.7500 Du        
  31462 ****       120.7500 144.2500 128.0000 Du        
  31463 ****       120.7500 144.2500 128.2500 Du        
  31464 ****       120.7500 144.5000 126.5000 Du        
  31465 ****       120.7500 144.5000 126.7500 Du        
  31466 ****       120.7500 144.5000 127.0000 Du        
  31467 ****       120.7500 144.5000 127.2500 Du        
  31468 ****       120.7500 144.5000 127.5000 Du        
  31469 ****       120.7500 144.5000 127.7500 Du        
  31470 ****       120.7500 144.5000 128.0000 Du        
  31471 ****       120.7500 144.7500 126.7500 Du        
  31472 ****       120.7500 144.7500 127.0000 Du        
  31473 ****       120.7500 144.7500 127.2500 Du        
  31474 ****       120.7500 144.7500 127.5000 Du        
  31475 ****       120.7500 144.7500 127.7500 Du        
  31476 ****       120.7500 144.7500 128.0000 Du        
  31477 ****       120.7500 148.2500 118.7500 Du        
  31478 ****       120.7500 149.0000 119.2500 Du        
  31479 ****       120.7500 149.2500 119.2500 Du        
  31480 ****       120.7500 149.5000 117.7500 Du        
  31481 ****       120.7500 149.5000 118.0000 Du        
  31482 ****       120.7500 149.5000 118.2500 Du        
  31483 ****       120.7500 149.5000 118.5000 Du        
  31484 ****       120.7500 149.5000 118.7500 Du        
  31485 ****       120.7500 149.5000 119.0000 Du        
  31486 ****       120.7500 149.5000 119.2500 Du        
  31487 ****       120.7500 149.7500 117.5000 Du        
  31488 ****       120.7500 149.7500 117.7500 Du        
  31489 ****       120.7500 149.7500 118.0000 Du        
  31490 ****       120.7500 149.7500 118.2500 Du        
  31491 ****       120.7500 149.7500 118.5000 Du        
  31492 ****       120.7500 149.7500 118.7500 Du        
  31493 ****       120.7500 149.7500 119.0000 Du        
  31494 ****       120.7500 150.0000 117.5000 Du        
  31495 ****       120.7500 150.0000 117.7500 Du        
  31496 ****       120.7500 150.0000 118.0000 Du        
  31497 ****       120.7500 150.0000 118.2500 Du        
  31498 ****       120.7500 150.0000 118.5000 Du        
  31499 ****       120.7500 150.0000 118.7500 Du        
  31500 ****       120.7500 150.2500 117.7500 Du        
  31501 ****       120.7500 150.2500 118.0000 Du        
  31502 ****       120.7500 150.2500 118.2500 Du        
  31503 ****       120.7500 150.2500 118.5000 Du        
  31504 ****       120.7500 150.5000 117.7500 Du        
  31505 ****       120.7500 150.5000 118.0000 Du        
  31506 ****       120.7500 150.5000 118.2500 Du        
  31507 ****       120.7500 150.7500 117.7500 Du        
  31508 ****       120.7500 150.7500 118.0000 Du        
  31509 ****       120.7500 153.0000 128.0000 Du        
  31510 ****       120.7500 153.0000 128.2500 Du        
  31511 ****       120.7500 153.2500 127.2500 Du        
  31512 ****       120.7500 153.2500 127.5000 Du        
  31513 ****       120.7500 153.2500 127.7500 Du        
  31514 ****       120.7500 153.2500 128.0000 Du        
  31515 ****       120.7500 153.2500 128.2500 Du        
  31516 ****       120.7500 153.5000 126.7500 Du        
  31517 ****       120.7500 153.5000 127.2500 Du        
  31518 ****       120.7500 153.5000 127.5000 Du        
  31519 ****       120.7500 153.5000 127.7500 Du        
  31520 ****       120.7500 153.7500 125.7500 Du        
  31521 ****       120.7500 153.7500 126.0000 Du        
  31522 ****       120.7500 153.7500 126.2500 Du        
  31523 ****       120.7500 153.7500 126.5000 Du        
  31524 ****       120.7500 153.7500 126.7500 Du        
  31525 ****       120.7500 153.7500 127.0000 Du        
  31526 ****       120.7500 153.7500 127.2500 Du        
  31527 ****       120.7500 153.7500 127.5000 Du        
  31528 ****       120.7500 153.7500 127.7500 Du        
  31529 ****       120.7500 154.0000 124.7500 Du        
  31530 ****       120.7500 154.0000 125.0000 Du        
  31531 ****       120.7500 154.0000 125.2500 Du        
  31532 ****       120.7500 154.0000 125.5000 Du        
  31533 ****       120.7500 154.0000 125.7500 Du        
  31534 ****       120.7500 154.0000 126.0000 Du        
  31535 ****       120.7500 154.0000 126.2500 Du        
  31536 ****       120.7500 154.0000 126.5000 Du        
  31537 ****       120.7500 154.0000 126.7500 Du        
  31538 ****       120.7500 154.0000 127.0000 Du        
  31539 ****       120.7500 154.0000 127.2500 Du        
  31540 ****       120.7500 154.0000 127.5000 Du        
  31541 ****       120.7500 154.0000 127.7500 Du        
  31542 ****       120.7500 154.2500 124.0000 Du        
  31543 ****       120.7500 154.2500 124.2500 Du        
  31544 ****       120.7500 154.2500 124.5000 Du        
  31545 ****       120.7500 154.2500 124.7500 Du        
  31546 ****       120.7500 154.2500 125.0000 Du        
  31547 ****       120.7500 154.2500 125.2500 Du        
  31548 ****       120.7500 154.2500 125.5000 Du        
  31549 ****       120.7500 154.2500 125.7500 Du        
  31550 ****       120.7500 154.2500 126.0000 Du        
  31551 ****       120.7500 154.2500 126.2500 Du        
  31552 ****       120.7500 154.2500 126.5000 Du        
  31553 ****       120.7500 154.2500 126.7500 Du        
  31554 ****       120.7500 154.2500 127.0000 Du        
  31555 ****       120.7500 154.2500 127.2500 Du        
  31556 ****       120.7500 154.2500 127.5000 Du        
  31557 ****       120.7500 154.5000 124.0000 Du        
  31558 ****       120.7500 154.5000 124.2500 Du        
  31559 ****       120.7500 154.5000 124.5000 Du        
  31560 ****       120.7500 154.5000 124.7500 Du        
  31561 ****       120.7500 154.5000 125.0000 Du        
  31562 ****       120.7500 154.5000 125.2500 Du        
  31563 ****       120.7500 154.5000 125.5000 Du        
  31564 ****       120.7500 154.5000 125.7500 Du        
  31565 ****       120.7500 154.5000 126.0000 Du        
  31566 ****       120.7500 154.5000 126.2500 Du        
  31567 ****       120.7500 154.5000 126.5000 Du        
  31568 ****       120.7500 154.5000 126.7500 Du        
  31569 ****       120.7500 154.5000 127.0000 Du        
  31570 ****       120.7500 154.5000 127.2500 Du        
  31571 ****       120.7500 154.5000 136.2500 Du        
  31572 ****       120.7500 154.5000 136.5000 Du        
  31573 ****       120.7500 154.5000 136.7500 Du        
  31574 ****       120.7500 154.5000 137.0000 Du        
  31575 ****       120.7500 154.5000 137.2500 Du        
  31576 ****       120.7500 154.5000 137.5000 Du        
  31577 ****       120.7500 154.5000 137.7500 Du        
  31578 ****       120.7500 154.7500 123.7500 Du        
  31579 ****       120.7500 154.7500 124.0000 Du        
  31580 ****       120.7500 154.7500 124.2500 Du        
  31581 ****       120.7500 154.7500 124.5000 Du        
  31582 ****       120.7500 154.7500 124.7500 Du        
  31583 ****       120.7500 154.7500 125.0000 Du        
  31584 ****       120.7500 154.7500 125.2500 Du        
  31585 ****       120.7500 154.7500 125.5000 Du        
  31586 ****       120.7500 154.7500 125.7500 Du        
  31587 ****       120.7500 154.7500 126.0000 Du        
  31588 ****       120.7500 154.7500 126.2500 Du        
  31589 ****       120.7500 154.7500 126.5000 Du        
  31590 ****       120.7500 154.7500 126.7500 Du        
  31591 ****       120.7500 154.7500 127.0000 Du        
  31592 ****       120.7500 154.7500 127.2500 Du        
  31593 ****       120.7500 154.7500 135.0000 Du        
  31594 ****       120.7500 154.7500 135.2500 Du        
  31595 ****       120.7500 154.7500 135.5000 Du        
  31596 ****       120.7500 154.7500 135.7500 Du        
  31597 ****       120.7500 154.7500 136.0000 Du        
  31598 ****       120.7500 154.7500 136.2500 Du        
  31599 ****       120.7500 154.7500 136.5000 Du        
  31600 ****       120.7500 154.7500 136.7500 Du        
  31601 ****       120.7500 154.7500 137.0000 Du        
  31602 ****       120.7500 154.7500 137.2500 Du        
  31603 ****       120.7500 154.7500 137.5000 Du        
  31604 ****       120.7500 154.7500 137.7500 Du        
  31605 ****       120.7500 155.0000 123.7500 Du        
  31606 ****       120.7500 155.0000 124.0000 Du        
  31607 ****       120.7500 155.0000 124.2500 Du        
  31608 ****       120.7500 155.0000 124.5000 Du        
  31609 ****       120.7500 155.0000 124.7500 Du        
  31610 ****       120.7500 155.0000 125.0000 Du        
  31611 ****       120.7500 155.0000 125.2500 Du        
  31612 ****       120.7500 155.0000 125.5000 Du        
  31613 ****       120.7500 155.0000 125.7500 Du        
  31614 ****       120.7500 155.0000 126.0000 Du        
  31615 ****       120.7500 155.0000 126.2500 Du        
  31616 ****       120.7500 155.0000 126.5000 Du        
  31617 ****       120.7500 155.0000 126.7500 Du        
  31618 ****       120.7500 155.0000 127.0000 Du        
  31619 ****       120.7500 155.0000 127.2500 Du        
  31620 ****       120.7500 155.0000 135.0000 Du        
  31621 ****       120.7500 155.0000 135.2500 Du        
  31622 ****       120.7500 155.0000 135.5000 Du        
  31623 ****       120.7500 155.0000 135.7500 Du        
  31624 ****       120.7500 155.0000 136.0000 Du        
  31625 ****       120.7500 155.0000 136.2500 Du        
  31626 ****       120.7500 155.0000 136.5000 Du        
  31627 ****       120.7500 155.0000 136.7500 Du        
  31628 ****       120.7500 155.0000 137.0000 Du        
  31629 ****       120.7500 155.0000 137.2500 Du        
  31630 ****       120.7500 155.0000 137.5000 Du        
  31631 ****       120.7500 155.0000 137.7500 Du        
  31632 ****       120.7500 155.2500 115.2500 Du        
  31633 ****       120.7500 155.2500 115.5000 Du        
  31634 ****       120.7500 155.2500 115.7500 Du        
  31635 ****       120.7500 155.2500 123.7500 Du        
  31636 ****       120.7500 155.2500 124.0000 Du        
  31637 ****       120.7500 155.2500 124.2500 Du        
  31638 ****       120.7500 155.2500 124.5000 Du        
  31639 ****       120.7500 155.2500 124.7500 Du        
  31640 ****       120.7500 155.2500 125.0000 Du        
  31641 ****       120.7500 155.2500 125.2500 Du        
  31642 ****       120.7500 155.2500 125.5000 Du        
  31643 ****       120.7500 155.2500 125.7500 Du        
  31644 ****       120.7500 155.2500 126.0000 Du        
  31645 ****       120.7500 155.2500 126.2500 Du        
  31646 ****       120.7500 155.2500 126.5000 Du        
  31647 ****       120.7500 155.2500 126.7500 Du        
  31648 ****       120.7500 155.2500 127.0000 Du        
  31649 ****       120.7500 155.2500 127.2500 Du        
  31650 ****       120.7500 155.2500 135.0000 Du        
  31651 ****       120.7500 155.2500 135.2500 Du        
  31652 ****       120.7500 155.2500 135.5000 Du        
  31653 ****       120.7500 155.2500 135.7500 Du        
  31654 ****       120.7500 155.2500 136.0000 Du        
  31655 ****       120.7500 155.2500 136.2500 Du        
  31656 ****       120.7500 155.2500 136.5000 Du        
  31657 ****       120.7500 155.2500 136.7500 Du        
  31658 ****       120.7500 155.2500 137.0000 Du        
  31659 ****       120.7500 155.2500 137.2500 Du        
  31660 ****       120.7500 155.2500 137.5000 Du        
  31661 ****       120.7500 155.2500 137.7500 Du        
  31662 ****       120.7500 155.5000 114.5000 Du        
  31663 ****       120.7500 155.5000 114.7500 Du        
  31664 ****       120.7500 155.5000 115.0000 Du        
  31665 ****       120.7500 155.5000 115.2500 Du        
  31666 ****       120.7500 155.5000 115.5000 Du        
  31667 ****       120.7500 155.5000 115.7500 Du        
  31668 ****       120.7500 155.5000 116.0000 Du        
  31669 ****       120.7500 155.5000 123.7500 Du        
  31670 ****       120.7500 155.5000 124.0000 Du        
  31671 ****       120.7500 155.5000 124.2500 Du        
  31672 ****       120.7500 155.5000 124.5000 Du        
  31673 ****       120.7500 155.5000 124.7500 Du        
  31674 ****       120.7500 155.5000 125.0000 Du        
  31675 ****       120.7500 155.5000 125.2500 Du        
  31676 ****       120.7500 155.5000 125.5000 Du        
  31677 ****       120.7500 155.5000 125.7500 Du        
  31678 ****       120.7500 155.5000 126.0000 Du        
  31679 ****       120.7500 155.5000 126.2500 Du        
  31680 ****       120.7500 155.5000 126.5000 Du        
  31681 ****       120.7500 155.5000 126.7500 Du        
  31682 ****       120.7500 155.5000 127.0000 Du        
  31683 ****       120.7500 155.5000 135.0000 Du        
  31684 ****       120.7500 155.5000 135.2500 Du        
  31685 ****       120.7500 155.5000 135.5000 Du        
  31686 ****       120.7500 155.5000 135.7500 Du        
  31687 ****       120.7500 155.5000 136.0000 Du        
  31688 ****       120.7500 155.5000 136.2500 Du        
  31689 ****       120.7500 155.5000 136.5000 Du        
  31690 ****       120.7500 155.5000 136.7500 Du        
  31691 ****       120.7500 155.5000 137.0000 Du        
  31692 ****       120.7500 155.5000 137.2500 Du        
  31693 ****       120.7500 155.5000 137.5000 Du        
  31694 ****       120.7500 155.5000 137.7500 Du        
  31695 ****       120.7500 155.7500 113.7500 Du        
  31696 ****       120.7500 155.7500 114.0000 Du        
  31697 ****       120.7500 155.7500 114.2500 Du        
  31698 ****       120.7500 155.7500 114.5000 Du        
  31699 ****       120.7500 155.7500 114.7500 Du        
  31700 ****       120.7500 155.7500 115.0000 Du        
  31701 ****       120.7500 155.7500 115.2500 Du        
  31702 ****       120.7500 155.7500 115.5000 Du        
  31703 ****       120.7500 155.7500 115.7500 Du        
  31704 ****       120.7500 155.7500 116.0000 Du        
  31705 ****       120.7500 155.7500 123.7500 Du        
  31706 ****       120.7500 155.7500 124.0000 Du        
  31707 ****       120.7500 155.7500 124.2500 Du        
  31708 ****       120.7500 155.7500 124.5000 Du        
  31709 ****       120.7500 155.7500 124.7500 Du        
  31710 ****       120.7500 155.7500 125.0000 Du        
  31711 ****       120.7500 155.7500 125.2500 Du        
  31712 ****       120.7500 155.7500 125.5000 Du        
  31713 ****       120.7500 155.7500 125.7500 Du        
  31714 ****       120.7500 155.7500 126.0000 Du        
  31715 ****       120.7500 155.7500 126.2500 Du        
  31716 ****       120.7500 155.7500 126.5000 Du        
  31717 ****       120.7500 155.7500 126.7500 Du        
  31718 ****       120.7500 155.7500 127.0000 Du        
  31719 ****       120.7500 155.7500 135.0000 Du        
  31720 ****       120.7500 155.7500 135.2500 Du        
  31721 ****       120.7500 155.7500 135.5000 Du        
  31722 ****       120.7500 155.7500 135.7500 Du        
  31723 ****       120.7500 155.7500 136.0000 Du        
  31724 ****       120.7500 155.7500 136.2500 Du        
  31725 ****       120.7500 155.7500 136.5000 Du        
  31726 ****       120.7500 155.7500 136.7500 Du        
  31727 ****       120.7500 155.7500 137.0000 Du        
  31728 ****       120.7500 155.7500 137.2500 Du        
  31729 ****       120.7500 155.7500 137.5000 Du        
  31730 ****       120.7500 156.0000 113.7500 Du        
  31731 ****       120.7500 156.0000 114.0000 Du        
  31732 ****       120.7500 156.0000 114.2500 Du        
  31733 ****       120.7500 156.0000 114.5000 Du        
  31734 ****       120.7500 156.0000 114.7500 Du        
  31735 ****       120.7500 156.0000 115.0000 Du        
  31736 ****       120.7500 156.0000 115.2500 Du        
  31737 ****       120.7500 156.0000 115.5000 Du        
  31738 ****       120.7500 156.0000 115.7500 Du        
  31739 ****       120.7500 156.0000 116.0000 Du        
  31740 ****       120.7500 156.0000 123.7500 Du        
  31741 ****       120.7500 156.0000 124.0000 Du        
  31742 ****       120.7500 156.0000 124.2500 Du        
  31743 ****       120.7500 156.0000 124.5000 Du        
  31744 ****       120.7500 156.0000 124.7500 Du        
  31745 ****       120.7500 156.0000 125.0000 Du        
  31746 ****       120.7500 156.0000 125.2500 Du        
  31747 ****       120.7500 156.0000 125.5000 Du        
  31748 ****       120.7500 156.0000 125.7500 Du        
  31749 ****       120.7500 156.0000 126.0000 Du        
  31750 ****       120.7500 156.0000 126.2500 Du        
  31751 ****       120.7500 156.0000 126.5000 Du        
  31752 ****       120.7500 156.0000 126.7500 Du        
  31753 ****       120.7500 156.0000 127.0000 Du        
  31754 ****       120.7500 156.0000 135.0000 Du        
  31755 ****       120.7500 156.0000 135.2500 Du        
  31756 ****       120.7500 156.0000 135.5000 Du        
  31757 ****       120.7500 156.0000 135.7500 Du        
  31758 ****       120.7500 156.0000 136.0000 Du        
  31759 ****       120.7500 156.2500 113.7500 Du        
  31760 ****       120.7500 156.2500 114.0000 Du        
  31761 ****       120.7500 156.2500 114.2500 Du        
  31762 ****       120.7500 156.2500 114.5000 Du        
  31763 ****       120.7500 156.2500 114.7500 Du        
  31764 ****       120.7500 156.2500 115.0000 Du        
  31765 ****       120.7500 156.2500 115.2500 Du        
  31766 ****       120.7500 156.2500 115.5000 Du        
  31767 ****       120.7500 156.2500 115.7500 Du        
  31768 ****       120.7500 156.2500 116.0000 Du        
  31769 ****       120.7500 156.2500 116.2500 Du        
  31770 ****       120.7500 156.2500 124.0000 Du        
  31771 ****       120.7500 156.2500 124.2500 Du        
  31772 ****       120.7500 156.2500 124.5000 Du        
  31773 ****       120.7500 156.2500 124.7500 Du        
  31774 ****       120.7500 156.2500 125.0000 Du        
  31775 ****       120.7500 156.2500 125.2500 Du        
  31776 ****       120.7500 156.2500 125.5000 Du        
  31777 ****       120.7500 156.2500 125.7500 Du        
  31778 ****       120.7500 156.2500 126.0000 Du        
  31779 ****       120.7500 156.2500 126.2500 Du        
  31780 ****       120.7500 156.2500 126.5000 Du        
  31781 ****       120.7500 156.2500 126.7500 Du        
  31782 ****       120.7500 156.2500 127.0000 Du        
  31783 ****       120.7500 156.5000 114.0000 Du        
  31784 ****       120.7500 156.5000 114.2500 Du        
  31785 ****       120.7500 156.5000 114.5000 Du        
  31786 ****       120.7500 156.5000 114.7500 Du        
  31787 ****       120.7500 156.5000 115.0000 Du        
  31788 ****       120.7500 156.5000 115.2500 Du        
  31789 ****       120.7500 156.5000 115.5000 Du        
  31790 ****       120.7500 156.5000 115.7500 Du        
  31791 ****       120.7500 156.5000 116.0000 Du        
  31792 ****       120.7500 156.5000 116.2500 Du        
  31793 ****       120.7500 156.5000 124.0000 Du        
  31794 ****       120.7500 156.5000 124.2500 Du        
  31795 ****       120.7500 156.5000 124.5000 Du        
  31796 ****       120.7500 156.5000 124.7500 Du        
  31797 ****       120.7500 156.5000 125.0000 Du        
  31798 ****       120.7500 156.5000 125.2500 Du        
  31799 ****       120.7500 156.5000 125.5000 Du        
  31800 ****       120.7500 156.5000 125.7500 Du        
  31801 ****       120.7500 156.5000 126.0000 Du        
  31802 ****       120.7500 156.5000 126.2500 Du        
  31803 ****       120.7500 156.5000 126.5000 Du        
  31804 ****       120.7500 156.5000 126.7500 Du        
  31805 ****       120.7500 156.7500 113.7500 Du        
  31806 ****       120.7500 156.7500 114.0000 Du        
  31807 ****       120.7500 156.7500 114.2500 Du        
  31808 ****       120.7500 156.7500 114.5000 Du        
  31809 ****       120.7500 156.7500 114.7500 Du        
  31810 ****       120.7500 156.7500 115.0000 Du        
  31811 ****       120.7500 156.7500 115.2500 Du        
  31812 ****       120.7500 156.7500 115.5000 Du        
  31813 ****       120.7500 156.7500 115.7500 Du        
  31814 ****       120.7500 156.7500 116.0000 Du        
  31815 ****       120.7500 156.7500 116.2500 Du        
  31816 ****       120.7500 156.7500 124.0000 Du        
  31817 ****       120.7500 156.7500 124.2500 Du        
  31818 ****       120.7500 156.7500 124.5000 Du        
  31819 ****       120.7500 156.7500 124.7500 Du        
  31820 ****       120.7500 156.7500 125.0000 Du        
  31821 ****       120.7500 156.7500 125.2500 Du        
  31822 ****       120.7500 156.7500 125.5000 Du        
  31823 ****       120.7500 156.7500 125.7500 Du        
  31824 ****       120.7500 156.7500 126.0000 Du        
  31825 ****       120.7500 156.7500 126.2500 Du        
  31826 ****       120.7500 156.7500 126.5000 Du        
  31827 ****       120.7500 156.7500 126.7500 Du        
  31828 ****       120.7500 156.7500 127.0000 Du        
  31829 ****       120.7500 157.0000 114.2500 Du        
  31830 ****       120.7500 157.0000 114.5000 Du        
  31831 ****       120.7500 157.0000 114.7500 Du        
  31832 ****       120.7500 157.0000 115.0000 Du        
  31833 ****       120.7500 157.0000 115.2500 Du        
  31834 ****       120.7500 157.0000 115.5000 Du        
  31835 ****       120.7500 157.0000 115.7500 Du        
  31836 ****       120.7500 157.0000 116.0000 Du        
  31837 ****       120.7500 157.0000 116.2500 Du        
  31838 ****       120.7500 157.0000 124.0000 Du        
  31839 ****       120.7500 157.0000 124.2500 Du        
  31840 ****       120.7500 157.0000 124.5000 Du        
  31841 ****       120.7500 157.0000 124.7500 Du        
  31842 ****       120.7500 157.0000 125.0000 Du        
  31843 ****       120.7500 157.0000 125.2500 Du        
  31844 ****       120.7500 157.0000 125.5000 Du        
  31845 ****       120.7500 157.0000 125.7500 Du        
  31846 ****       120.7500 157.0000 126.0000 Du        
  31847 ****       120.7500 157.0000 126.2500 Du        
  31848 ****       120.7500 157.0000 126.5000 Du        
  31849 ****       120.7500 157.0000 126.7500 Du        
  31850 ****       120.7500 157.0000 127.0000 Du        
  31851 ****       120.7500 157.2500 115.2500 Du        
  31852 ****       120.7500 157.2500 115.5000 Du        
  31853 ****       120.7500 157.2500 115.7500 Du        
  31854 ****       120.7500 157.2500 116.0000 Du        
  31855 ****       120.7500 157.2500 116.2500 Du        
  31856 ****       120.7500 157.2500 124.2500 Du        
  31857 ****       120.7500 157.2500 124.5000 Du        
  31858 ****       120.7500 157.2500 124.7500 Du        
  31859 ****       120.7500 157.2500 125.0000 Du        
  31860 ****       120.7500 157.2500 125.2500 Du        
  31861 ****       120.7500 157.2500 125.5000 Du        
  31862 ****       120.7500 157.2500 125.7500 Du        
  31863 ****       120.7500 157.2500 126.0000 Du        
  31864 ****       120.7500 157.2500 126.2500 Du        
  31865 ****       120.7500 157.2500 126.5000 Du        
  31866 ****       120.7500 157.2500 126.7500 Du        
  31867 ****       120.7500 157.2500 127.0000 Du        
  31868 ****       120.7500 157.5000 115.2500 Du        
  31869 ****       120.7500 157.5000 124.2500 Du        
  31870 ****       120.7500 157.5000 124.5000 Du        
  31871 ****       120.7500 157.5000 124.7500 Du        
  31872 ****       120.7500 157.5000 125.0000 Du        
  31873 ****       120.7500 157.5000 125.2500 Du        
  31874 ****       120.7500 157.5000 125.5000 Du        
  31875 ****       120.7500 157.5000 125.7500 Du        
  31876 ****       120.7500 157.5000 126.0000 Du        
  31877 ****       120.7500 157.5000 126.2500 Du        
  31878 ****       120.7500 157.5000 126.5000 Du        
  31879 ****       120.7500 157.5000 126.7500 Du        
  31880 ****       120.7500 157.5000 127.0000 Du        
  31881 ****       120.7500 157.7500 115.2500 Du        
  31882 ****       120.7500 157.7500 116.0000 Du        
  31883 ****       120.7500 158.0000 115.2500 Du        
  31884 ****       120.7500 158.7500 116.0000 Du        
  31885 ****       120.7500 158.7500 116.2500 Du        
  31886 ****       120.7500 159.0000 115.7500 Du        
  31887 ****       120.7500 159.0000 116.0000 Du        
  31888 ****       120.7500 159.0000 116.2500 Du        
  31889 ****       120.7500 159.2500 116.0000 Du        
  31890 ****       120.7500 159.2500 116.2500 Du        
  31891 ****       120.7500 159.2500 116.5000 Du        
  31892 ****       120.7500 159.5000 116.2500 Du        
  31893 ****       120.7500 159.5000 116.5000 Du        
  31894 ****       120.7500 159.7500 116.0000 Du        
  31895 ****       120.7500 159.7500 116.2500 Du        
  31896 ****       120.7500 159.7500 116.5000 Du        
  31897 ****       120.7500 159.7500 116.7500 Du        
  31898 ****       120.7500 160.0000 116.0000 Du        
  31899 ****       120.7500 160.0000 116.2500 Du        
  31900 ****       120.7500 160.0000 116.5000 Du        
  31901 ****       120.7500 160.0000 116.7500 Du        
  31902 ****       120.7500 160.0000 117.0000 Du        
  31903 ****       120.7500 160.2500 116.0000 Du        
  31904 ****       120.7500 160.2500 116.2500 Du        
  31905 ****       120.7500 160.2500 116.5000 Du        
  31906 ****       120.7500 160.2500 116.7500 Du        
  31907 ****       120.7500 160.2500 117.0000 Du        
  31908 ****       120.7500 160.5000 116.0000 Du        
  31909 ****       120.7500 160.5000 116.2500 Du        
  31910 ****       120.7500 160.5000 116.5000 Du        
  31911 ****       120.7500 160.5000 116.7500 Du        
  31912 ****       120.7500 160.5000 117.0000 Du        
  31913 ****       120.7500 160.5000 117.2500 Du        
  31914 ****       120.7500 160.7500 116.0000 Du        
  31915 ****       120.7500 160.7500 116.2500 Du        
  31916 ****       120.7500 160.7500 116.5000 Du        
  31917 ****       120.7500 160.7500 116.7500 Du        
  31918 ****       120.7500 160.7500 117.0000 Du        
  31919 ****       120.7500 160.7500 117.2500 Du        
  31920 ****       120.7500 161.0000 116.2500 Du        
  31921 ****       120.7500 161.0000 116.5000 Du        
  31922 ****       120.7500 161.0000 116.7500 Du        
  31923 ****       120.7500 161.0000 117.0000 Du        
  31924 ****       120.7500 161.0000 117.2500 Du        
  31925 ****       120.7500 161.2500 116.7500 Du        
  31926 ****       121.0000 135.5000 129.7500 Du        
  31927 ****       121.0000 135.7500 129.5000 Du        
  31928 ****       121.0000 135.7500 129.7500 Du        
  31929 ****       121.0000 135.7500 130.0000 Du        
  31930 ****       121.0000 136.0000 129.5000 Du        
  31931 ****       121.0000 136.0000 129.7500 Du        
  31932 ****       121.0000 136.0000 130.0000 Du        
  31933 ****       121.0000 136.0000 130.2500 Du        
  31934 ****       121.0000 136.2500 129.5000 Du        
  31935 ****       121.0000 136.2500 129.7500 Du        
  31936 ****       121.0000 136.2500 130.0000 Du        
  31937 ****       121.0000 136.2500 130.2500 Du        
  31938 ****       121.0000 136.2500 130.5000 Du        
  31939 ****       121.0000 136.5000 128.7500 Du        
  31940 ****       121.0000 136.5000 129.0000 Du        
  31941 ****       121.0000 136.5000 129.2500 Du        
  31942 ****       121.0000 136.5000 129.7500 Du        
  31943 ****       121.0000 136.5000 130.0000 Du        
  31944 ****       121.0000 136.5000 130.2500 Du        
  31945 ****       121.0000 136.5000 130.5000 Du        
  31946 ****       121.0000 136.5000 130.7500 Du        
  31947 ****       121.0000 136.7500 128.5000 Du        
  31948 ****       121.0000 136.7500 128.7500 Du        
  31949 ****       121.0000 136.7500 129.0000 Du        
  31950 ****       121.0000 136.7500 129.2500 Du        
  31951 ****       121.0000 136.7500 129.5000 Du        
  31952 ****       121.0000 136.7500 129.7500 Du        
  31953 ****       121.0000 136.7500 130.0000 Du        
  31954 ****       121.0000 136.7500 130.2500 Du        
  31955 ****       121.0000 136.7500 130.5000 Du        
  31956 ****       121.0000 137.0000 127.7500 Du        
  31957 ****       121.0000 137.0000 128.2500 Du        
  31958 ****       121.0000 137.0000 128.5000 Du        
  31959 ****       121.0000 137.0000 128.7500 Du        
  31960 ****       121.0000 137.0000 129.0000 Du        
  31961 ****       121.0000 137.0000 129.2500 Du        
  31962 ****       121.0000 137.0000 129.7500 Du        
  31963 ****       121.0000 137.2500 127.0000 Du        
  31964 ****       121.0000 137.2500 127.5000 Du        
  31965 ****       121.0000 137.2500 127.7500 Du        
  31966 ****       121.0000 137.2500 128.0000 Du        
  31967 ****       121.0000 137.2500 128.2500 Du        
  31968 ****       121.0000 137.2500 128.5000 Du        
  31969 ****       121.0000 137.5000 115.2500 Du        
  31970 ****       121.0000 137.5000 126.0000 Du        
  31971 ****       121.0000 137.5000 126.2500 Du        
  31972 ****       121.0000 137.5000 126.5000 Du        
  31973 ****       121.0000 137.5000 126.7500 Du        
  31974 ****       121.0000 137.5000 127.0000 Du        
  31975 ****       121.0000 137.5000 127.2500 Du        
  31976 ****       121.0000 137.5000 127.5000 Du        
  31977 ****       121.0000 137.5000 127.7500 Du        
  31978 ****       121.0000 137.5000 128.0000 Du        
  31979 ****       121.0000 137.5000 128.2500 Du        
  31980 ****       121.0000 137.7500 115.2500 Du        
  31981 ****       121.0000 137.7500 115.5000 Du        
  31982 ****       121.0000 137.7500 115.7500 Du        
  31983 ****       121.0000 137.7500 126.0000 Du        
  31984 ****       121.0000 137.7500 126.2500 Du        
  31985 ****       121.0000 137.7500 126.5000 Du        
  31986 ****       121.0000 137.7500 126.7500 Du        
  31987 ****       121.0000 137.7500 127.0000 Du        
  31988 ****       121.0000 137.7500 127.2500 Du        
  31989 ****       121.0000 137.7500 127.5000 Du        
  31990 ****       121.0000 137.7500 127.7500 Du        
  31991 ****       121.0000 137.7500 128.0000 Du        
  31992 ****       121.0000 137.7500 128.2500 Du        
  31993 ****       121.0000 138.0000 125.7500 Du        
  31994 ****       121.0000 138.0000 126.0000 Du        
  31995 ****       121.0000 138.0000 126.2500 Du        
  31996 ****       121.0000 138.0000 126.5000 Du        
  31997 ****       121.0000 138.0000 126.7500 Du        
  31998 ****       121.0000 138.0000 127.0000 Du        
  31999 ****       121.0000 138.0000 127.2500 Du        
  32000 ****       121.0000 138.0000 127.5000 Du        
  32001 ****       121.0000 138.0000 127.7500 Du        
  32002 ****       121.0000 138.0000 128.0000 Du        
  32003 ****       121.0000 138.0000 128.2500 Du        
  32004 ****       121.0000 138.2500 125.7500 Du        
  32005 ****       121.0000 138.2500 126.0000 Du        
  32006 ****       121.0000 138.2500 126.2500 Du        
  32007 ****       121.0000 138.2500 126.5000 Du        
  32008 ****       121.0000 138.2500 126.7500 Du        
  32009 ****       121.0000 138.2500 127.0000 Du        
  32010 ****       121.0000 138.2500 127.2500 Du        
  32011 ****       121.0000 138.2500 127.5000 Du        
  32012 ****       121.0000 138.2500 127.7500 Du        
  32013 ****       121.0000 138.2500 128.0000 Du        
  32014 ****       121.0000 138.5000 125.5000 Du        
  32015 ****       121.0000 138.5000 125.7500 Du        
  32016 ****       121.0000 138.5000 126.0000 Du        
  32017 ****       121.0000 138.5000 126.2500 Du        
  32018 ****       121.0000 138.5000 126.5000 Du        
  32019 ****       121.0000 138.5000 126.7500 Du        
  32020 ****       121.0000 138.5000 127.0000 Du        
  32021 ****       121.0000 138.5000 127.2500 Du        
  32022 ****       121.0000 138.5000 127.5000 Du        
  32023 ****       121.0000 138.5000 127.7500 Du        
  32024 ****       121.0000 138.5000 128.0000 Du        
  32025 ****       121.0000 138.7500 125.5000 Du        
  32026 ****       121.0000 138.7500 125.7500 Du        
  32027 ****       121.0000 138.7500 126.0000 Du        
  32028 ****       121.0000 138.7500 126.2500 Du        
  32029 ****       121.0000 138.7500 126.5000 Du        
  32030 ****       121.0000 138.7500 126.7500 Du        
  32031 ****       121.0000 138.7500 127.0000 Du        
  32032 ****       121.0000 138.7500 127.2500 Du        
  32033 ****       121.0000 139.0000 125.5000 Du        
  32034 ****       121.0000 139.0000 125.7500 Du        
  32035 ****       121.0000 139.0000 126.0000 Du        
  32036 ****       121.0000 139.0000 126.2500 Du        
  32037 ****       121.0000 139.0000 126.5000 Du        
  32038 ****       121.0000 139.0000 126.7500 Du        
  32039 ****       121.0000 139.2500 125.5000 Du        
  32040 ****       121.0000 139.2500 125.7500 Du        
  32041 ****       121.0000 139.2500 126.0000 Du        
  32042 ****       121.0000 139.5000 125.0000 Du        
  32043 ****       121.0000 139.5000 125.7500 Du        
  32044 ****       121.0000 139.7500 125.0000 Du        
  32045 ****       121.0000 139.7500 125.2500 Du        
  32046 ****       121.0000 140.0000 125.0000 Du        
  32047 ****       121.0000 140.0000 125.2500 Du        
  32048 ****       121.0000 140.2500 124.2500 Du        
  32049 ****       121.0000 140.2500 125.0000 Du        
  32050 ****       121.0000 140.5000 118.0000 Du        
  32051 ****       121.0000 140.5000 118.2500 Du        
  32052 ****       121.0000 140.5000 124.5000 Du        
  32053 ****       121.0000 140.7500 118.0000 Du        
  32054 ****       121.0000 140.7500 118.2500 Du        
  32055 ****       121.0000 140.7500 124.7500 Du        
  32056 ****       121.0000 141.0000 117.7500 Du        
  32057 ****       121.0000 141.0000 118.0000 Du        
  32058 ****       121.0000 141.0000 118.2500 Du        
  32059 ****       121.0000 141.0000 118.5000 Du        
  32060 ****       121.0000 141.0000 123.7500 Du        
  32061 ****       121.0000 141.0000 124.0000 Du        
  32062 ****       121.0000 141.0000 124.2500 Du        
  32063 ****       121.0000 141.0000 124.5000 Du        
  32064 ****       121.0000 141.0000 124.7500 Du        
  32065 ****       121.0000 141.0000 125.0000 Du        
  32066 ****       121.0000 141.2500 117.7500 Du        
  32067 ****       121.0000 141.2500 118.0000 Du        
  32068 ****       121.0000 141.2500 118.2500 Du        
  32069 ****       121.0000 141.2500 118.5000 Du        
  32070 ****       121.0000 141.2500 118.7500 Du        
  32071 ****       121.0000 141.2500 123.5000 Du        
  32072 ****       121.0000 141.2500 123.7500 Du        
  32073 ****       121.0000 141.2500 124.0000 Du        
  32074 ****       121.0000 141.2500 124.2500 Du        
  32075 ****       121.0000 141.2500 124.5000 Du        
  32076 ****       121.0000 141.2500 124.7500 Du        
  32077 ****       121.0000 141.5000 117.7500 Du        
  32078 ****       121.0000 141.5000 118.0000 Du        
  32079 ****       121.0000 141.5000 118.2500 Du        
  32080 ****       121.0000 141.5000 118.5000 Du        
  32081 ****       121.0000 141.5000 118.7500 Du        
  32082 ****       121.0000 141.5000 122.7500 Du        
  32083 ****       121.0000 141.5000 123.0000 Du        
  32084 ****       121.0000 141.5000 123.2500 Du        
  32085 ****       121.0000 141.5000 123.5000 Du        
  32086 ****       121.0000 141.5000 123.7500 Du        
  32087 ****       121.0000 141.5000 124.0000 Du        
  32088 ****       121.0000 141.5000 124.2500 Du        
  32089 ****       121.0000 141.5000 124.5000 Du        
  32090 ****       121.0000 141.5000 124.7500 Du        
  32091 ****       121.0000 141.5000 125.0000 Du        
  32092 ****       121.0000 141.5000 125.2500 Du        
  32093 ****       121.0000 141.7500 117.5000 Du        
  32094 ****       121.0000 141.7500 117.7500 Du        
  32095 ****       121.0000 141.7500 118.0000 Du        
  32096 ****       121.0000 141.7500 118.2500 Du        
  32097 ****       121.0000 141.7500 118.5000 Du        
  32098 ****       121.0000 141.7500 118.7500 Du        
  32099 ****       121.0000 141.7500 122.7500 Du        
  32100 ****       121.0000 141.7500 123.0000 Du        
  32101 ****       121.0000 141.7500 123.2500 Du        
  32102 ****       121.0000 141.7500 123.5000 Du        
  32103 ****       121.0000 141.7500 123.7500 Du        
  32104 ****       121.0000 141.7500 124.0000 Du        
  32105 ****       121.0000 141.7500 124.2500 Du        
  32106 ****       121.0000 141.7500 124.5000 Du        
  32107 ****       121.0000 141.7500 124.7500 Du        
  32108 ****       121.0000 141.7500 125.0000 Du        
  32109 ****       121.0000 141.7500 125.2500 Du        
  32110 ****       121.0000 142.0000 117.5000 Du        
  32111 ****       121.0000 142.0000 117.7500 Du        
  32112 ****       121.0000 142.0000 118.0000 Du        
  32113 ****       121.0000 142.0000 118.2500 Du        
  32114 ****       121.0000 142.0000 118.5000 Du        
  32115 ****       121.0000 142.0000 118.7500 Du        
  32116 ****       121.0000 142.0000 122.7500 Du        
  32117 ****       121.0000 142.0000 123.0000 Du        
  32118 ****       121.0000 142.0000 123.2500 Du        
  32119 ****       121.0000 142.0000 123.5000 Du        
  32120 ****       121.0000 142.0000 123.7500 Du        
  32121 ****       121.0000 142.0000 124.0000 Du        
  32122 ****       121.0000 142.0000 124.2500 Du        
  32123 ****       121.0000 142.0000 124.5000 Du        
  32124 ****       121.0000 142.0000 124.7500 Du        
  32125 ****       121.0000 142.0000 125.0000 Du        
  32126 ****       121.0000 142.0000 125.2500 Du        
  32127 ****       121.0000 142.0000 125.5000 Du        
  32128 ****       121.0000 142.2500 117.5000 Du        
  32129 ****       121.0000 142.2500 117.7500 Du        
  32130 ****       121.0000 142.2500 118.0000 Du        
  32131 ****       121.0000 142.2500 118.2500 Du        
  32132 ****       121.0000 142.2500 118.5000 Du        
  32133 ****       121.0000 142.2500 118.7500 Du        
  32134 ****       121.0000 142.2500 123.5000 Du        
  32135 ****       121.0000 142.2500 123.7500 Du        
  32136 ****       121.0000 142.2500 124.0000 Du        
  32137 ****       121.0000 142.2500 124.2500 Du        
  32138 ****       121.0000 142.2500 124.5000 Du        
  32139 ****       121.0000 142.2500 124.7500 Du        
  32140 ****       121.0000 142.2500 125.0000 Du        
  32141 ****       121.0000 142.2500 125.2500 Du        
  32142 ****       121.0000 142.2500 125.5000 Du        
  32143 ****       121.0000 142.2500 125.7500 Du        
  32144 ****       121.0000 142.5000 117.5000 Du        
  32145 ****       121.0000 142.5000 117.7500 Du        
  32146 ****       121.0000 142.5000 118.0000 Du        
  32147 ****       121.0000 142.5000 118.2500 Du        
  32148 ****       121.0000 142.5000 118.5000 Du        
  32149 ****       121.0000 142.5000 118.7500 Du        
  32150 ****       121.0000 142.5000 119.0000 Du        
  32151 ****       121.0000 142.5000 124.2500 Du        
  32152 ****       121.0000 142.5000 124.5000 Du        
  32153 ****       121.0000 142.5000 124.7500 Du        
  32154 ****       121.0000 142.5000 125.0000 Du        
  32155 ****       121.0000 142.5000 125.2500 Du        
  32156 ****       121.0000 142.5000 125.5000 Du        
  32157 ****       121.0000 142.5000 125.7500 Du        
  32158 ****       121.0000 142.5000 126.0000 Du        
  32159 ****       121.0000 142.7500 117.5000 Du        
  32160 ****       121.0000 142.7500 117.7500 Du        
  32161 ****       121.0000 142.7500 118.0000 Du        
  32162 ****       121.0000 142.7500 118.2500 Du        
  32163 ****       121.0000 142.7500 118.5000 Du        
  32164 ****       121.0000 142.7500 118.7500 Du        
  32165 ****       121.0000 142.7500 119.0000 Du        
  32166 ****       121.0000 142.7500 124.7500 Du        
  32167 ****       121.0000 142.7500 125.0000 Du        
  32168 ****       121.0000 142.7500 125.2500 Du        
  32169 ****       121.0000 142.7500 125.5000 Du        
  32170 ****       121.0000 142.7500 125.7500 Du        
  32171 ****       121.0000 142.7500 126.0000 Du        
  32172 ****       121.0000 142.7500 126.2500 Du        
  32173 ****       121.0000 142.7500 126.5000 Du        
  32174 ****       121.0000 143.0000 117.5000 Du        
  32175 ****       121.0000 143.0000 117.7500 Du        
  32176 ****       121.0000 143.0000 118.0000 Du        
  32177 ****       121.0000 143.0000 118.2500 Du        
  32178 ****       121.0000 143.0000 118.5000 Du        
  32179 ****       121.0000 143.0000 118.7500 Du        
  32180 ****       121.0000 143.0000 119.0000 Du        
  32181 ****       121.0000 143.0000 125.2500 Du        
  32182 ****       121.0000 143.0000 125.5000 Du        
  32183 ****       121.0000 143.0000 125.7500 Du        
  32184 ****       121.0000 143.0000 126.0000 Du        
  32185 ****       121.0000 143.0000 126.2500 Du        
  32186 ****       121.0000 143.0000 126.5000 Du        
  32187 ****       121.0000 143.0000 126.7500 Du        
  32188 ****       121.0000 143.0000 127.0000 Du        
  32189 ****       121.0000 143.0000 127.2500 Du        
  32190 ****       121.0000 143.0000 127.5000 Du        
  32191 ****       121.0000 143.2500 117.7500 Du        
  32192 ****       121.0000 143.2500 118.0000 Du        
  32193 ****       121.0000 143.2500 118.2500 Du        
  32194 ****       121.0000 143.2500 118.5000 Du        
  32195 ****       121.0000 143.2500 118.7500 Du        
  32196 ****       121.0000 143.2500 119.0000 Du        
  32197 ****       121.0000 143.2500 125.2500 Du        
  32198 ****       121.0000 143.2500 125.7500 Du        
  32199 ****       121.0000 143.2500 126.0000 Du        
  32200 ****       121.0000 143.2500 126.2500 Du        
  32201 ****       121.0000 143.2500 126.5000 Du        
  32202 ****       121.0000 143.2500 126.7500 Du        
  32203 ****       121.0000 143.2500 127.0000 Du        
  32204 ****       121.0000 143.2500 127.2500 Du        
  32205 ****       121.0000 143.2500 127.5000 Du        
  32206 ****       121.0000 143.2500 127.7500 Du        
  32207 ****       121.0000 143.2500 128.0000 Du        
  32208 ****       121.0000 143.5000 117.7500 Du        
  32209 ****       121.0000 143.5000 118.0000 Du        
  32210 ****       121.0000 143.5000 118.2500 Du        
  32211 ****       121.0000 143.5000 118.5000 Du        
  32212 ****       121.0000 143.5000 118.7500 Du        
  32213 ****       121.0000 143.5000 119.0000 Du        
  32214 ****       121.0000 143.5000 125.7500 Du        
  32215 ****       121.0000 143.5000 126.0000 Du        
  32216 ****       121.0000 143.5000 126.2500 Du        
  32217 ****       121.0000 143.5000 126.5000 Du        
  32218 ****       121.0000 143.5000 126.7500 Du        
  32219 ****       121.0000 143.5000 127.0000 Du        
  32220 ****       121.0000 143.5000 127.2500 Du        
  32221 ****       121.0000 143.5000 127.5000 Du        
  32222 ****       121.0000 143.5000 127.7500 Du        
  32223 ****       121.0000 143.5000 128.0000 Du        
  32224 ****       121.0000 143.7500 117.7500 Du        
  32225 ****       121.0000 143.7500 118.0000 Du        
  32226 ****       121.0000 143.7500 118.2500 Du        
  32227 ****       121.0000 143.7500 118.5000 Du        
  32228 ****       121.0000 143.7500 118.7500 Du        
  32229 ****       121.0000 143.7500 119.0000 Du        
  32230 ****       121.0000 143.7500 125.7500 Du        
  32231 ****       121.0000 143.7500 126.0000 Du        
  32232 ****       121.0000 143.7500 126.2500 Du        
  32233 ****       121.0000 143.7500 126.5000 Du        
  32234 ****       121.0000 143.7500 126.7500 Du        
  32235 ****       121.0000 143.7500 127.0000 Du        
  32236 ****       121.0000 143.7500 127.2500 Du        
  32237 ****       121.0000 143.7500 127.5000 Du        
  32238 ****       121.0000 143.7500 127.7500 Du        
  32239 ****       121.0000 143.7500 128.0000 Du        
  32240 ****       121.0000 144.0000 118.0000 Du        
  32241 ****       121.0000 144.0000 118.2500 Du        
  32242 ****       121.0000 144.0000 118.5000 Du        
  32243 ****       121.0000 144.0000 118.7500 Du        
  32244 ****       121.0000 144.0000 126.0000 Du        
  32245 ****       121.0000 144.0000 126.2500 Du        
  32246 ****       121.0000 144.0000 126.5000 Du        
  32247 ****       121.0000 144.0000 126.7500 Du        
  32248 ****       121.0000 144.0000 127.0000 Du        
  32249 ****       121.0000 144.0000 127.2500 Du        
  32250 ****       121.0000 144.0000 127.5000 Du        
  32251 ****       121.0000 144.0000 127.7500 Du        
  32252 ****       121.0000 144.0000 128.0000 Du        
  32253 ****       121.0000 144.2500 118.2500 Du        
  32254 ****       121.0000 144.2500 118.5000 Du        
  32255 ****       121.0000 144.2500 118.7500 Du        
  32256 ****       121.0000 144.2500 126.2500 Du        
  32257 ****       121.0000 144.2500 126.5000 Du        
  32258 ****       121.0000 144.2500 126.7500 Du        
  32259 ****       121.0000 144.2500 127.0000 Du        
  32260 ****       121.0000 144.2500 127.2500 Du        
  32261 ****       121.0000 144.2500 127.5000 Du        
  32262 ****       121.0000 144.2500 127.7500 Du        
  32263 ****       121.0000 144.2500 128.0000 Du        
  32264 ****       121.0000 144.5000 126.5000 Du        
  32265 ****       121.0000 144.5000 126.7500 Du        
  32266 ****       121.0000 144.5000 127.0000 Du        
  32267 ****       121.0000 144.5000 127.2500 Du        
  32268 ****       121.0000 144.5000 127.5000 Du        
  32269 ****       121.0000 144.5000 127.7500 Du        
  32270 ****       121.0000 144.7500 126.5000 Du        
  32271 ****       121.0000 144.7500 126.7500 Du        
  32272 ****       121.0000 144.7500 127.0000 Du        
  32273 ****       121.0000 144.7500 127.2500 Du        
  32274 ****       121.0000 144.7500 127.5000 Du        
  32275 ****       121.0000 144.7500 127.7500 Du        
  32276 ****       121.0000 144.7500 128.0000 Du        
  32277 ****       121.0000 145.0000 126.7500 Du        
  32278 ****       121.0000 145.0000 127.0000 Du        
  32279 ****       121.0000 145.0000 127.2500 Du        
  32280 ****       121.0000 145.0000 127.5000 Du        
  32281 ****       121.0000 145.0000 127.7500 Du        
  32282 ****       121.0000 145.2500 126.7500 Du        
  32283 ****       121.0000 145.2500 127.0000 Du        
  32284 ****       121.0000 145.2500 127.2500 Du        
  32285 ****       121.0000 145.2500 127.5000 Du        
  32286 ****       121.0000 145.2500 127.7500 Du        
  32287 ****       121.0000 145.5000 127.5000 Du        
  32288 ****       121.0000 145.5000 127.7500 Du        
  32289 ****       121.0000 145.7500 127.0000 Du        
  32290 ****       121.0000 145.7500 127.5000 Du        
  32291 ****       121.0000 149.5000 118.0000 Du        
  32292 ****       121.0000 149.5000 118.2500 Du        
  32293 ****       121.0000 149.5000 118.5000 Du        
  32294 ****       121.0000 149.5000 118.7500 Du        
  32295 ****       121.0000 149.5000 119.0000 Du        
  32296 ****       121.0000 149.5000 119.2500 Du        
  32297 ****       121.0000 149.7500 117.7500 Du        
  32298 ****       121.0000 149.7500 118.0000 Du        
  32299 ****       121.0000 149.7500 118.2500 Du        
  32300 ****       121.0000 149.7500 118.5000 Du        
  32301 ****       121.0000 149.7500 118.7500 Du        
  32302 ****       121.0000 149.7500 119.0000 Du        
  32303 ****       121.0000 149.7500 119.2500 Du        
  32304 ****       121.0000 150.0000 117.7500 Du        
  32305 ****       121.0000 150.0000 118.0000 Du        
  32306 ****       121.0000 150.0000 118.2500 Du        
  32307 ****       121.0000 150.0000 118.5000 Du        
  32308 ****       121.0000 150.0000 118.7500 Du        
  32309 ****       121.0000 150.0000 119.0000 Du        
  32310 ****       121.0000 150.0000 119.2500 Du        
  32311 ****       121.0000 150.2500 117.7500 Du        
  32312 ****       121.0000 150.2500 118.0000 Du        
  32313 ****       121.0000 150.2500 118.2500 Du        
  32314 ****       121.0000 150.2500 118.5000 Du        
  32315 ****       121.0000 150.2500 118.7500 Du        
  32316 ****       121.0000 150.5000 117.7500 Du        
  32317 ****       121.0000 150.5000 118.0000 Du        
  32318 ****       121.0000 150.5000 118.2500 Du        
  32319 ****       121.0000 150.5000 118.5000 Du        
  32320 ****       121.0000 150.7500 117.7500 Du        
  32321 ****       121.0000 150.7500 118.0000 Du        
  32322 ****       121.0000 150.7500 118.2500 Du        
  32323 ****       121.0000 153.5000 125.7500 Du        
  32324 ****       121.0000 153.7500 124.7500 Du        
  32325 ****       121.0000 153.7500 125.0000 Du        
  32326 ****       121.0000 153.7500 125.2500 Du        
  32327 ****       121.0000 153.7500 125.5000 Du        
  32328 ****       121.0000 153.7500 125.7500 Du        
  32329 ****       121.0000 153.7500 126.0000 Du        
  32330 ****       121.0000 153.7500 126.2500 Du        
  32331 ****       121.0000 153.7500 126.7500 Du        
  32332 ****       121.0000 154.0000 123.7500 Du        
  32333 ****       121.0000 154.0000 124.0000 Du        
  32334 ****       121.0000 154.0000 124.2500 Du        
  32335 ****       121.0000 154.0000 124.5000 Du        
  32336 ****       121.0000 154.0000 124.7500 Du        
  32337 ****       121.0000 154.0000 125.0000 Du        
  32338 ****       121.0000 154.0000 125.2500 Du        
  32339 ****       121.0000 154.0000 125.5000 Du        
  32340 ****       121.0000 154.0000 125.7500 Du        
  32341 ****       121.0000 154.0000 126.0000 Du        
  32342 ****       121.0000 154.0000 126.2500 Du        
  32343 ****       121.0000 154.0000 126.5000 Du        
  32344 ****       121.0000 154.0000 126.7500 Du        
  32345 ****       121.0000 154.0000 127.0000 Du        
  32346 ****       121.0000 154.2500 123.7500 Du        
  32347 ****       121.0000 154.2500 124.0000 Du        
  32348 ****       121.0000 154.2500 124.2500 Du        
  32349 ****       121.0000 154.2500 124.5000 Du        
  32350 ****       121.0000 154.2500 124.7500 Du        
  32351 ****       121.0000 154.2500 125.0000 Du        
  32352 ****       121.0000 154.2500 125.2500 Du        
  32353 ****       121.0000 154.2500 125.5000 Du        
  32354 ****       121.0000 154.2500 125.7500 Du        
  32355 ****       121.0000 154.2500 126.0000 Du        
  32356 ****       121.0000 154.2500 126.2500 Du        
  32357 ****       121.0000 154.2500 126.5000 Du        
  32358 ****       121.0000 154.2500 126.7500 Du        
  32359 ****       121.0000 154.2500 127.0000 Du        
  32360 ****       121.0000 154.5000 123.7500 Du        
  32361 ****       121.0000 154.5000 124.0000 Du        
  32362 ****       121.0000 154.5000 124.2500 Du        
  32363 ****       121.0000 154.5000 124.5000 Du        
  32364 ****       121.0000 154.5000 124.7500 Du        
  32365 ****       121.0000 154.5000 125.0000 Du        
  32366 ****       121.0000 154.5000 125.2500 Du        
  32367 ****       121.0000 154.5000 125.5000 Du        
  32368 ****       121.0000 154.5000 125.7500 Du        
  32369 ****       121.0000 154.5000 126.0000 Du        
  32370 ****       121.0000 154.5000 126.2500 Du        
  32371 ****       121.0000 154.5000 126.5000 Du        
  32372 ****       121.0000 154.5000 126.7500 Du        
  32373 ****       121.0000 154.5000 127.0000 Du        
  32374 ****       121.0000 154.5000 127.2500 Du        
  32375 ****       121.0000 154.5000 135.0000 Du        
  32376 ****       121.0000 154.5000 135.2500 Du        
  32377 ****       121.0000 154.5000 136.2500 Du        
  32378 ****       121.0000 154.5000 136.5000 Du        
  32379 ****       121.0000 154.5000 136.7500 Du        
  32380 ****       121.0000 154.5000 137.0000 Du        
  32381 ****       121.0000 154.5000 137.2500 Du        
  32382 ****       121.0000 154.5000 137.5000 Du        
  32383 ****       121.0000 154.7500 123.5000 Du        
  32384 ****       121.0000 154.7500 123.7500 Du        
  32385 ****       121.0000 154.7500 124.0000 Du        
  32386 ****       121.0000 154.7500 124.2500 Du        
  32387 ****       121.0000 154.7500 124.5000 Du        
  32388 ****       121.0000 154.7500 124.7500 Du        
  32389 ****       121.0000 154.7500 125.0000 Du        
  32390 ****       121.0000 154.7500 125.2500 Du        
  32391 ****       121.0000 154.7500 125.5000 Du        
  32392 ****       121.0000 154.7500 125.7500 Du        
  32393 ****       121.0000 154.7500 126.0000 Du        
  32394 ****       121.0000 154.7500 126.2500 Du        
  32395 ****       121.0000 154.7500 126.5000 Du        
  32396 ****       121.0000 154.7500 126.7500 Du        
  32397 ****       121.0000 154.7500 127.0000 Du        
  32398 ****       121.0000 154.7500 127.2500 Du        
  32399 ****       121.0000 154.7500 134.7500 Du        
  32400 ****       121.0000 154.7500 135.0000 Du        
  32401 ****       121.0000 154.7500 135.2500 Du        
  32402 ****       121.0000 154.7500 135.5000 Du        
  32403 ****       121.0000 154.7500 135.7500 Du        
  32404 ****       121.0000 154.7500 136.0000 Du        
  32405 ****       121.0000 154.7500 136.2500 Du        
  32406 ****       121.0000 154.7500 136.5000 Du        
  32407 ****       121.0000 154.7500 136.7500 Du        
  32408 ****       121.0000 154.7500 137.0000 Du        
  32409 ****       121.0000 154.7500 137.2500 Du        
  32410 ****       121.0000 154.7500 137.5000 Du        
  32411 ****       121.0000 154.7500 137.7500 Du        
  32412 ****       121.0000 155.0000 123.5000 Du        
  32413 ****       121.0000 155.0000 123.7500 Du        
  32414 ****       121.0000 155.0000 124.0000 Du        
  32415 ****       121.0000 155.0000 124.2500 Du        
  32416 ****       121.0000 155.0000 124.5000 Du        
  32417 ****       121.0000 155.0000 124.7500 Du        
  32418 ****       121.0000 155.0000 125.0000 Du        
  32419 ****       121.0000 155.0000 125.2500 Du        
  32420 ****       121.0000 155.0000 125.5000 Du        
  32421 ****       121.0000 155.0000 125.7500 Du        
  32422 ****       121.0000 155.0000 126.0000 Du        
  32423 ****       121.0000 155.0000 126.2500 Du        
  32424 ****       121.0000 155.0000 126.5000 Du        
  32425 ****       121.0000 155.0000 126.7500 Du        
  32426 ****       121.0000 155.0000 127.0000 Du        
  32427 ****       121.0000 155.0000 127.2500 Du        
  32428 ****       121.0000 155.0000 134.7500 Du        
  32429 ****       121.0000 155.0000 135.0000 Du        
  32430 ****       121.0000 155.0000 135.2500 Du        
  32431 ****       121.0000 155.0000 135.5000 Du        
  32432 ****       121.0000 155.0000 135.7500 Du        
  32433 ****       121.0000 155.0000 136.0000 Du        
  32434 ****       121.0000 155.0000 136.2500 Du        
  32435 ****       121.0000 155.0000 136.5000 Du        
  32436 ****       121.0000 155.0000 136.7500 Du        
  32437 ****       121.0000 155.0000 137.0000 Du        
  32438 ****       121.0000 155.0000 137.2500 Du        
  32439 ****       121.0000 155.0000 137.5000 Du        
  32440 ****       121.0000 155.0000 137.7500 Du        
  32441 ****       121.0000 155.2500 123.5000 Du        
  32442 ****       121.0000 155.2500 123.7500 Du        
  32443 ****       121.0000 155.2500 124.0000 Du        
  32444 ****       121.0000 155.2500 124.2500 Du        
  32445 ****       121.0000 155.2500 124.5000 Du        
  32446 ****       121.0000 155.2500 124.7500 Du        
  32447 ****       121.0000 155.2500 125.0000 Du        
  32448 ****       121.0000 155.2500 125.2500 Du        
  32449 ****       121.0000 155.2500 125.5000 Du        
  32450 ****       121.0000 155.2500 125.7500 Du        
  32451 ****       121.0000 155.2500 126.0000 Du        
  32452 ****       121.0000 155.2500 126.2500 Du        
  32453 ****       121.0000 155.2500 126.5000 Du        
  32454 ****       121.0000 155.2500 126.7500 Du        
  32455 ****       121.0000 155.2500 127.0000 Du        
  32456 ****       121.0000 155.2500 134.7500 Du        
  32457 ****       121.0000 155.2500 135.0000 Du        
  32458 ****       121.0000 155.2500 135.2500 Du        
  32459 ****       121.0000 155.2500 135.5000 Du        
  32460 ****       121.0000 155.2500 135.7500 Du        
  32461 ****       121.0000 155.2500 136.0000 Du        
  32462 ****       121.0000 155.2500 136.2500 Du        
  32463 ****       121.0000 155.2500 136.5000 Du        
  32464 ****       121.0000 155.2500 136.7500 Du        
  32465 ****       121.0000 155.2500 137.0000 Du        
  32466 ****       121.0000 155.2500 137.2500 Du        
  32467 ****       121.0000 155.2500 137.5000 Du        
  32468 ****       121.0000 155.2500 137.7500 Du        
  32469 ****       121.0000 155.5000 115.2500 Du        
  32470 ****       121.0000 155.5000 115.5000 Du        
  32471 ****       121.0000 155.5000 115.7500 Du        
  32472 ****       121.0000 155.5000 116.0000 Du        
  32473 ****       121.0000 155.5000 123.5000 Du        
  32474 ****       121.0000 155.5000 123.7500 Du        
  32475 ****       121.0000 155.5000 124.0000 Du        
  32476 ****       121.0000 155.5000 124.2500 Du        
  32477 ****       121.0000 155.5000 124.5000 Du        
  32478 ****       121.0000 155.5000 124.7500 Du        
  32479 ****       121.0000 155.5000 125.0000 Du        
  32480 ****       121.0000 155.5000 125.2500 Du        
  32481 ****       121.0000 155.5000 125.5000 Du        
  32482 ****       121.0000 155.5000 125.7500 Du        
  32483 ****       121.0000 155.5000 126.0000 Du        
  32484 ****       121.0000 155.5000 126.2500 Du        
  32485 ****       121.0000 155.5000 126.5000 Du        
  32486 ****       121.0000 155.5000 126.7500 Du        
  32487 ****       121.0000 155.5000 127.0000 Du        
  32488 ****       121.0000 155.5000 134.7500 Du        
  32489 ****       121.0000 155.5000 135.0000 Du        
  32490 ****       121.0000 155.5000 135.2500 Du        
  32491 ****       121.0000 155.5000 135.5000 Du        
  32492 ****       121.0000 155.5000 135.7500 Du        
  32493 ****       121.0000 155.5000 136.0000 Du        
  32494 ****       121.0000 155.5000 136.2500 Du        
  32495 ****       121.0000 155.5000 136.5000 Du        
  32496 ****       121.0000 155.5000 136.7500 Du        
  32497 ****       121.0000 155.5000 137.0000 Du        
  32498 ****       121.0000 155.5000 137.2500 Du        
  32499 ****       121.0000 155.5000 137.5000 Du        
  32500 ****       121.0000 155.7500 114.0000 Du        
  32501 ****       121.0000 155.7500 114.5000 Du        
  32502 ****       121.0000 155.7500 114.7500 Du        
  32503 ****       121.0000 155.7500 115.0000 Du        
  32504 ****       121.0000 155.7500 115.2500 Du        
  32505 ****       121.0000 155.7500 115.5000 Du        
  32506 ****       121.0000 155.7500 115.7500 Du        
  32507 ****       121.0000 155.7500 116.0000 Du        
  32508 ****       121.0000 155.7500 123.7500 Du        
  32509 ****       121.0000 155.7500 124.0000 Du        
  32510 ****       121.0000 155.7500 124.2500 Du        
  32511 ****       121.0000 155.7500 124.5000 Du        
  32512 ****       121.0000 155.7500 124.7500 Du        
  32513 ****       121.0000 155.7500 125.0000 Du        
  32514 ****       121.0000 155.7500 125.2500 Du        
  32515 ****       121.0000 155.7500 125.5000 Du        
  32516 ****       121.0000 155.7500 125.7500 Du        
  32517 ****       121.0000 155.7500 126.0000 Du        
  32518 ****       121.0000 155.7500 126.2500 Du        
  32519 ****       121.0000 155.7500 126.5000 Du        
  32520 ****       121.0000 155.7500 126.7500 Du        
  32521 ****       121.0000 155.7500 127.0000 Du        
  32522 ****       121.0000 155.7500 134.7500 Du        
  32523 ****       121.0000 155.7500 135.0000 Du        
  32524 ****       121.0000 155.7500 135.2500 Du        
  32525 ****       121.0000 155.7500 135.5000 Du        
  32526 ****       121.0000 155.7500 135.7500 Du        
  32527 ****       121.0000 155.7500 136.0000 Du        
  32528 ****       121.0000 155.7500 136.2500 Du        
  32529 ****       121.0000 155.7500 136.5000 Du        
  32530 ****       121.0000 155.7500 136.7500 Du        
  32531 ****       121.0000 155.7500 137.0000 Du        
  32532 ****       121.0000 155.7500 137.2500 Du        
  32533 ****       121.0000 155.7500 137.5000 Du        
  32534 ****       121.0000 156.0000 113.7500 Du        
  32535 ****       121.0000 156.0000 114.0000 Du        
  32536 ****       121.0000 156.0000 114.2500 Du        
  32537 ****       121.0000 156.0000 114.5000 Du        
  32538 ****       121.0000 156.0000 114.7500 Du        
  32539 ****       121.0000 156.0000 115.0000 Du        
  32540 ****       121.0000 156.0000 115.2500 Du        
  32541 ****       121.0000 156.0000 115.5000 Du        
  32542 ****       121.0000 156.0000 115.7500 Du        
  32543 ****       121.0000 156.0000 116.0000 Du        
  32544 ****       121.0000 156.0000 116.2500 Du        
  32545 ****       121.0000 156.0000 123.7500 Du        
  32546 ****       121.0000 156.0000 124.0000 Du        
  32547 ****       121.0000 156.0000 124.2500 Du        
  32548 ****       121.0000 156.0000 124.5000 Du        
  32549 ****       121.0000 156.0000 124.7500 Du        
  32550 ****       121.0000 156.0000 125.0000 Du        
  32551 ****       121.0000 156.0000 125.2500 Du        
  32552 ****       121.0000 156.0000 125.5000 Du        
  32553 ****       121.0000 156.0000 125.7500 Du        
  32554 ****       121.0000 156.0000 126.0000 Du        
  32555 ****       121.0000 156.0000 126.2500 Du        
  32556 ****       121.0000 156.0000 126.5000 Du        
  32557 ****       121.0000 156.0000 126.7500 Du        
  32558 ****       121.0000 156.0000 127.0000 Du        
  32559 ****       121.0000 156.0000 134.7500 Du        
  32560 ****       121.0000 156.0000 135.0000 Du        
  32561 ****       121.0000 156.0000 135.2500 Du        
  32562 ****       121.0000 156.0000 135.5000 Du        
  32563 ****       121.0000 156.0000 135.7500 Du        
  32564 ****       121.0000 156.0000 136.0000 Du        
  32565 ****       121.0000 156.0000 136.2500 Du        
  32566 ****       121.0000 156.0000 136.5000 Du        
  32567 ****       121.0000 156.0000 136.7500 Du        
  32568 ****       121.0000 156.0000 137.0000 Du        
  32569 ****       121.0000 156.0000 137.2500 Du        
  32570 ****       121.0000 156.2500 113.7500 Du        
  32571 ****       121.0000 156.2500 114.0000 Du        
  32572 ****       121.0000 156.2500 114.2500 Du        
  32573 ****       121.0000 156.2500 114.5000 Du        
  32574 ****       121.0000 156.2500 114.7500 Du        
  32575 ****       121.0000 156.2500 115.0000 Du        
  32576 ****       121.0000 156.2500 115.2500 Du        
  32577 ****       121.0000 156.2500 115.5000 Du        
  32578 ****       121.0000 156.2500 115.7500 Du        
  32579 ****       121.0000 156.2500 116.0000 Du        
  32580 ****       121.0000 156.2500 116.2500 Du        
  32581 ****       121.0000 156.2500 124.0000 Du        
  32582 ****       121.0000 156.2500 124.2500 Du        
  32583 ****       121.0000 156.2500 124.5000 Du        
  32584 ****       121.0000 156.2500 124.7500 Du        
  32585 ****       121.0000 156.2500 125.0000 Du        
  32586 ****       121.0000 156.2500 125.2500 Du        
  32587 ****       121.0000 156.2500 125.5000 Du        
  32588 ****       121.0000 156.2500 125.7500 Du        
  32589 ****       121.0000 156.2500 126.0000 Du        
  32590 ****       121.0000 156.2500 126.2500 Du        
  32591 ****       121.0000 156.2500 126.5000 Du        
  32592 ****       121.0000 156.2500 126.7500 Du        
  32593 ****       121.0000 156.2500 127.0000 Du        
  32594 ****       121.0000 156.2500 135.0000 Du        
  32595 ****       121.0000 156.2500 135.2500 Du        
  32596 ****       121.0000 156.2500 135.5000 Du        
  32597 ****       121.0000 156.2500 135.7500 Du        
  32598 ****       121.0000 156.5000 115.2500 Du        
  32599 ****       121.0000 156.5000 115.5000 Du        
  32600 ****       121.0000 156.5000 115.7500 Du        
  32601 ****       121.0000 156.5000 116.0000 Du        
  32602 ****       121.0000 156.5000 116.2500 Du        
  32603 ****       121.0000 156.5000 124.2500 Du        
  32604 ****       121.0000 156.5000 124.5000 Du        
  32605 ****       121.0000 156.5000 124.7500 Du        
  32606 ****       121.0000 156.5000 125.0000 Du        
  32607 ****       121.0000 156.5000 125.2500 Du        
  32608 ****       121.0000 156.5000 125.5000 Du        
  32609 ****       121.0000 156.5000 125.7500 Du        
  32610 ****       121.0000 156.5000 126.0000 Du        
  32611 ****       121.0000 156.5000 126.2500 Du        
  32612 ****       121.0000 156.5000 126.5000 Du        
  32613 ****       121.0000 156.5000 126.7500 Du        
  32614 ****       121.0000 156.5000 127.0000 Du        
  32615 ****       121.0000 156.5000 135.0000 Du        
  32616 ****       121.0000 156.5000 135.2500 Du        
  32617 ****       121.0000 156.7500 115.5000 Du        
  32618 ****       121.0000 156.7500 115.7500 Du        
  32619 ****       121.0000 156.7500 116.0000 Du        
  32620 ****       121.0000 156.7500 116.2500 Du        
  32621 ****       121.0000 156.7500 124.2500 Du        
  32622 ****       121.0000 156.7500 124.5000 Du        
  32623 ****       121.0000 156.7500 124.7500 Du        
  32624 ****       121.0000 156.7500 125.0000 Du        
  32625 ****       121.0000 156.7500 125.2500 Du        
  32626 ****       121.0000 156.7500 125.5000 Du        
  32627 ****       121.0000 156.7500 125.7500 Du        
  32628 ****       121.0000 156.7500 126.0000 Du        
  32629 ****       121.0000 156.7500 126.2500 Du        
  32630 ****       121.0000 156.7500 126.5000 Du        
  32631 ****       121.0000 156.7500 126.7500 Du        
  32632 ****       121.0000 156.7500 127.0000 Du        
  32633 ****       121.0000 157.0000 115.0000 Du        
  32634 ****       121.0000 157.0000 115.5000 Du        
  32635 ****       121.0000 157.0000 115.7500 Du        
  32636 ****       121.0000 157.0000 116.0000 Du        
  32637 ****       121.0000 157.0000 116.2500 Du        
  32638 ****       121.0000 157.0000 124.5000 Du        
  32639 ****       121.0000 157.0000 124.7500 Du        
  32640 ****       121.0000 157.0000 125.0000 Du        
  32641 ****       121.0000 157.0000 125.2500 Du        
  32642 ****       121.0000 157.0000 125.5000 Du        
  32643 ****       121.0000 157.0000 125.7500 Du        
  32644 ****       121.0000 157.0000 126.0000 Du        
  32645 ****       121.0000 157.0000 126.2500 Du        
  32646 ****       121.0000 157.0000 126.5000 Du        
  32647 ****       121.0000 157.0000 126.7500 Du        
  32648 ****       121.0000 157.0000 127.0000 Du        
  32649 ****       121.0000 157.2500 115.5000 Du        
  32650 ****       121.0000 157.2500 115.7500 Du        
  32651 ****       121.0000 157.2500 124.7500 Du        
  32652 ****       121.0000 157.2500 125.0000 Du        
  32653 ****       121.0000 157.2500 125.2500 Du        
  32654 ****       121.0000 157.2500 125.5000 Du        
  32655 ****       121.0000 157.2500 125.7500 Du        
  32656 ****       121.0000 157.2500 126.0000 Du        
  32657 ****       121.0000 157.2500 126.2500 Du        
  32658 ****       121.0000 157.2500 126.5000 Du        
  32659 ****       121.0000 157.2500 126.7500 Du        
  32660 ****       121.0000 157.2500 127.0000 Du        
  32661 ****       121.0000 157.5000 124.7500 Du        
  32662 ****       121.0000 157.5000 125.0000 Du        
  32663 ****       121.0000 157.5000 125.2500 Du        
  32664 ****       121.0000 157.5000 125.5000 Du        
  32665 ****       121.0000 157.5000 125.7500 Du        
  32666 ****       121.0000 157.5000 126.0000 Du        
  32667 ****       121.0000 157.5000 126.2500 Du        
  32668 ****       121.0000 157.5000 126.5000 Du        
  32669 ****       121.0000 157.5000 126.7500 Du        
  32670 ****       121.0000 157.5000 127.0000 Du        
  32671 ****       121.0000 157.7500 126.5000 Du        
  32672 ****       121.0000 157.7500 126.7500 Du        
  32673 ****       121.0000 157.7500 127.0000 Du        
  32674 ****       121.0000 158.7500 116.5000 Du        
  32675 ****       121.0000 159.0000 116.2500 Du        
  32676 ****       121.0000 159.0000 116.5000 Du        
  32677 ****       121.0000 159.2500 116.0000 Du        
  32678 ****       121.0000 159.2500 116.2500 Du        
  32679 ****       121.0000 159.2500 116.5000 Du        
  32680 ****       121.0000 159.2500 116.7500 Du        
  32681 ****       121.0000 159.5000 116.5000 Du        
  32682 ****       121.0000 159.5000 116.7500 Du        
  32683 ****       121.0000 159.7500 116.2500 Du        
  32684 ****       121.0000 159.7500 116.5000 Du        
  32685 ****       121.0000 159.7500 116.7500 Du        
  32686 ****       121.0000 159.7500 117.0000 Du        
  32687 ****       121.0000 160.0000 116.0000 Du        
  32688 ****       121.0000 160.0000 116.2500 Du        
  32689 ****       121.0000 160.0000 116.5000 Du        
  32690 ****       121.0000 160.0000 116.7500 Du        
  32691 ****       121.0000 160.0000 117.0000 Du        
  32692 ****       121.0000 160.2500 116.0000 Du        
  32693 ****       121.0000 160.2500 116.2500 Du        
  32694 ****       121.0000 160.2500 116.5000 Du        
  32695 ****       121.0000 160.2500 116.7500 Du        
  32696 ****       121.0000 160.2500 117.0000 Du        
  32697 ****       121.0000 160.5000 115.7500 Du        
  32698 ****       121.0000 160.5000 116.0000 Du        
  32699 ****       121.0000 160.5000 116.2500 Du        
  32700 ****       121.0000 160.5000 116.5000 Du        
  32701 ****       121.0000 160.5000 116.7500 Du        
  32702 ****       121.0000 160.5000 117.0000 Du        
  32703 ****       121.0000 160.7500 116.0000 Du        
  32704 ****       121.0000 160.7500 116.2500 Du        
  32705 ****       121.0000 160.7500 116.5000 Du        
  32706 ****       121.0000 160.7500 116.7500 Du        
  32707 ****       121.0000 160.7500 117.0000 Du        
  32708 ****       121.0000 160.7500 117.2500 Du        
  32709 ****       121.0000 161.0000 116.0000 Du        
  32710 ****       121.0000 161.0000 116.2500 Du        
  32711 ****       121.0000 161.0000 116.5000 Du        
  32712 ****       121.0000 161.0000 116.7500 Du        
  32713 ****       121.0000 161.0000 117.0000 Du        
  32714 ****       121.2500 135.5000 129.5000 Du        
  32715 ****       121.2500 135.5000 129.7500 Du        
  32716 ****       121.2500 135.7500 129.5000 Du        
  32717 ****       121.2500 135.7500 129.7500 Du        
  32718 ****       121.2500 135.7500 130.0000 Du        
  32719 ****       121.2500 136.0000 129.5000 Du        
  32720 ****       121.2500 136.0000 129.7500 Du        
  32721 ****       121.2500 136.0000 130.0000 Du        
  32722 ****       121.2500 136.0000 130.2500 Du        
  32723 ****       121.2500 136.2500 129.5000 Du        
  32724 ****       121.2500 136.2500 129.7500 Du        
  32725 ****       121.2500 136.2500 130.0000 Du        
  32726 ****       121.2500 136.2500 130.2500 Du        
  32727 ****       121.2500 136.2500 130.5000 Du        
  32728 ****       121.2500 136.5000 129.7500 Du        
  32729 ****       121.2500 136.5000 130.0000 Du        
  32730 ****       121.2500 136.5000 130.2500 Du        
  32731 ****       121.2500 136.5000 130.5000 Du        
  32732 ****       121.2500 137.5000 115.2500 Du        
  32733 ****       121.2500 137.5000 126.2500 Du        
  32734 ****       121.2500 137.5000 126.5000 Du        
  32735 ****       121.2500 137.5000 126.7500 Du        
  32736 ****       121.2500 137.5000 127.0000 Du        
  32737 ****       121.2500 137.5000 127.2500 Du        
  32738 ****       121.2500 137.7500 115.0000 Du        
  32739 ****       121.2500 137.7500 115.2500 Du        
  32740 ****       121.2500 137.7500 115.5000 Du        
  32741 ****       121.2500 137.7500 126.0000 Du        
  32742 ****       121.2500 137.7500 126.2500 Du        
  32743 ****       121.2500 137.7500 126.5000 Du        
  32744 ****       121.2500 137.7500 126.7500 Du        
  32745 ****       121.2500 137.7500 127.0000 Du        
  32746 ****       121.2500 137.7500 127.2500 Du        
  32747 ****       121.2500 138.0000 125.7500 Du        
  32748 ****       121.2500 138.0000 126.0000 Du        
  32749 ****       121.2500 138.0000 126.2500 Du        
  32750 ****       121.2500 138.0000 126.5000 Du        
  32751 ****       121.2500 138.0000 126.7500 Du        
  32752 ****       121.2500 138.0000 127.0000 Du        
  32753 ****       121.2500 138.0000 127.2500 Du        
  32754 ****       121.2500 138.0000 127.5000 Du        
  32755 ****       121.2500 138.2500 125.7500 Du        
  32756 ****       121.2500 138.2500 126.0000 Du        
  32757 ****       121.2500 138.2500 126.2500 Du        
  32758 ****       121.2500 138.2500 126.5000 Du        
  32759 ****       121.2500 138.2500 126.7500 Du        
  32760 ****       121.2500 138.2500 127.0000 Du        
  32761 ****       121.2500 138.2500 127.2500 Du        
  32762 ****       121.2500 138.2500 127.5000 Du        
  32763 ****       121.2500 138.5000 125.5000 Du        
  32764 ****       121.2500 138.5000 125.7500 Du        
  32765 ****       121.2500 138.5000 126.0000 Du        
  32766 ****       121.2500 138.5000 126.2500 Du        
  32767 ****       121.2500 138.5000 126.5000 Du        
  32768 ****       121.2500 138.5000 126.7500 Du        
  32769 ****       121.2500 138.5000 127.0000 Du        
  32770 ****       121.2500 138.5000 127.2500 Du        
  32771 ****       121.2500 138.5000 127.5000 Du        
  32772 ****       121.2500 138.7500 125.5000 Du        
  32773 ****       121.2500 138.7500 125.7500 Du        
  32774 ****       121.2500 138.7500 126.0000 Du        
  32775 ****       121.2500 138.7500 126.2500 Du        
  32776 ****       121.2500 138.7500 126.5000 Du        
  32777 ****       121.2500 138.7500 126.7500 Du        
  32778 ****       121.2500 138.7500 127.0000 Du        
  32779 ****       121.2500 138.7500 127.2500 Du        
  32780 ****       121.2500 138.7500 127.5000 Du        
  32781 ****       121.2500 139.0000 125.5000 Du        
  32782 ****       121.2500 139.0000 125.7500 Du        
  32783 ****       121.2500 139.0000 126.0000 Du        
  32784 ****       121.2500 139.0000 126.2500 Du        
  32785 ****       121.2500 139.0000 126.5000 Du        
  32786 ****       121.2500 139.0000 126.7500 Du        
  32787 ****       121.2500 139.0000 127.0000 Du        
  32788 ****       121.2500 139.0000 127.2500 Du        
  32789 ****       121.2500 139.2500 125.5000 Du        
  32790 ****       121.2500 139.2500 125.7500 Du        
  32791 ****       121.2500 139.2500 126.0000 Du        
  32792 ****       121.2500 139.2500 126.2500 Du        
  32793 ****       121.2500 139.2500 126.5000 Du        
  32794 ****       121.2500 139.2500 126.7500 Du        
  32795 ****       121.2500 139.2500 127.0000 Du        
  32796 ****       121.2500 139.5000 125.5000 Du        
  32797 ****       121.2500 139.5000 125.7500 Du        
  32798 ****       121.2500 139.5000 126.0000 Du        
  32799 ****       121.2500 139.5000 126.2500 Du        
  32800 ****       121.2500 139.5000 126.5000 Du        
  32801 ****       121.2500 139.7500 125.0000 Du        
  32802 ****       121.2500 139.7500 125.5000 Du        
  32803 ****       121.2500 139.7500 125.7500 Du        
  32804 ****       121.2500 139.7500 126.0000 Du        
  32805 ****       121.2500 140.0000 125.0000 Du        
  32806 ****       121.2500 140.0000 125.2500 Du        
  32807 ****       121.2500 140.0000 125.5000 Du        
  32808 ****       121.2500 140.0000 125.7500 Du        
  32809 ****       121.2500 140.5000 118.0000 Du        
  32810 ****       121.2500 140.5000 118.2500 Du        
  32811 ****       121.2500 140.7500 118.0000 Du        
  32812 ****       121.2500 140.7500 118.2500 Du        
  32813 ****       121.2500 140.7500 118.5000 Du        
  32814 ****       121.2500 141.0000 117.7500 Du        
  32815 ****       121.2500 141.0000 118.0000 Du        
  32816 ****       121.2500 141.0000 118.2500 Du        
  32817 ****       121.2500 141.0000 118.5000 Du        
  32818 ****       121.2500 141.0000 118.7500 Du        
  32819 ****       121.2500 141.2500 117.7500 Du        
  32820 ****       121.2500 141.2500 118.0000 Du        
  32821 ****       121.2500 141.2500 118.2500 Du        
  32822 ****       121.2500 141.2500 118.5000 Du        
  32823 ****       121.2500 141.2500 118.7500 Du        
  32824 ****       121.2500 141.2500 119.0000 Du        
  32825 ****       121.2500 141.2500 124.2500 Du        
  32826 ****       121.2500 141.5000 117.7500 Du        
  32827 ****       121.2500 141.5000 118.0000 Du        
  32828 ****       121.2500 141.5000 118.2500 Du        
  32829 ****       121.2500 141.5000 118.5000 Du        
  32830 ****       121.2500 141.5000 118.7500 Du        
  32831 ****       121.2500 141.5000 119.0000 Du        
  32832 ****       121.2500 141.5000 124.0000 Du        
  32833 ****       121.2500 141.5000 124.2500 Du        
  32834 ****       121.2500 141.7500 117.5000 Du        
  32835 ****       121.2500 141.7500 117.7500 Du        
  32836 ****       121.2500 141.7500 118.0000 Du        
  32837 ****       121.2500 141.7500 118.2500 Du        
  32838 ****       121.2500 141.7500 118.5000 Du        
  32839 ****       121.2500 141.7500 118.7500 Du        
  32840 ****       121.2500 141.7500 119.0000 Du        
  32841 ****       121.2500 141.7500 123.2500 Du        
  32842 ****       121.2500 141.7500 123.5000 Du        
  32843 ****       121.2500 141.7500 123.7500 Du        
  32844 ****       121.2500 141.7500 124.0000 Du        
  32845 ****       121.2500 141.7500 124.2500 Du        
  32846 ****       121.2500 141.7500 124.7500 Du        
  32847 ****       121.2500 142.0000 117.5000 Du        
  32848 ****       121.2500 142.0000 117.7500 Du        
  32849 ****       121.2500 142.0000 118.0000 Du        
  32850 ****       121.2500 142.0000 118.2500 Du        
  32851 ****       121.2500 142.0000 118.5000 Du        
  32852 ****       121.2500 142.0000 118.7500 Du        
  32853 ****       121.2500 142.0000 119.0000 Du        
  32854 ****       121.2500 142.0000 123.7500 Du        
  32855 ****       121.2500 142.0000 124.0000 Du        
  32856 ****       121.2500 142.0000 124.2500 Du        
  32857 ****       121.2500 142.0000 124.5000 Du        
  32858 ****       121.2500 142.0000 124.7500 Du        
  32859 ****       121.2500 142.0000 125.0000 Du        
  32860 ****       121.2500 142.0000 125.2500 Du        
  32861 ****       121.2500 142.2500 117.5000 Du        
  32862 ****       121.2500 142.2500 117.7500 Du        
  32863 ****       121.2500 142.2500 118.0000 Du        
  32864 ****       121.2500 142.2500 118.2500 Du        
  32865 ****       121.2500 142.2500 118.5000 Du        
  32866 ****       121.2500 142.2500 118.7500 Du        
  32867 ****       121.2500 142.2500 119.0000 Du        
  32868 ****       121.2500 142.2500 119.2500 Du        
  32869 ****       121.2500 142.2500 124.0000 Du        
  32870 ****       121.2500 142.2500 124.2500 Du        
  32871 ****       121.2500 142.2500 125.2500 Du        
  32872 ****       121.2500 142.5000 117.5000 Du        
  32873 ****       121.2500 142.5000 117.7500 Du        
  32874 ****       121.2500 142.5000 118.0000 Du        
  32875 ****       121.2500 142.5000 118.2500 Du        
  32876 ****       121.2500 142.5000 118.5000 Du        
  32877 ****       121.2500 142.5000 118.7500 Du        
  32878 ****       121.2500 142.5000 119.0000 Du        
  32879 ****       121.2500 142.5000 119.2500 Du        
  32880 ****       121.2500 142.5000 119.5000 Du        
  32881 ****       121.2500 142.5000 124.5000 Du        
  32882 ****       121.2500 142.5000 124.7500 Du        
  32883 ****       121.2500 142.5000 125.0000 Du        
  32884 ****       121.2500 142.5000 125.2500 Du        
  32885 ****       121.2500 142.7500 117.7500 Du        
  32886 ****       121.2500 142.7500 118.0000 Du        
  32887 ****       121.2500 142.7500 118.2500 Du        
  32888 ****       121.2500 142.7500 118.5000 Du        
  32889 ****       121.2500 142.7500 118.7500 Du        
  32890 ****       121.2500 142.7500 119.0000 Du        
  32891 ****       121.2500 142.7500 119.2500 Du        
  32892 ****       121.2500 142.7500 119.5000 Du        
  32893 ****       121.2500 142.7500 125.0000 Du        
  32894 ****       121.2500 142.7500 125.2500 Du        
  32895 ****       121.2500 142.7500 125.5000 Du        
  32896 ****       121.2500 142.7500 125.7500 Du        
  32897 ****       121.2500 142.7500 126.0000 Du        
  32898 ****       121.2500 142.7500 126.2500 Du        
  32899 ****       121.2500 142.7500 126.5000 Du        
  32900 ****       121.2500 142.7500 126.7500 Du        
  32901 ****       121.2500 143.0000 117.7500 Du        
  32902 ****       121.2500 143.0000 118.0000 Du        
  32903 ****       121.2500 143.0000 118.2500 Du        
  32904 ****       121.2500 143.0000 118.5000 Du        
  32905 ****       121.2500 143.0000 118.7500 Du        
  32906 ****       121.2500 143.0000 119.0000 Du        
  32907 ****       121.2500 143.0000 119.2500 Du        
  32908 ****       121.2500 143.0000 119.5000 Du        
  32909 ****       121.2500 143.0000 119.7500 Du        
  32910 ****       121.2500 143.0000 125.2500 Du        
  32911 ****       121.2500 143.0000 125.5000 Du        
  32912 ****       121.2500 143.0000 125.7500 Du        
  32913 ****       121.2500 143.0000 126.0000 Du        
  32914 ****       121.2500 143.0000 126.2500 Du        
  32915 ****       121.2500 143.0000 126.5000 Du        
  32916 ****       121.2500 143.0000 126.7500 Du        
  32917 ****       121.2500 143.0000 127.0000 Du        
  32918 ****       121.2500 143.2500 117.7500 Du        
  32919 ****       121.2500 143.2500 118.0000 Du        
  32920 ****       121.2500 143.2500 118.2500 Du        
  32921 ****       121.2500 143.2500 118.5000 Du        
  32922 ****       121.2500 143.2500 118.7500 Du        
  32923 ****       121.2500 143.2500 119.0000 Du        
  32924 ****       121.2500 143.2500 119.2500 Du        
  32925 ****       121.2500 143.2500 119.5000 Du        
  32926 ****       121.2500 143.2500 125.7500 Du        
  32927 ****       121.2500 143.2500 126.0000 Du        
  32928 ****       121.2500 143.2500 126.2500 Du        
  32929 ****       121.2500 143.2500 126.5000 Du        
  32930 ****       121.2500 143.2500 126.7500 Du        
  32931 ****       121.2500 143.2500 127.0000 Du        
  32932 ****       121.2500 143.2500 127.2500 Du        
  32933 ****       121.2500 143.2500 127.5000 Du        
  32934 ****       121.2500 143.2500 127.7500 Du        
  32935 ****       121.2500 143.5000 117.7500 Du        
  32936 ****       121.2500 143.5000 118.0000 Du        
  32937 ****       121.2500 143.5000 118.2500 Du        
  32938 ****       121.2500 143.5000 118.5000 Du        
  32939 ****       121.2500 143.5000 118.7500 Du        
  32940 ****       121.2500 143.5000 119.0000 Du        
  32941 ****       121.2500 143.5000 119.2500 Du        
  32942 ****       121.2500 143.5000 119.5000 Du        
  32943 ****       121.2500 143.5000 125.7500 Du        
  32944 ****       121.2500 143.5000 126.0000 Du        
  32945 ****       121.2500 143.5000 126.2500 Du        
  32946 ****       121.2500 143.5000 126.5000 Du        
  32947 ****       121.2500 143.5000 126.7500 Du        
  32948 ****       121.2500 143.5000 127.0000 Du        
  32949 ****       121.2500 143.5000 127.2500 Du        
  32950 ****       121.2500 143.5000 127.5000 Du        
  32951 ****       121.2500 143.5000 127.7500 Du        
  32952 ****       121.2500 143.7500 118.0000 Du        
  32953 ****       121.2500 143.7500 118.2500 Du        
  32954 ****       121.2500 143.7500 118.5000 Du        
  32955 ****       121.2500 143.7500 118.7500 Du        
  32956 ****       121.2500 143.7500 119.0000 Du        
  32957 ****       121.2500 143.7500 119.2500 Du        
  32958 ****       121.2500 143.7500 126.0000 Du        
  32959 ****       121.2500 143.7500 126.2500 Du        
  32960 ****       121.2500 143.7500 126.5000 Du        
  32961 ****       121.2500 143.7500 126.7500 Du        
  32962 ****       121.2500 143.7500 127.0000 Du        
  32963 ****       121.2500 143.7500 127.2500 Du        
  32964 ****       121.2500 143.7500 127.7500 Du        
  32965 ****       121.2500 144.0000 118.0000 Du        
  32966 ****       121.2500 144.0000 118.2500 Du        
  32967 ****       121.2500 144.0000 118.5000 Du        
  32968 ****       121.2500 144.0000 118.7500 Du        
  32969 ****       121.2500 144.0000 119.0000 Du        
  32970 ****       121.2500 144.0000 119.2500 Du        
  32971 ****       121.2500 144.0000 126.2500 Du        
  32972 ****       121.2500 144.0000 126.5000 Du        
  32973 ****       121.2500 144.0000 126.7500 Du        
  32974 ****       121.2500 144.0000 127.0000 Du        
  32975 ****       121.2500 144.0000 127.2500 Du        
  32976 ****       121.2500 144.2500 118.2500 Du        
  32977 ****       121.2500 144.2500 118.5000 Du        
  32978 ****       121.2500 144.2500 118.7500 Du        
  32979 ****       121.2500 144.2500 119.0000 Du        
  32980 ****       121.2500 144.2500 126.2500 Du        
  32981 ****       121.2500 144.2500 126.5000 Du        
  32982 ****       121.2500 144.2500 126.7500 Du        
  32983 ****       121.2500 144.2500 127.0000 Du        
  32984 ****       121.2500 144.2500 127.2500 Du        
  32985 ****       121.2500 144.5000 118.5000 Du        
  32986 ****       121.2500 144.5000 118.7500 Du        
  32987 ****       121.2500 144.5000 119.0000 Du        
  32988 ****       121.2500 144.5000 126.5000 Du        
  32989 ****       121.2500 144.5000 126.7500 Du        
  32990 ****       121.2500 144.5000 127.0000 Du        
  32991 ****       121.2500 144.5000 127.2500 Du        
  32992 ****       121.2500 144.5000 127.5000 Du        
  32993 ****       121.2500 144.7500 118.7500 Du        
  32994 ****       121.2500 144.7500 126.5000 Du        
  32995 ****       121.2500 144.7500 126.7500 Du        
  32996 ****       121.2500 144.7500 127.0000 Du        
  32997 ****       121.2500 144.7500 127.2500 Du        
  32998 ****       121.2500 145.0000 126.7500 Du        
  32999 ****       121.2500 145.0000 127.0000 Du        
  33000 ****       121.2500 145.0000 127.2500 Du        
  33001 ****       121.2500 145.2500 126.7500 Du        
  33002 ****       121.2500 145.2500 127.0000 Du        
  33003 ****       121.2500 145.2500 127.2500 Du        
  33004 ****       121.2500 146.0000 127.0000 Du        
  33005 ****       121.2500 149.5000 118.2500 Du        
  33006 ****       121.2500 149.5000 118.5000 Du        
  33007 ****       121.2500 149.5000 118.7500 Du        
  33008 ****       121.2500 149.5000 119.0000 Du        
  33009 ****       121.2500 149.7500 118.0000 Du        
  33010 ****       121.2500 149.7500 118.2500 Du        
  33011 ****       121.2500 149.7500 118.5000 Du        
  33012 ****       121.2500 149.7500 118.7500 Du        
  33013 ****       121.2500 149.7500 119.0000 Du        
  33014 ****       121.2500 149.7500 119.2500 Du        
  33015 ****       121.2500 150.0000 118.0000 Du        
  33016 ****       121.2500 150.0000 118.2500 Du        
  33017 ****       121.2500 150.0000 118.5000 Du        
  33018 ****       121.2500 150.0000 118.7500 Du        
  33019 ****       121.2500 150.0000 119.0000 Du        
  33020 ****       121.2500 150.0000 119.2500 Du        
  33021 ****       121.2500 150.2500 118.0000 Du        
  33022 ****       121.2500 150.2500 118.2500 Du        
  33023 ****       121.2500 150.2500 118.5000 Du        
  33024 ****       121.2500 150.2500 118.7500 Du        
  33025 ****       121.2500 150.2500 119.0000 Du        
  33026 ****       121.2500 150.5000 118.0000 Du        
  33027 ****       121.2500 150.5000 118.2500 Du        
  33028 ****       121.2500 150.5000 118.5000 Du        
  33029 ****       121.2500 150.7500 118.0000 Du        
  33030 ****       121.2500 150.7500 118.2500 Du        
  33031 ****       121.2500 153.5000 124.0000 Du        
  33032 ****       121.2500 153.5000 124.2500 Du        
  33033 ****       121.2500 153.5000 124.5000 Du        
  33034 ****       121.2500 153.5000 124.7500 Du        
  33035 ****       121.2500 153.5000 125.0000 Du        
  33036 ****       121.2500 153.5000 125.2500 Du        
  33037 ****       121.2500 153.5000 125.7500 Du        
  33038 ****       121.2500 153.7500 123.7500 Du        
  33039 ****       121.2500 153.7500 124.0000 Du        
  33040 ****       121.2500 153.7500 124.2500 Du        
  33041 ****       121.2500 153.7500 124.5000 Du        
  33042 ****       121.2500 153.7500 124.7500 Du        
  33043 ****       121.2500 153.7500 125.0000 Du        
  33044 ****       121.2500 153.7500 125.2500 Du        
  33045 ****       121.2500 153.7500 125.5000 Du        
  33046 ****       121.2500 153.7500 125.7500 Du        
  33047 ****       121.2500 153.7500 126.0000 Du        
  33048 ****       121.2500 154.0000 123.5000 Du        
  33049 ****       121.2500 154.0000 123.7500 Du        
  33050 ****       121.2500 154.0000 124.0000 Du        
  33051 ****       121.2500 154.0000 124.2500 Du        
  33052 ****       121.2500 154.0000 124.5000 Du        
  33053 ****       121.2500 154.0000 124.7500 Du        
  33054 ****       121.2500 154.0000 125.0000 Du        
  33055 ****       121.2500 154.0000 125.2500 Du        
  33056 ****       121.2500 154.0000 125.5000 Du        
  33057 ****       121.2500 154.0000 125.7500 Du        
  33058 ****       121.2500 154.0000 126.0000 Du        
  33059 ****       121.2500 154.0000 126.2500 Du        
  33060 ****       121.2500 154.2500 123.5000 Du        
  33061 ****       121.2500 154.2500 123.7500 Du        
  33062 ****       121.2500 154.2500 124.0000 Du        
  33063 ****       121.2500 154.2500 124.2500 Du        
  33064 ****       121.2500 154.2500 124.5000 Du        
  33065 ****       121.2500 154.2500 124.7500 Du        
  33066 ****       121.2500 154.2500 125.0000 Du        
  33067 ****       121.2500 154.2500 125.2500 Du        
  33068 ****       121.2500 154.2500 125.5000 Du        
  33069 ****       121.2500 154.2500 125.7500 Du        
  33070 ****       121.2500 154.2500 126.0000 Du        
  33071 ****       121.2500 154.2500 126.2500 Du        
  33072 ****       121.2500 154.5000 123.5000 Du        
  33073 ****       121.2500 154.5000 123.7500 Du        
  33074 ****       121.2500 154.5000 124.0000 Du        
  33075 ****       121.2500 154.5000 124.2500 Du        
  33076 ****       121.2500 154.5000 124.5000 Du        
  33077 ****       121.2500 154.5000 124.7500 Du        
  33078 ****       121.2500 154.5000 125.0000 Du        
  33079 ****       121.2500 154.5000 125.2500 Du        
  33080 ****       121.2500 154.5000 125.5000 Du        
  33081 ****       121.2500 154.5000 125.7500 Du        
  33082 ****       121.2500 154.5000 126.0000 Du        
  33083 ****       121.2500 154.5000 126.2500 Du        
  33084 ****       121.2500 154.5000 127.0000 Du        
  33085 ****       121.2500 154.5000 134.7500 Du        
  33086 ****       121.2500 154.5000 135.0000 Du        
  33087 ****       121.2500 154.5000 136.0000 Du        
  33088 ****       121.2500 154.5000 136.2500 Du        
  33089 ****       121.2500 154.5000 136.5000 Du        
  33090 ****       121.2500 154.5000 136.7500 Du        
  33091 ****       121.2500 154.5000 137.0000 Du        
  33092 ****       121.2500 154.5000 137.2500 Du        
  33093 ****       121.2500 154.5000 137.5000 Du        
  33094 ****       121.2500 154.7500 123.5000 Du        
  33095 ****       121.2500 154.7500 123.7500 Du        
  33096 ****       121.2500 154.7500 124.0000 Du        
  33097 ****       121.2500 154.7500 124.2500 Du        
  33098 ****       121.2500 154.7500 124.5000 Du        
  33099 ****       121.2500 154.7500 124.7500 Du        
  33100 ****       121.2500 154.7500 125.0000 Du        
  33101 ****       121.2500 154.7500 125.2500 Du        
  33102 ****       121.2500 154.7500 125.5000 Du        
  33103 ****       121.2500 154.7500 125.7500 Du        
  33104 ****       121.2500 154.7500 126.0000 Du        
  33105 ****       121.2500 154.7500 126.2500 Du        
  33106 ****       121.2500 154.7500 126.5000 Du        
  33107 ****       121.2500 154.7500 126.7500 Du        
  33108 ****       121.2500 154.7500 127.0000 Du        
  33109 ****       121.2500 154.7500 134.5000 Du        
  33110 ****       121.2500 154.7500 134.7500 Du        
  33111 ****       121.2500 154.7500 135.0000 Du        
  33112 ****       121.2500 154.7500 135.2500 Du        
  33113 ****       121.2500 154.7500 135.5000 Du        
  33114 ****       121.2500 154.7500 135.7500 Du        
  33115 ****       121.2500 154.7500 136.0000 Du        
  33116 ****       121.2500 154.7500 136.2500 Du        
  33117 ****       121.2500 154.7500 136.5000 Du        
  33118 ****       121.2500 154.7500 136.7500 Du        
  33119 ****       121.2500 154.7500 137.0000 Du        
  33120 ****       121.2500 154.7500 137.2500 Du        
  33121 ****       121.2500 154.7500 137.5000 Du        
  33122 ****       121.2500 155.0000 123.5000 Du        
  33123 ****       121.2500 155.0000 123.7500 Du        
  33124 ****       121.2500 155.0000 124.0000 Du        
  33125 ****       121.2500 155.0000 124.2500 Du        
  33126 ****       121.2500 155.0000 124.5000 Du        
  33127 ****       121.2500 155.0000 124.7500 Du        
  33128 ****       121.2500 155.0000 125.0000 Du        
  33129 ****       121.2500 155.0000 125.2500 Du        
  33130 ****       121.2500 155.0000 125.5000 Du        
  33131 ****       121.2500 155.0000 125.7500 Du        
  33132 ****       121.2500 155.0000 126.0000 Du        
  33133 ****       121.2500 155.0000 126.2500 Du        
  33134 ****       121.2500 155.0000 126.5000 Du        
  33135 ****       121.2500 155.0000 126.7500 Du        
  33136 ****       121.2500 155.0000 127.0000 Du        
  33137 ****       121.2500 155.0000 127.2500 Du        
  33138 ****       121.2500 155.0000 134.5000 Du        
  33139 ****       121.2500 155.0000 134.7500 Du        
  33140 ****       121.2500 155.0000 135.0000 Du        
  33141 ****       121.2500 155.0000 135.2500 Du        
  33142 ****       121.2500 155.0000 135.5000 Du        
  33143 ****       121.2500 155.0000 135.7500 Du        
  33144 ****       121.2500 155.0000 136.0000 Du        
  33145 ****       121.2500 155.0000 136.2500 Du        
  33146 ****       121.2500 155.0000 136.5000 Du        
  33147 ****       121.2500 155.0000 136.7500 Du        
  33148 ****       121.2500 155.0000 137.0000 Du        
  33149 ****       121.2500 155.0000 137.2500 Du        
  33150 ****       121.2500 155.0000 137.5000 Du        
  33151 ****       121.2500 155.2500 123.5000 Du        
  33152 ****       121.2500 155.2500 123.7500 Du        
  33153 ****       121.2500 155.2500 124.0000 Du        
  33154 ****       121.2500 155.2500 124.2500 Du        
  33155 ****       121.2500 155.2500 124.5000 Du        
  33156 ****       121.2500 155.2500 124.7500 Du        
  33157 ****       121.2500 155.2500 125.0000 Du        
  33158 ****       121.2500 155.2500 125.2500 Du        
  33159 ****       121.2500 155.2500 125.5000 Du        
  33160 ****       121.2500 155.2500 125.7500 Du        
  33161 ****       121.2500 155.2500 126.0000 Du        
  33162 ****       121.2500 155.2500 126.2500 Du        
  33163 ****       121.2500 155.2500 126.5000 Du        
  33164 ****       121.2500 155.2500 126.7500 Du        
  33165 ****       121.2500 155.2500 127.0000 Du        
  33166 ****       121.2500 155.2500 134.7500 Du        
  33167 ****       121.2500 155.2500 135.0000 Du        
  33168 ****       121.2500 155.2500 135.2500 Du        
  33169 ****       121.2500 155.2500 135.5000 Du        
  33170 ****       121.2500 155.2500 135.7500 Du        
  33171 ****       121.2500 155.2500 136.0000 Du        
  33172 ****       121.2500 155.2500 136.2500 Du        
  33173 ****       121.2500 155.2500 136.5000 Du        
  33174 ****       121.2500 155.2500 136.7500 Du        
  33175 ****       121.2500 155.2500 137.0000 Du        
  33176 ****       121.2500 155.2500 137.2500 Du        
  33177 ****       121.2500 155.2500 137.5000 Du        
  33178 ****       121.2500 155.5000 123.5000 Du        
  33179 ****       121.2500 155.5000 123.7500 Du        
  33180 ****       121.2500 155.5000 124.0000 Du        
  33181 ****       121.2500 155.5000 124.2500 Du        
  33182 ****       121.2500 155.5000 124.5000 Du        
  33183 ****       121.2500 155.5000 124.7500 Du        
  33184 ****       121.2500 155.5000 125.0000 Du        
  33185 ****       121.2500 155.5000 125.2500 Du        
  33186 ****       121.2500 155.5000 125.5000 Du        
  33187 ****       121.2500 155.5000 125.7500 Du        
  33188 ****       121.2500 155.5000 126.0000 Du        
  33189 ****       121.2500 155.5000 126.2500 Du        
  33190 ****       121.2500 155.5000 126.5000 Du        
  33191 ****       121.2500 155.5000 126.7500 Du        
  33192 ****       121.2500 155.5000 127.0000 Du        
  33193 ****       121.2500 155.5000 134.7500 Du        
  33194 ****       121.2500 155.5000 135.0000 Du        
  33195 ****       121.2500 155.5000 135.2500 Du        
  33196 ****       121.2500 155.5000 135.5000 Du        
  33197 ****       121.2500 155.5000 135.7500 Du        
  33198 ****       121.2500 155.5000 136.0000 Du        
  33199 ****       121.2500 155.5000 136.2500 Du        
  33200 ****       121.2500 155.5000 136.5000 Du        
  33201 ****       121.2500 155.5000 136.7500 Du        
  33202 ****       121.2500 155.5000 137.0000 Du        
  33203 ****       121.2500 155.5000 137.2500 Du        
  33204 ****       121.2500 155.5000 137.5000 Du        
  33205 ****       121.2500 155.7500 115.5000 Du        
  33206 ****       121.2500 155.7500 115.7500 Du        
  33207 ****       121.2500 155.7500 116.0000 Du        
  33208 ****       121.2500 155.7500 123.7500 Du        
  33209 ****       121.2500 155.7500 124.0000 Du        
  33210 ****       121.2500 155.7500 124.2500 Du        
  33211 ****       121.2500 155.7500 124.5000 Du        
  33212 ****       121.2500 155.7500 124.7500 Du        
  33213 ****       121.2500 155.7500 125.0000 Du        
  33214 ****       121.2500 155.7500 125.2500 Du        
  33215 ****       121.2500 155.7500 125.5000 Du        
  33216 ****       121.2500 155.7500 125.7500 Du        
  33217 ****       121.2500 155.7500 126.0000 Du        
  33218 ****       121.2500 155.7500 126.2500 Du        
  33219 ****       121.2500 155.7500 126.5000 Du        
  33220 ****       121.2500 155.7500 126.7500 Du        
  33221 ****       121.2500 155.7500 127.0000 Du        
  33222 ****       121.2500 155.7500 134.7500 Du        
  33223 ****       121.2500 155.7500 135.0000 Du        
  33224 ****       121.2500 155.7500 135.2500 Du        
  33225 ****       121.2500 155.7500 135.5000 Du        
  33226 ****       121.2500 155.7500 135.7500 Du        
  33227 ****       121.2500 155.7500 136.0000 Du        
  33228 ****       121.2500 155.7500 136.2500 Du        
  33229 ****       121.2500 155.7500 136.5000 Du        
  33230 ****       121.2500 155.7500 136.7500 Du        
  33231 ****       121.2500 155.7500 137.0000 Du        
  33232 ****       121.2500 155.7500 137.2500 Du        
  33233 ****       121.2500 156.0000 115.0000 Du        
  33234 ****       121.2500 156.0000 115.2500 Du        
  33235 ****       121.2500 156.0000 115.5000 Du        
  33236 ****       121.2500 156.0000 115.7500 Du        
  33237 ****       121.2500 156.0000 116.0000 Du        
  33238 ****       121.2500 156.0000 124.2500 Du        
  33239 ****       121.2500 156.0000 124.5000 Du        
  33240 ****       121.2500 156.0000 124.7500 Du        
  33241 ****       121.2500 156.0000 125.0000 Du        
  33242 ****       121.2500 156.0000 125.2500 Du        
  33243 ****       121.2500 156.0000 125.5000 Du        
  33244 ****       121.2500 156.0000 125.7500 Du        
  33245 ****       121.2500 156.0000 126.0000 Du        
  33246 ****       121.2500 156.0000 126.2500 Du        
  33247 ****       121.2500 156.0000 126.5000 Du        
  33248 ****       121.2500 156.0000 126.7500 Du        
  33249 ****       121.2500 156.0000 127.0000 Du        
  33250 ****       121.2500 156.0000 134.7500 Du        
  33251 ****       121.2500 156.0000 135.0000 Du        
  33252 ****       121.2500 156.0000 135.2500 Du        
  33253 ****       121.2500 156.0000 135.5000 Du        
  33254 ****       121.2500 156.0000 135.7500 Du        
  33255 ****       121.2500 156.0000 136.0000 Du        
  33256 ****       121.2500 156.0000 136.2500 Du        
  33257 ****       121.2500 156.0000 136.5000 Du        
  33258 ****       121.2500 156.0000 136.7500 Du        
  33259 ****       121.2500 156.0000 137.0000 Du        
  33260 ****       121.2500 156.0000 137.2500 Du        
  33261 ****       121.2500 156.2500 115.2500 Du        
  33262 ****       121.2500 156.2500 115.5000 Du        
  33263 ****       121.2500 156.2500 115.7500 Du        
  33264 ****       121.2500 156.2500 116.0000 Du        
  33265 ****       121.2500 156.2500 116.2500 Du        
  33266 ****       121.2500 156.2500 124.5000 Du        
  33267 ****       121.2500 156.2500 124.7500 Du        
  33268 ****       121.2500 156.2500 125.0000 Du        
  33269 ****       121.2500 156.2500 125.2500 Du        
  33270 ****       121.2500 156.2500 125.5000 Du        
  33271 ****       121.2500 156.2500 125.7500 Du        
  33272 ****       121.2500 156.2500 126.0000 Du        
  33273 ****       121.2500 156.2500 126.2500 Du        
  33274 ****       121.2500 156.2500 126.5000 Du        
  33275 ****       121.2500 156.2500 126.7500 Du        
  33276 ****       121.2500 156.2500 127.0000 Du        
  33277 ****       121.2500 156.2500 135.0000 Du        
  33278 ****       121.2500 156.2500 135.2500 Du        
  33279 ****       121.2500 156.2500 135.5000 Du        
  33280 ****       121.2500 156.2500 135.7500 Du        
  33281 ****       121.2500 156.2500 136.0000 Du        
  33282 ****       121.2500 156.2500 136.2500 Du        
  33283 ****       121.2500 156.5000 115.7500 Du        
  33284 ****       121.2500 156.5000 124.5000 Du        
  33285 ****       121.2500 156.5000 124.7500 Du        
  33286 ****       121.2500 156.5000 125.0000 Du        
  33287 ****       121.2500 156.5000 125.2500 Du        
  33288 ****       121.2500 156.5000 125.5000 Du        
  33289 ****       121.2500 156.5000 125.7500 Du        
  33290 ****       121.2500 156.5000 126.0000 Du        
  33291 ****       121.2500 156.5000 126.2500 Du        
  33292 ****       121.2500 156.5000 126.5000 Du        
  33293 ****       121.2500 156.5000 126.7500 Du        
  33294 ****       121.2500 156.5000 127.0000 Du        
  33295 ****       121.2500 156.5000 135.0000 Du        
  33296 ****       121.2500 156.5000 135.2500 Du        
  33297 ****       121.2500 156.5000 135.5000 Du        
  33298 ****       121.2500 156.5000 135.7500 Du        
  33299 ****       121.2500 156.7500 124.7500 Du        
  33300 ****       121.2500 156.7500 125.0000 Du        
  33301 ****       121.2500 156.7500 125.2500 Du        
  33302 ****       121.2500 156.7500 125.5000 Du        
  33303 ****       121.2500 156.7500 125.7500 Du        
  33304 ****       121.2500 156.7500 126.0000 Du        
  33305 ****       121.2500 156.7500 126.2500 Du        
  33306 ****       121.2500 156.7500 126.5000 Du        
  33307 ****       121.2500 156.7500 126.7500 Du        
  33308 ****       121.2500 156.7500 127.0000 Du        
  33309 ****       121.2500 156.7500 135.0000 Du        
  33310 ****       121.2500 156.7500 135.2500 Du        
  33311 ****       121.2500 157.0000 124.7500 Du        
  33312 ****       121.2500 157.0000 125.0000 Du        
  33313 ****       121.2500 157.0000 125.2500 Du        
  33314 ****       121.2500 157.0000 125.5000 Du        
  33315 ****       121.2500 157.0000 125.7500 Du        
  33316 ****       121.2500 157.0000 126.0000 Du        
  33317 ****       121.2500 157.0000 126.2500 Du        
  33318 ****       121.2500 157.0000 126.5000 Du        
  33319 ****       121.2500 157.0000 126.7500 Du        
  33320 ****       121.2500 157.0000 127.0000 Du        
  33321 ****       121.2500 157.2500 125.0000 Du        
  33322 ****       121.2500 157.2500 125.2500 Du        
  33323 ****       121.2500 157.2500 125.5000 Du        
  33324 ****       121.2500 157.2500 125.7500 Du        
  33325 ****       121.2500 157.2500 126.0000 Du        
  33326 ****       121.2500 157.2500 126.2500 Du        
  33327 ****       121.2500 157.2500 126.5000 Du        
  33328 ****       121.2500 157.2500 126.7500 Du        
  33329 ****       121.2500 157.2500 127.0000 Du        
  33330 ****       121.2500 157.5000 125.2500 Du        
  33331 ****       121.2500 157.5000 125.5000 Du        
  33332 ****       121.2500 157.5000 125.7500 Du        
  33333 ****       121.2500 157.5000 126.0000 Du        
  33334 ****       121.2500 157.5000 126.2500 Du        
  33335 ****       121.2500 157.5000 126.5000 Du        
  33336 ****       121.2500 157.5000 126.7500 Du        
  33337 ****       121.2500 157.5000 127.0000 Du        
  33338 ****       121.2500 157.5000 127.2500 Du        
  33339 ****       121.2500 157.7500 126.0000 Du        
  33340 ****       121.2500 157.7500 126.2500 Du        
  33341 ****       121.2500 157.7500 126.5000 Du        
  33342 ****       121.2500 157.7500 126.7500 Du        
  33343 ****       121.2500 157.7500 127.0000 Du        
  33344 ****       121.2500 157.7500 127.2500 Du        
  33345 ****       121.2500 159.0000 116.5000 Du        
  33346 ****       121.2500 159.0000 116.7500 Du        
  33347 ****       121.2500 159.2500 116.5000 Du        
  33348 ****       121.2500 159.2500 116.7500 Du        
  33349 ****       121.2500 159.5000 116.5000 Du        
  33350 ****       121.2500 159.5000 116.7500 Du        
  33351 ****       121.2500 159.7500 116.5000 Du        
  33352 ****       121.2500 159.7500 116.7500 Du        
  33353 ****       121.2500 159.7500 117.0000 Du        
  33354 ****       121.2500 160.0000 116.5000 Du        
  33355 ****       121.2500 160.0000 116.7500 Du        
  33356 ****       121.2500 160.0000 117.0000 Du        
  33357 ****       121.2500 160.2500 116.5000 Du        
  33358 ****       121.2500 160.2500 116.7500 Du        
  33359 ****       121.2500 160.2500 117.0000 Du        
  33360 ****       121.2500 160.5000 116.2500 Du        
  33361 ****       121.2500 160.5000 116.5000 Du        
  33362 ****       121.2500 160.5000 116.7500 Du        
  33363 ****       121.2500 160.5000 117.0000 Du        
  33364 ****       121.2500 160.7500 116.2500 Du        
  33365 ****       121.2500 160.7500 116.5000 Du        
  33366 ****       121.2500 160.7500 116.7500 Du        
  33367 ****       121.2500 161.0000 116.5000 Du        
  33368 ****       121.5000 135.5000 129.7500 Du        
  33369 ****       121.5000 135.5000 130.0000 Du        
  33370 ****       121.5000 135.7500 129.7500 Du        
  33371 ****       121.5000 135.7500 130.0000 Du        
  33372 ****       121.5000 135.7500 130.2500 Du        
  33373 ****       121.5000 136.0000 129.7500 Du        
  33374 ****       121.5000 136.0000 130.0000 Du        
  33375 ****       121.5000 136.0000 130.2500 Du        
  33376 ****       121.5000 136.0000 130.5000 Du        
  33377 ****       121.5000 136.2500 129.7500 Du        
  33378 ****       121.5000 136.2500 130.0000 Du        
  33379 ****       121.5000 136.2500 130.2500 Du        
  33380 ****       121.5000 136.2500 130.5000 Du        
  33381 ****       121.5000 136.5000 130.0000 Du        
  33382 ****       121.5000 136.5000 130.2500 Du        
  33383 ****       121.5000 137.5000 115.0000 Du        
  33384 ****       121.5000 137.5000 115.2500 Du        
  33385 ****       121.5000 137.7500 114.7500 Du        
  33386 ****       121.5000 137.7500 115.0000 Du        
  33387 ****       121.5000 137.7500 115.2500 Du        
  33388 ****       121.5000 138.0000 114.7500 Du        
  33389 ****       121.5000 138.0000 115.0000 Du        
  33390 ****       121.5000 138.0000 115.2500 Du        
  33391 ****       121.5000 138.0000 126.5000 Du        
  33392 ****       121.5000 138.0000 126.7500 Du        
  33393 ****       121.5000 138.0000 127.0000 Du        
  33394 ****       121.5000 138.2500 126.2500 Du        
  33395 ****       121.5000 138.2500 126.5000 Du        
  33396 ****       121.5000 138.2500 126.7500 Du        
  33397 ****       121.5000 138.2500 127.0000 Du        
  33398 ****       121.5000 138.5000 125.7500 Du        
  33399 ****       121.5000 138.5000 126.0000 Du        
  33400 ****       121.5000 138.5000 126.2500 Du        
  33401 ****       121.5000 138.5000 126.5000 Du        
  33402 ****       121.5000 138.5000 126.7500 Du        
  33403 ****       121.5000 138.5000 127.0000 Du        
  33404 ****       121.5000 138.7500 125.7500 Du        
  33405 ****       121.5000 138.7500 126.0000 Du        
  33406 ****       121.5000 138.7500 126.2500 Du        
  33407 ****       121.5000 138.7500 126.5000 Du        
  33408 ****       121.5000 138.7500 126.7500 Du        
  33409 ****       121.5000 138.7500 127.0000 Du        
  33410 ****       121.5000 138.7500 127.2500 Du        
  33411 ****       121.5000 139.0000 125.5000 Du        
  33412 ****       121.5000 139.0000 125.7500 Du        
  33413 ****       121.5000 139.0000 126.0000 Du        
  33414 ****       121.5000 139.0000 126.2500 Du        
  33415 ****       121.5000 139.0000 126.5000 Du        
  33416 ****       121.5000 139.0000 126.7500 Du        
  33417 ****       121.5000 139.0000 127.0000 Du        
  33418 ****       121.5000 139.0000 127.2500 Du        
  33419 ****       121.5000 139.2500 125.5000 Du        
  33420 ****       121.5000 139.2500 125.7500 Du        
  33421 ****       121.5000 139.2500 126.0000 Du        
  33422 ****       121.5000 139.2500 126.2500 Du        
  33423 ****       121.5000 139.2500 126.5000 Du        
  33424 ****       121.5000 139.2500 126.7500 Du        
  33425 ****       121.5000 139.2500 127.0000 Du        
  33426 ****       121.5000 139.5000 126.0000 Du        
  33427 ****       121.5000 139.5000 126.2500 Du        
  33428 ****       121.5000 140.5000 118.0000 Du        
  33429 ****       121.5000 140.7500 117.7500 Du        
  33430 ****       121.5000 140.7500 118.0000 Du        
  33431 ****       121.5000 140.7500 118.2500 Du        
  33432 ****       121.5000 141.0000 117.7500 Du        
  33433 ****       121.5000 141.0000 118.0000 Du        
  33434 ****       121.5000 141.0000 118.2500 Du        
  33435 ****       121.5000 141.2500 117.7500 Du        
  33436 ****       121.5000 141.2500 118.0000 Du        
  33437 ****       121.5000 141.2500 118.2500 Du        
  33438 ****       121.5000 141.2500 118.5000 Du        
  33439 ****       121.5000 141.5000 117.5000 Du        
  33440 ****       121.5000 141.5000 117.7500 Du        
  33441 ****       121.5000 141.5000 118.0000 Du        
  33442 ****       121.5000 141.5000 118.2500 Du        
  33443 ****       121.5000 141.5000 118.5000 Du        
  33444 ****       121.5000 141.5000 118.7500 Du        
  33445 ****       121.5000 141.5000 119.0000 Du        
  33446 ****       121.5000 141.5000 119.2500 Du        
  33447 ****       121.5000 141.7500 117.5000 Du        
  33448 ****       121.5000 141.7500 117.7500 Du        
  33449 ****       121.5000 141.7500 118.0000 Du        
  33450 ****       121.5000 141.7500 118.2500 Du        
  33451 ****       121.5000 141.7500 118.5000 Du        
  33452 ****       121.5000 141.7500 118.7500 Du        
  33453 ****       121.5000 141.7500 119.0000 Du        
  33454 ****       121.5000 141.7500 119.2500 Du        
  33455 ****       121.5000 142.0000 117.5000 Du        
  33456 ****       121.5000 142.0000 117.7500 Du        
  33457 ****       121.5000 142.0000 118.0000 Du        
  33458 ****       121.5000 142.0000 118.2500 Du        
  33459 ****       121.5000 142.0000 118.5000 Du        
  33460 ****       121.5000 142.0000 118.7500 Du        
  33461 ****       121.5000 142.0000 119.0000 Du        
  33462 ****       121.5000 142.0000 119.2500 Du        
  33463 ****       121.5000 142.0000 119.5000 Du        
  33464 ****       121.5000 142.2500 117.7500 Du        
  33465 ****       121.5000 142.2500 118.0000 Du        
  33466 ****       121.5000 142.2500 118.2500 Du        
  33467 ****       121.5000 142.2500 118.5000 Du        
  33468 ****       121.5000 142.2500 118.7500 Du        
  33469 ****       121.5000 142.2500 119.0000 Du        
  33470 ****       121.5000 142.2500 119.2500 Du        
  33471 ****       121.5000 142.2500 119.5000 Du        
  33472 ****       121.5000 142.5000 117.7500 Du        
  33473 ****       121.5000 142.5000 118.0000 Du        
  33474 ****       121.5000 142.5000 118.2500 Du        
  33475 ****       121.5000 142.5000 118.5000 Du        
  33476 ****       121.5000 142.5000 118.7500 Du        
  33477 ****       121.5000 142.5000 119.0000 Du        
  33478 ****       121.5000 142.5000 119.2500 Du        
  33479 ****       121.5000 142.5000 119.5000 Du        
  33480 ****       121.5000 142.5000 119.7500 Du        
  33481 ****       121.5000 142.5000 120.0000 Du        
  33482 ****       121.5000 142.7500 117.7500 Du        
  33483 ****       121.5000 142.7500 118.0000 Du        
  33484 ****       121.5000 142.7500 118.2500 Du        
  33485 ****       121.5000 142.7500 118.5000 Du        
  33486 ****       121.5000 142.7500 118.7500 Du        
  33487 ****       121.5000 142.7500 119.0000 Du        
  33488 ****       121.5000 142.7500 119.2500 Du        
  33489 ****       121.5000 142.7500 119.5000 Du        
  33490 ****       121.5000 142.7500 119.7500 Du        
  33491 ****       121.5000 142.7500 120.0000 Du        
  33492 ****       121.5000 143.0000 118.0000 Du        
  33493 ****       121.5000 143.0000 118.2500 Du        
  33494 ****       121.5000 143.0000 118.5000 Du        
  33495 ****       121.5000 143.0000 118.7500 Du        
  33496 ****       121.5000 143.0000 119.0000 Du        
  33497 ****       121.5000 143.0000 119.2500 Du        
  33498 ****       121.5000 143.0000 119.5000 Du        
  33499 ****       121.5000 143.0000 119.7500 Du        
  33500 ****       121.5000 143.0000 120.0000 Du        
  33501 ****       121.5000 143.2500 118.0000 Du        
  33502 ****       121.5000 143.2500 118.2500 Du        
  33503 ****       121.5000 143.2500 118.5000 Du        
  33504 ****       121.5000 143.2500 118.7500 Du        
  33505 ****       121.5000 143.2500 119.0000 Du        
  33506 ****       121.5000 143.2500 119.2500 Du        
  33507 ****       121.5000 143.2500 119.5000 Du        
  33508 ****       121.5000 143.2500 119.7500 Du        
  33509 ****       121.5000 143.2500 120.0000 Du        
  33510 ****       121.5000 143.5000 118.0000 Du        
  33511 ****       121.5000 143.5000 118.2500 Du        
  33512 ****       121.5000 143.5000 118.5000 Du        
  33513 ****       121.5000 143.5000 118.7500 Du        
  33514 ****       121.5000 143.5000 119.0000 Du        
  33515 ****       121.5000 143.5000 119.2500 Du        
  33516 ****       121.5000 143.5000 119.5000 Du        
  33517 ****       121.5000 143.5000 119.7500 Du        
  33518 ****       121.5000 143.7500 118.2500 Du        
  33519 ****       121.5000 143.7500 118.5000 Du        
  33520 ****       121.5000 143.7500 118.7500 Du        
  33521 ****       121.5000 143.7500 119.0000 Du        
  33522 ****       121.5000 143.7500 119.2500 Du        
  33523 ****       121.5000 143.7500 119.5000 Du        
  33524 ****       121.5000 143.7500 119.7500 Du        
  33525 ****       121.5000 144.0000 118.2500 Du        
  33526 ****       121.5000 144.0000 118.5000 Du        
  33527 ****       121.5000 144.0000 118.7500 Du        
  33528 ****       121.5000 144.0000 119.0000 Du        
  33529 ****       121.5000 144.0000 119.2500 Du        
  33530 ****       121.5000 144.0000 119.5000 Du        
  33531 ****       121.5000 144.2500 118.5000 Du        
  33532 ****       121.5000 144.2500 118.7500 Du        
  33533 ****       121.5000 144.2500 119.0000 Du        
  33534 ****       121.5000 144.2500 119.2500 Du        
  33535 ****       121.5000 144.5000 118.7500 Du        
  33536 ****       121.5000 144.5000 119.0000 Du        
  33537 ****       121.5000 144.5000 119.2500 Du        
  33538 ****       121.5000 153.2500 123.7500 Du        
  33539 ****       121.5000 153.2500 124.0000 Du        
  33540 ****       121.5000 153.2500 124.2500 Du        
  33541 ****       121.5000 153.5000 123.5000 Du        
  33542 ****       121.5000 153.5000 123.7500 Du        
  33543 ****       121.5000 153.5000 124.0000 Du        
  33544 ****       121.5000 153.5000 124.2500 Du        
  33545 ****       121.5000 153.7500 123.2500 Du        
  33546 ****       121.5000 153.7500 123.5000 Du        
  33547 ****       121.5000 153.7500 123.7500 Du        
  33548 ****       121.5000 153.7500 124.0000 Du        
  33549 ****       121.5000 153.7500 124.2500 Du        
  33550 ****       121.5000 153.7500 125.2500 Du        
  33551 ****       121.5000 154.0000 123.2500 Du        
  33552 ****       121.5000 154.0000 123.5000 Du        
  33553 ****       121.5000 154.0000 123.7500 Du        
  33554 ****       121.5000 154.0000 124.0000 Du        
  33555 ****       121.5000 154.0000 124.2500 Du        
  33556 ****       121.5000 154.0000 124.5000 Du        
  33557 ****       121.5000 154.0000 124.7500 Du        
  33558 ****       121.5000 154.0000 125.0000 Du        
  33559 ****       121.5000 154.0000 125.2500 Du        
  33560 ****       121.5000 154.2500 123.2500 Du        
  33561 ****       121.5000 154.2500 123.5000 Du        
  33562 ****       121.5000 154.2500 123.7500 Du        
  33563 ****       121.5000 154.2500 124.0000 Du        
  33564 ****       121.5000 154.2500 124.2500 Du        
  33565 ****       121.5000 154.2500 124.5000 Du        
  33566 ****       121.5000 154.2500 124.7500 Du        
  33567 ****       121.5000 154.2500 125.0000 Du        
  33568 ****       121.5000 154.2500 125.2500 Du        
  33569 ****       121.5000 154.5000 123.2500 Du        
  33570 ****       121.5000 154.5000 123.5000 Du        
  33571 ****       121.5000 154.5000 123.7500 Du        
  33572 ****       121.5000 154.5000 124.0000 Du        
  33573 ****       121.5000 154.5000 124.2500 Du        
  33574 ****       121.5000 154.5000 124.5000 Du        
  33575 ****       121.5000 154.5000 124.7500 Du        
  33576 ****       121.5000 154.5000 125.0000 Du        
  33577 ****       121.5000 154.5000 125.2500 Du        
  33578 ****       121.5000 154.5000 136.0000 Du        
  33579 ****       121.5000 154.5000 136.2500 Du        
  33580 ****       121.5000 154.5000 136.5000 Du        
  33581 ****       121.5000 154.5000 136.7500 Du        
  33582 ****       121.5000 154.5000 137.0000 Du        
  33583 ****       121.5000 154.7500 123.2500 Du        
  33584 ****       121.5000 154.7500 123.5000 Du        
  33585 ****       121.5000 154.7500 123.7500 Du        
  33586 ****       121.5000 154.7500 124.0000 Du        
  33587 ****       121.5000 154.7500 124.2500 Du        
  33588 ****       121.5000 154.7500 124.5000 Du        
  33589 ****       121.5000 154.7500 124.7500 Du        
  33590 ****       121.5000 154.7500 125.0000 Du        
  33591 ****       121.5000 154.7500 125.2500 Du        
  33592 ****       121.5000 154.7500 125.5000 Du        
  33593 ****       121.5000 154.7500 125.7500 Du        
  33594 ****       121.5000 154.7500 126.0000 Du        
  33595 ****       121.5000 154.7500 126.2500 Du        
  33596 ****       121.5000 154.7500 134.7500 Du        
  33597 ****       121.5000 154.7500 135.0000 Du        
  33598 ****       121.5000 154.7500 135.2500 Du        
  33599 ****       121.5000 154.7500 135.5000 Du        
  33600 ****       121.5000 154.7500 135.7500 Du        
  33601 ****       121.5000 154.7500 136.0000 Du        
  33602 ****       121.5000 154.7500 136.2500 Du        
  33603 ****       121.5000 154.7500 136.5000 Du        
  33604 ****       121.5000 154.7500 136.7500 Du        
  33605 ****       121.5000 154.7500 137.0000 Du        
  33606 ****       121.5000 154.7500 137.2500 Du        
  33607 ****       121.5000 155.0000 123.2500 Du        
  33608 ****       121.5000 155.0000 123.5000 Du        
  33609 ****       121.5000 155.0000 123.7500 Du        
  33610 ****       121.5000 155.0000 124.0000 Du        
  33611 ****       121.5000 155.0000 124.2500 Du        
  33612 ****       121.5000 155.0000 124.5000 Du        
  33613 ****       121.5000 155.0000 124.7500 Du        
  33614 ****       121.5000 155.0000 125.0000 Du        
  33615 ****       121.5000 155.0000 125.2500 Du        
  33616 ****       121.5000 155.0000 125.5000 Du        
  33617 ****       121.5000 155.0000 125.7500 Du        
  33618 ****       121.5000 155.0000 126.0000 Du        
  33619 ****       121.5000 155.0000 126.2500 Du        
  33620 ****       121.5000 155.0000 134.7500 Du        
  33621 ****       121.5000 155.0000 135.0000 Du        
  33622 ****       121.5000 155.0000 135.2500 Du        
  33623 ****       121.5000 155.0000 135.5000 Du        
  33624 ****       121.5000 155.0000 135.7500 Du        
  33625 ****       121.5000 155.0000 136.0000 Du        
  33626 ****       121.5000 155.0000 136.2500 Du        
  33627 ****       121.5000 155.0000 136.5000 Du        
  33628 ****       121.5000 155.0000 136.7500 Du        
  33629 ****       121.5000 155.0000 137.0000 Du        
  33630 ****       121.5000 155.0000 137.2500 Du        
  33631 ****       121.5000 155.2500 123.5000 Du        
  33632 ****       121.5000 155.2500 123.7500 Du        
  33633 ****       121.5000 155.2500 124.0000 Du        
  33634 ****       121.5000 155.2500 124.2500 Du        
  33635 ****       121.5000 155.2500 124.5000 Du        
  33636 ****       121.5000 155.2500 124.7500 Du        
  33637 ****       121.5000 155.2500 125.0000 Du        
  33638 ****       121.5000 155.2500 125.2500 Du        
  33639 ****       121.5000 155.2500 125.5000 Du        
  33640 ****       121.5000 155.2500 125.7500 Du        
  33641 ****       121.5000 155.2500 126.0000 Du        
  33642 ****       121.5000 155.2500 126.2500 Du        
  33643 ****       121.5000 155.2500 126.5000 Du        
  33644 ****       121.5000 155.2500 126.7500 Du        
  33645 ****       121.5000 155.2500 134.7500 Du        
  33646 ****       121.5000 155.2500 135.0000 Du        
  33647 ****       121.5000 155.2500 135.2500 Du        
  33648 ****       121.5000 155.2500 135.5000 Du        
  33649 ****       121.5000 155.2500 135.7500 Du        
  33650 ****       121.5000 155.2500 136.0000 Du        
  33651 ****       121.5000 155.2500 136.2500 Du        
  33652 ****       121.5000 155.2500 136.5000 Du        
  33653 ****       121.5000 155.2500 136.7500 Du        
  33654 ****       121.5000 155.2500 137.0000 Du        
  33655 ****       121.5000 155.2500 137.2500 Du        
  33656 ****       121.5000 155.5000 124.2500 Du        
  33657 ****       121.5000 155.5000 124.5000 Du        
  33658 ****       121.5000 155.5000 124.7500 Du        
  33659 ****       121.5000 155.5000 125.0000 Du        
  33660 ****       121.5000 155.5000 125.2500 Du        
  33661 ****       121.5000 155.5000 125.5000 Du        
  33662 ****       121.5000 155.5000 125.7500 Du        
  33663 ****       121.5000 155.5000 126.0000 Du        
  33664 ****       121.5000 155.5000 126.2500 Du        
  33665 ****       121.5000 155.5000 126.5000 Du        
  33666 ****       121.5000 155.5000 126.7500 Du        
  33667 ****       121.5000 155.5000 134.7500 Du        
  33668 ****       121.5000 155.5000 135.0000 Du        
  33669 ****       121.5000 155.5000 135.2500 Du        
  33670 ****       121.5000 155.5000 135.5000 Du        
  33671 ****       121.5000 155.5000 135.7500 Du        
  33672 ****       121.5000 155.5000 136.0000 Du        
  33673 ****       121.5000 155.5000 136.2500 Du        
  33674 ****       121.5000 155.5000 136.5000 Du        
  33675 ****       121.5000 155.5000 136.7500 Du        
  33676 ****       121.5000 155.5000 137.0000 Du        
  33677 ****       121.5000 155.5000 137.2500 Du        
  33678 ****       121.5000 155.7500 124.5000 Du        
  33679 ****       121.5000 155.7500 124.7500 Du        
  33680 ****       121.5000 155.7500 125.0000 Du        
  33681 ****       121.5000 155.7500 125.2500 Du        
  33682 ****       121.5000 155.7500 125.5000 Du        
  33683 ****       121.5000 155.7500 125.7500 Du        
  33684 ****       121.5000 155.7500 126.0000 Du        
  33685 ****       121.5000 155.7500 126.2500 Du        
  33686 ****       121.5000 155.7500 126.5000 Du        
  33687 ****       121.5000 155.7500 126.7500 Du        
  33688 ****       121.5000 155.7500 134.7500 Du        
  33689 ****       121.5000 155.7500 135.0000 Du        
  33690 ****       121.5000 155.7500 135.2500 Du        
  33691 ****       121.5000 155.7500 135.5000 Du        
  33692 ****       121.5000 155.7500 135.7500 Du        
  33693 ****       121.5000 155.7500 136.0000 Du        
  33694 ****       121.5000 155.7500 136.2500 Du        
  33695 ****       121.5000 155.7500 136.5000 Du        
  33696 ****       121.5000 155.7500 136.7500 Du        
  33697 ****       121.5000 155.7500 137.0000 Du        
  33698 ****       121.5000 156.0000 124.7500 Du        
  33699 ****       121.5000 156.0000 125.0000 Du        
  33700 ****       121.5000 156.0000 125.2500 Du        
  33701 ****       121.5000 156.0000 125.5000 Du        
  33702 ****       121.5000 156.0000 125.7500 Du        
  33703 ****       121.5000 156.0000 126.0000 Du        
  33704 ****       121.5000 156.0000 126.2500 Du        
  33705 ****       121.5000 156.0000 126.5000 Du        
  33706 ****       121.5000 156.0000 126.7500 Du        
  33707 ****       121.5000 156.0000 134.7500 Du        
  33708 ****       121.5000 156.0000 135.0000 Du        
  33709 ****       121.5000 156.0000 135.2500 Du        
  33710 ****       121.5000 156.0000 135.5000 Du        
  33711 ****       121.5000 156.0000 135.7500 Du        
  33712 ****       121.5000 156.0000 136.0000 Du        
  33713 ****       121.5000 156.0000 136.2500 Du        
  33714 ****       121.5000 156.0000 136.5000 Du        
  33715 ****       121.5000 156.0000 136.7500 Du        
  33716 ****       121.5000 156.0000 137.0000 Du        
  33717 ****       121.5000 156.2500 124.7500 Du        
  33718 ****       121.5000 156.2500 125.0000 Du        
  33719 ****       121.5000 156.2500 125.2500 Du        
  33720 ****       121.5000 156.2500 125.5000 Du        
  33721 ****       121.5000 156.2500 125.7500 Du        
  33722 ****       121.5000 156.2500 126.0000 Du        
  33723 ****       121.5000 156.2500 126.2500 Du        
  33724 ****       121.5000 156.2500 126.5000 Du        
  33725 ****       121.5000 156.2500 126.7500 Du        
  33726 ****       121.5000 156.2500 127.0000 Du        
  33727 ****       121.5000 156.2500 135.0000 Du        
  33728 ****       121.5000 156.2500 135.2500 Du        
  33729 ****       121.5000 156.2500 135.5000 Du        
  33730 ****       121.5000 156.2500 135.7500 Du        
  33731 ****       121.5000 156.2500 136.0000 Du        
  33732 ****       121.5000 156.2500 136.2500 Du        
  33733 ****       121.5000 156.2500 136.5000 Du        
  33734 ****       121.5000 156.2500 136.7500 Du        
  33735 ****       121.5000 156.5000 119.2500 Du        
  33736 ****       121.5000 156.5000 119.5000 Du        
  33737 ****       121.5000 156.5000 119.7500 Du        
  33738 ****       121.5000 156.5000 120.0000 Du        
  33739 ****       121.5000 156.5000 125.0000 Du        
  33740 ****       121.5000 156.5000 125.2500 Du        
  33741 ****       121.5000 156.5000 125.5000 Du        
  33742 ****       121.5000 156.5000 125.7500 Du        
  33743 ****       121.5000 156.5000 126.0000 Du        
  33744 ****       121.5000 156.5000 126.2500 Du        
  33745 ****       121.5000 156.5000 126.5000 Du        
  33746 ****       121.5000 156.5000 126.7500 Du        
  33747 ****       121.5000 156.5000 127.0000 Du        
  33748 ****       121.5000 156.5000 135.0000 Du        
  33749 ****       121.5000 156.5000 135.2500 Du        
  33750 ****       121.5000 156.5000 135.5000 Du        
  33751 ****       121.5000 156.5000 135.7500 Du        
  33752 ****       121.5000 156.5000 136.0000 Du        
  33753 ****       121.5000 156.5000 136.2500 Du        
  33754 ****       121.5000 156.7500 117.5000 Du        
  33755 ****       121.5000 156.7500 117.7500 Du        
  33756 ****       121.5000 156.7500 118.0000 Du        
  33757 ****       121.5000 156.7500 118.7500 Du        
  33758 ****       121.5000 156.7500 119.0000 Du        
  33759 ****       121.5000 156.7500 119.2500 Du        
  33760 ****       121.5000 156.7500 119.5000 Du        
  33761 ****       121.5000 156.7500 119.7500 Du        
  33762 ****       121.5000 156.7500 120.0000 Du        
  33763 ****       121.5000 156.7500 120.2500 Du        
  33764 ****       121.5000 156.7500 120.5000 Du        
  33765 ****       121.5000 156.7500 125.0000 Du        
  33766 ****       121.5000 156.7500 125.2500 Du        
  33767 ****       121.5000 156.7500 125.5000 Du        
  33768 ****       121.5000 156.7500 125.7500 Du        
  33769 ****       121.5000 156.7500 126.0000 Du        
  33770 ****       121.5000 156.7500 126.2500 Du        
  33771 ****       121.5000 156.7500 126.5000 Du        
  33772 ****       121.5000 156.7500 126.7500 Du        
  33773 ****       121.5000 156.7500 127.0000 Du        
  33774 ****       121.5000 156.7500 135.0000 Du        
  33775 ****       121.5000 156.7500 135.2500 Du        
  33776 ****       121.5000 156.7500 135.5000 Du        
  33777 ****       121.5000 156.7500 135.7500 Du        
  33778 ****       121.5000 157.0000 117.2500 Du        
  33779 ****       121.5000 157.0000 117.5000 Du        
  33780 ****       121.5000 157.0000 117.7500 Du        
  33781 ****       121.5000 157.0000 118.0000 Du        
  33782 ****       121.5000 157.0000 119.0000 Du        
  33783 ****       121.5000 157.0000 119.2500 Du        
  33784 ****       121.5000 157.0000 119.5000 Du        
  33785 ****       121.5000 157.0000 119.7500 Du        
  33786 ****       121.5000 157.0000 120.0000 Du        
  33787 ****       121.5000 157.0000 120.2500 Du        
  33788 ****       121.5000 157.0000 125.2500 Du        
  33789 ****       121.5000 157.0000 125.5000 Du        
  33790 ****       121.5000 157.0000 125.7500 Du        
  33791 ****       121.5000 157.0000 126.0000 Du        
  33792 ****       121.5000 157.0000 126.2500 Du        
  33793 ****       121.5000 157.0000 126.5000 Du        
  33794 ****       121.5000 157.0000 126.7500 Du        
  33795 ****       121.5000 157.0000 127.0000 Du        
  33796 ****       121.5000 157.0000 135.0000 Du        
  33797 ****       121.5000 157.0000 135.2500 Du        
  33798 ****       121.5000 157.2500 117.2500 Du        
  33799 ****       121.5000 157.2500 125.5000 Du        
  33800 ****       121.5000 157.2500 125.7500 Du        
  33801 ****       121.5000 157.2500 126.0000 Du        
  33802 ****       121.5000 157.2500 126.2500 Du        
  33803 ****       121.5000 157.2500 126.5000 Du        
  33804 ****       121.5000 157.2500 126.7500 Du        
  33805 ****       121.5000 157.2500 127.0000 Du        
  33806 ****       121.5000 157.5000 125.7500 Du        
  33807 ****       121.5000 157.5000 126.0000 Du        
  33808 ****       121.5000 157.5000 126.2500 Du        
  33809 ****       121.5000 157.5000 126.5000 Du        
  33810 ****       121.5000 157.5000 126.7500 Du        
  33811 ****       121.5000 157.5000 127.0000 Du        
  33812 ****       121.5000 157.5000 127.2500 Du        
  33813 ****       121.5000 157.7500 126.2500 Du        
  33814 ****       121.5000 157.7500 126.5000 Du        
  33815 ****       121.5000 157.7500 126.7500 Du        
  33816 ****       121.5000 157.7500 127.0000 Du        
  33817 ****       121.5000 157.7500 127.2500 Du        
  33818 ****       121.5000 158.0000 127.0000 Du        
  33819 ****       121.7500 135.2500 129.7500 Du        
  33820 ****       121.7500 135.2500 130.0000 Du        
  33821 ****       121.7500 135.5000 129.5000 Du        
  33822 ****       121.7500 135.5000 129.7500 Du        
  33823 ****       121.7500 135.5000 130.0000 Du        
  33824 ****       121.7500 135.7500 129.7500 Du        
  33825 ****       121.7500 135.7500 130.0000 Du        
  33826 ****       121.7500 135.7500 130.2500 Du        
  33827 ****       121.7500 136.0000 129.7500 Du        
  33828 ****       121.7500 136.0000 130.0000 Du        
  33829 ****       121.7500 136.0000 130.2500 Du        
  33830 ****       121.7500 136.0000 130.5000 Du        
  33831 ****       121.7500 136.2500 130.0000 Du        
  33832 ****       121.7500 136.2500 130.2500 Du        
  33833 ****       121.7500 136.2500 130.5000 Du        
  33834 ****       121.7500 137.5000 114.7500 Du        
  33835 ****       121.7500 137.5000 115.0000 Du        
  33836 ****       121.7500 137.5000 115.2500 Du        
  33837 ****       121.7500 137.7500 114.5000 Du        
  33838 ****       121.7500 137.7500 114.7500 Du        
  33839 ****       121.7500 137.7500 115.0000 Du        
  33840 ****       121.7500 137.7500 115.2500 Du        
  33841 ****       121.7500 138.0000 114.2500 Du        
  33842 ****       121.7500 138.0000 114.5000 Du        
  33843 ****       121.7500 138.0000 114.7500 Du        
  33844 ****       121.7500 138.0000 115.0000 Du        
  33845 ****       121.7500 138.0000 115.2500 Du        
  33846 ****       121.7500 138.2500 114.7500 Du        
  33847 ****       121.7500 138.2500 115.0000 Du        
  33848 ****       121.7500 138.2500 115.2500 Du        
  33849 ****       121.7500 138.2500 126.2500 Du        
  33850 ****       121.7500 138.2500 126.5000 Du        
  33851 ****       121.7500 138.5000 125.7500 Du        
  33852 ****       121.7500 138.5000 126.0000 Du        
  33853 ****       121.7500 138.5000 126.2500 Du        
  33854 ****       121.7500 138.5000 126.5000 Du        
  33855 ****       121.7500 138.5000 126.7500 Du        
  33856 ****       121.7500 138.7500 125.5000 Du        
  33857 ****       121.7500 138.7500 125.7500 Du        
  33858 ****       121.7500 138.7500 126.0000 Du        
  33859 ****       121.7500 138.7500 126.2500 Du        
  33860 ****       121.7500 138.7500 126.5000 Du        
  33861 ****       121.7500 138.7500 126.7500 Du        
  33862 ****       121.7500 139.0000 125.5000 Du        
  33863 ****       121.7500 139.0000 125.7500 Du        
  33864 ****       121.7500 139.0000 126.0000 Du        
  33865 ****       121.7500 139.0000 126.2500 Du        
  33866 ****       121.7500 139.0000 126.5000 Du        
  33867 ****       121.7500 139.0000 126.7500 Du        
  33868 ****       121.7500 139.0000 127.0000 Du        
  33869 ****       121.7500 139.2500 125.5000 Du        
  33870 ****       121.7500 139.2500 125.7500 Du        
  33871 ****       121.7500 139.2500 126.0000 Du        
  33872 ****       121.7500 139.2500 126.2500 Du        
  33873 ****       121.7500 139.2500 126.5000 Du        
  33874 ****       121.7500 139.2500 126.7500 Du        
  33875 ****       121.7500 139.2500 127.0000 Du        
  33876 ****       121.7500 139.5000 125.7500 Du        
  33877 ****       121.7500 139.5000 126.0000 Du        
  33878 ****       121.7500 139.5000 126.2500 Du        
  33879 ****       121.7500 139.5000 126.5000 Du        
  33880 ****       121.7500 139.5000 126.7500 Du        
  33881 ****       121.7500 139.5000 127.0000 Du        
  33882 ****       121.7500 139.7500 126.0000 Du        
  33883 ****       121.7500 139.7500 126.2500 Du        
  33884 ****       121.7500 139.7500 126.5000 Du        
  33885 ****       121.7500 139.7500 126.7500 Du        
  33886 ****       121.7500 140.5000 117.7500 Du        
  33887 ****       121.7500 140.5000 118.0000 Du        
  33888 ****       121.7500 140.5000 118.2500 Du        
  33889 ****       121.7500 140.7500 117.7500 Du        
  33890 ****       121.7500 140.7500 118.0000 Du        
  33891 ****       121.7500 140.7500 118.2500 Du        
  33892 ****       121.7500 141.0000 117.7500 Du        
  33893 ****       121.7500 141.0000 118.0000 Du        
  33894 ****       121.7500 141.0000 118.2500 Du        
  33895 ****       121.7500 141.0000 118.5000 Du        
  33896 ****       121.7500 141.0000 118.7500 Du        
  33897 ****       121.7500 141.2500 117.7500 Du        
  33898 ****       121.7500 141.2500 118.0000 Du        
  33899 ****       121.7500 141.2500 118.2500 Du        
  33900 ****       121.7500 141.2500 118.5000 Du        
  33901 ****       121.7500 141.2500 118.7500 Du        
  33902 ****       121.7500 141.2500 119.0000 Du        
  33903 ****       121.7500 141.5000 117.5000 Du        
  33904 ****       121.7500 141.5000 117.7500 Du        
  33905 ****       121.7500 141.5000 118.0000 Du        
  33906 ****       121.7500 141.5000 118.2500 Du        
  33907 ****       121.7500 141.5000 118.5000 Du        
  33908 ****       121.7500 141.5000 118.7500 Du        
  33909 ****       121.7500 141.5000 119.0000 Du        
  33910 ****       121.7500 141.5000 119.2500 Du        
  33911 ****       121.7500 141.7500 117.5000 Du        
  33912 ****       121.7500 141.7500 117.7500 Du        
  33913 ****       121.7500 141.7500 118.0000 Du        
  33914 ****       121.7500 141.7500 118.2500 Du        
  33915 ****       121.7500 141.7500 118.5000 Du        
  33916 ****       121.7500 141.7500 118.7500 Du        
  33917 ****       121.7500 141.7500 119.0000 Du        
  33918 ****       121.7500 141.7500 119.2500 Du        
  33919 ****       121.7500 141.7500 119.5000 Du        
  33920 ****       121.7500 141.7500 119.7500 Du        
  33921 ****       121.7500 142.0000 117.7500 Du        
  33922 ****       121.7500 142.0000 118.0000 Du        
  33923 ****       121.7500 142.0000 118.2500 Du        
  33924 ****       121.7500 142.0000 118.5000 Du        
  33925 ****       121.7500 142.0000 118.7500 Du        
  33926 ****       121.7500 142.0000 119.0000 Du        
  33927 ****       121.7500 142.0000 119.2500 Du        
  33928 ****       121.7500 142.0000 119.5000 Du        
  33929 ****       121.7500 142.0000 119.7500 Du        
  33930 ****       121.7500 142.0000 120.0000 Du        
  33931 ****       121.7500 142.2500 118.0000 Du        
  33932 ****       121.7500 142.2500 118.2500 Du        
  33933 ****       121.7500 142.2500 118.5000 Du        
  33934 ****       121.7500 142.2500 118.7500 Du        
  33935 ****       121.7500 142.2500 119.0000 Du        
  33936 ****       121.7500 142.2500 119.2500 Du        
  33937 ****       121.7500 142.2500 119.5000 Du        
  33938 ****       121.7500 142.2500 119.7500 Du        
  33939 ****       121.7500 142.2500 120.0000 Du        
  33940 ****       121.7500 142.2500 120.2500 Du        
  33941 ****       121.7500 142.5000 118.2500 Du        
  33942 ****       121.7500 142.5000 118.5000 Du        
  33943 ****       121.7500 142.5000 118.7500 Du        
  33944 ****       121.7500 142.5000 119.0000 Du        
  33945 ****       121.7500 142.5000 119.2500 Du        
  33946 ****       121.7500 142.5000 119.5000 Du        
  33947 ****       121.7500 142.5000 119.7500 Du        
  33948 ****       121.7500 142.5000 120.0000 Du        
  33949 ****       121.7500 142.5000 120.2500 Du        
  33950 ****       121.7500 142.7500 118.2500 Du        
  33951 ****       121.7500 142.7500 118.5000 Du        
  33952 ****       121.7500 142.7500 118.7500 Du        
  33953 ****       121.7500 142.7500 119.0000 Du        
  33954 ****       121.7500 142.7500 119.2500 Du        
  33955 ****       121.7500 142.7500 119.5000 Du        
  33956 ****       121.7500 142.7500 119.7500 Du        
  33957 ****       121.7500 142.7500 120.0000 Du        
  33958 ****       121.7500 142.7500 120.2500 Du        
  33959 ****       121.7500 143.0000 118.5000 Du        
  33960 ****       121.7500 143.0000 118.7500 Du        
  33961 ****       121.7500 143.0000 119.0000 Du        
  33962 ****       121.7500 143.0000 119.2500 Du        
  33963 ****       121.7500 143.0000 119.5000 Du        
  33964 ****       121.7500 143.0000 119.7500 Du        
  33965 ****       121.7500 143.0000 120.0000 Du        
  33966 ****       121.7500 143.0000 120.2500 Du        
  33967 ****       121.7500 143.2500 118.5000 Du        
  33968 ****       121.7500 143.2500 118.7500 Du        
  33969 ****       121.7500 143.2500 119.0000 Du        
  33970 ****       121.7500 143.2500 119.2500 Du        
  33971 ****       121.7500 143.2500 119.5000 Du        
  33972 ****       121.7500 143.2500 119.7500 Du        
  33973 ****       121.7500 143.2500 120.0000 Du        
  33974 ****       121.7500 143.5000 118.5000 Du        
  33975 ****       121.7500 143.5000 118.7500 Du        
  33976 ****       121.7500 143.5000 119.0000 Du        
  33977 ****       121.7500 143.5000 119.2500 Du        
  33978 ****       121.7500 143.5000 119.5000 Du        
  33979 ****       121.7500 143.5000 119.7500 Du        
  33980 ****       121.7500 143.5000 120.0000 Du        
  33981 ****       121.7500 143.7500 118.5000 Du        
  33982 ****       121.7500 143.7500 118.7500 Du        
  33983 ****       121.7500 143.7500 119.0000 Du        
  33984 ****       121.7500 143.7500 119.2500 Du        
  33985 ****       121.7500 143.7500 119.5000 Du        
  33986 ****       121.7500 143.7500 119.7500 Du        
  33987 ****       121.7500 144.0000 118.7500 Du        
  33988 ****       121.7500 144.0000 119.0000 Du        
  33989 ****       121.7500 144.0000 119.2500 Du        
  33990 ****       121.7500 144.0000 119.5000 Du        
  33991 ****       121.7500 144.2500 118.7500 Du        
  33992 ****       121.7500 144.2500 119.0000 Du        
  33993 ****       121.7500 144.2500 119.2500 Du        
  33994 ****       121.7500 144.5000 126.7500 Du        
  33995 ****       121.7500 152.2500 123.2500 Du        
  33996 ****       121.7500 152.2500 123.5000 Du        
  33997 ****       121.7500 152.2500 123.7500 Du        
  33998 ****       121.7500 152.5000 123.2500 Du        
  33999 ****       121.7500 152.5000 123.5000 Du        
  34000 ****       121.7500 152.5000 123.7500 Du        
  34001 ****       121.7500 152.7500 123.2500 Du        
  34002 ****       121.7500 152.7500 123.5000 Du        
  34003 ****       121.7500 152.7500 123.7500 Du        
  34004 ****       121.7500 152.7500 124.0000 Du        
  34005 ****       121.7500 152.7500 124.2500 Du        
  34006 ****       121.7500 153.0000 123.0000 Du        
  34007 ****       121.7500 153.0000 123.2500 Du        
  34008 ****       121.7500 153.0000 123.5000 Du        
  34009 ****       121.7500 153.0000 123.7500 Du        
  34010 ****       121.7500 153.0000 124.0000 Du        
  34011 ****       121.7500 153.0000 124.2500 Du        
  34012 ****       121.7500 153.2500 123.0000 Du        
  34013 ****       121.7500 153.2500 123.2500 Du        
  34014 ****       121.7500 153.2500 123.5000 Du        
  34015 ****       121.7500 153.2500 123.7500 Du        
  34016 ****       121.7500 153.2500 124.0000 Du        
  34017 ****       121.7500 153.2500 124.2500 Du        
  34018 ****       121.7500 153.2500 124.5000 Du        
  34019 ****       121.7500 153.2500 124.7500 Du        
  34020 ****       121.7500 153.5000 123.0000 Du        
  34021 ****       121.7500 153.5000 123.2500 Du        
  34022 ****       121.7500 153.5000 123.5000 Du        
  34023 ****       121.7500 153.5000 123.7500 Du        
  34024 ****       121.7500 153.5000 124.0000 Du        
  34025 ****       121.7500 153.5000 124.2500 Du        
  34026 ****       121.7500 153.7500 123.0000 Du        
  34027 ****       121.7500 153.7500 123.2500 Du        
  34028 ****       121.7500 153.7500 123.5000 Du        
  34029 ****       121.7500 153.7500 123.7500 Du        
  34030 ****       121.7500 153.7500 124.0000 Du        
  34031 ****       121.7500 153.7500 124.2500 Du        
  34032 ****       121.7500 153.7500 124.5000 Du        
  34033 ****       121.7500 154.0000 123.0000 Du        
  34034 ****       121.7500 154.0000 123.2500 Du        
  34035 ****       121.7500 154.0000 123.5000 Du        
  34036 ****       121.7500 154.0000 123.7500 Du        
  34037 ****       121.7500 154.0000 124.0000 Du        
  34038 ****       121.7500 154.0000 124.2500 Du        
  34039 ****       121.7500 154.0000 124.5000 Du        
  34040 ****       121.7500 154.0000 124.7500 Du        
  34041 ****       121.7500 154.0000 125.0000 Du        
  34042 ****       121.7500 154.2500 123.0000 Du        
  34043 ****       121.7500 154.2500 123.2500 Du        
  34044 ****       121.7500 154.2500 123.5000 Du        
  34045 ****       121.7500 154.2500 123.7500 Du        
  34046 ****       121.7500 154.2500 124.0000 Du        
  34047 ****       121.7500 154.2500 124.2500 Du        
  34048 ****       121.7500 154.2500 124.5000 Du        
  34049 ****       121.7500 154.2500 124.7500 Du        
  34050 ****       121.7500 154.2500 125.0000 Du        
  34051 ****       121.7500 154.2500 125.2500 Du        
  34052 ****       121.7500 154.5000 123.0000 Du        
  34053 ****       121.7500 154.5000 123.2500 Du        
  34054 ****       121.7500 154.5000 123.5000 Du        
  34055 ****       121.7500 154.5000 123.7500 Du        
  34056 ****       121.7500 154.5000 124.0000 Du        
  34057 ****       121.7500 154.5000 124.2500 Du        
  34058 ****       121.7500 154.5000 124.5000 Du        
  34059 ****       121.7500 154.5000 124.7500 Du        
  34060 ****       121.7500 154.5000 125.0000 Du        
  34061 ****       121.7500 154.5000 125.2500 Du        
  34062 ****       121.7500 154.5000 135.0000 Du        
  34063 ****       121.7500 154.5000 136.2500 Du        
  34064 ****       121.7500 154.7500 123.0000 Du        
  34065 ****       121.7500 154.7500 123.2500 Du        
  34066 ****       121.7500 154.7500 123.5000 Du        
  34067 ****       121.7500 154.7500 123.7500 Du        
  34068 ****       121.7500 154.7500 124.0000 Du        
  34069 ****       121.7500 154.7500 124.2500 Du        
  34070 ****       121.7500 154.7500 124.5000 Du        
  34071 ****       121.7500 154.7500 124.7500 Du        
  34072 ****       121.7500 154.7500 125.0000 Du        
  34073 ****       121.7500 154.7500 125.2500 Du        
  34074 ****       121.7500 154.7500 125.5000 Du        
  34075 ****       121.7500 154.7500 125.7500 Du        
  34076 ****       121.7500 154.7500 126.0000 Du        
  34077 ****       121.7500 154.7500 126.2500 Du        
  34078 ****       121.7500 154.7500 134.7500 Du        
  34079 ****       121.7500 154.7500 135.0000 Du        
  34080 ****       121.7500 154.7500 135.2500 Du        
  34081 ****       121.7500 154.7500 135.5000 Du        
  34082 ****       121.7500 154.7500 135.7500 Du        
  34083 ****       121.7500 154.7500 136.0000 Du        
  34084 ****       121.7500 154.7500 136.2500 Du        
  34085 ****       121.7500 155.0000 123.2500 Du        
  34086 ****       121.7500 155.0000 123.5000 Du        
  34087 ****       121.7500 155.0000 123.7500 Du        
  34088 ****       121.7500 155.0000 124.0000 Du        
  34089 ****       121.7500 155.0000 124.2500 Du        
  34090 ****       121.7500 155.0000 124.5000 Du        
  34091 ****       121.7500 155.0000 124.7500 Du        
  34092 ****       121.7500 155.0000 125.0000 Du        
  34093 ****       121.7500 155.0000 125.2500 Du        
  34094 ****       121.7500 155.0000 125.5000 Du        
  34095 ****       121.7500 155.0000 125.7500 Du        
  34096 ****       121.7500 155.0000 126.0000 Du        
  34097 ****       121.7500 155.0000 126.2500 Du        
  34098 ****       121.7500 155.0000 134.5000 Du        
  34099 ****       121.7500 155.0000 134.7500 Du        
  34100 ****       121.7500 155.0000 135.0000 Du        
  34101 ****       121.7500 155.0000 135.2500 Du        
  34102 ****       121.7500 155.0000 135.5000 Du        
  34103 ****       121.7500 155.0000 135.7500 Du        
  34104 ****       121.7500 155.0000 136.0000 Du        
  34105 ****       121.7500 155.0000 136.2500 Du        
  34106 ****       121.7500 155.0000 136.5000 Du        
  34107 ****       121.7500 155.2500 123.7500 Du        
  34108 ****       121.7500 155.2500 124.0000 Du        
  34109 ****       121.7500 155.2500 124.2500 Du        
  34110 ****       121.7500 155.2500 124.5000 Du        
  34111 ****       121.7500 155.2500 124.7500 Du        
  34112 ****       121.7500 155.2500 125.0000 Du        
  34113 ****       121.7500 155.2500 125.2500 Du        
  34114 ****       121.7500 155.2500 125.5000 Du        
  34115 ****       121.7500 155.2500 125.7500 Du        
  34116 ****       121.7500 155.2500 126.0000 Du        
  34117 ****       121.7500 155.2500 126.2500 Du        
  34118 ****       121.7500 155.2500 126.5000 Du        
  34119 ****       121.7500 155.2500 126.7500 Du        
  34120 ****       121.7500 155.2500 134.7500 Du        
  34121 ****       121.7500 155.2500 135.0000 Du        
  34122 ****       121.7500 155.2500 135.2500 Du        
  34123 ****       121.7500 155.2500 135.5000 Du        
  34124 ****       121.7500 155.2500 135.7500 Du        
  34125 ****       121.7500 155.2500 136.0000 Du        
  34126 ****       121.7500 155.2500 136.2500 Du        
  34127 ****       121.7500 155.2500 136.5000 Du        
  34128 ****       121.7500 155.5000 124.5000 Du        
  34129 ****       121.7500 155.5000 124.7500 Du        
  34130 ****       121.7500 155.5000 125.0000 Du        
  34131 ****       121.7500 155.5000 125.2500 Du        
  34132 ****       121.7500 155.5000 125.5000 Du        
  34133 ****       121.7500 155.5000 125.7500 Du        
  34134 ****       121.7500 155.5000 126.0000 Du        
  34135 ****       121.7500 155.5000 126.2500 Du        
  34136 ****       121.7500 155.5000 134.7500 Du        
  34137 ****       121.7500 155.5000 135.0000 Du        
  34138 ****       121.7500 155.5000 135.2500 Du        
  34139 ****       121.7500 155.5000 135.5000 Du        
  34140 ****       121.7500 155.5000 135.7500 Du        
  34141 ****       121.7500 155.5000 136.0000 Du        
  34142 ****       121.7500 155.5000 136.2500 Du        
  34143 ****       121.7500 155.5000 136.5000 Du        
  34144 ****       121.7500 155.5000 136.7500 Du        
  34145 ****       121.7500 155.7500 124.7500 Du        
  34146 ****       121.7500 155.7500 125.0000 Du        
  34147 ****       121.7500 155.7500 125.2500 Du        
  34148 ****       121.7500 155.7500 125.5000 Du        
  34149 ****       121.7500 155.7500 125.7500 Du        
  34150 ****       121.7500 155.7500 126.0000 Du        
  34151 ****       121.7500 155.7500 126.2500 Du        
  34152 ****       121.7500 155.7500 126.5000 Du        
  34153 ****       121.7500 155.7500 126.7500 Du        
  34154 ****       121.7500 155.7500 127.0000 Du        
  34155 ****       121.7500 155.7500 134.7500 Du        
  34156 ****       121.7500 155.7500 135.0000 Du        
  34157 ****       121.7500 155.7500 135.2500 Du        
  34158 ****       121.7500 155.7500 135.5000 Du        
  34159 ****       121.7500 155.7500 135.7500 Du        
  34160 ****       121.7500 155.7500 136.0000 Du        
  34161 ****       121.7500 155.7500 136.2500 Du        
  34162 ****       121.7500 155.7500 136.5000 Du        
  34163 ****       121.7500 155.7500 136.7500 Du        
  34164 ****       121.7500 156.0000 119.5000 Du        
  34165 ****       121.7500 156.0000 119.7500 Du        
  34166 ****       121.7500 156.0000 125.0000 Du        
  34167 ****       121.7500 156.0000 125.2500 Du        
  34168 ****       121.7500 156.0000 125.5000 Du        
  34169 ****       121.7500 156.0000 125.7500 Du        
  34170 ****       121.7500 156.0000 126.0000 Du        
  34171 ****       121.7500 156.0000 126.2500 Du        
  34172 ****       121.7500 156.0000 126.5000 Du        
  34173 ****       121.7500 156.0000 126.7500 Du        
  34174 ****       121.7500 156.0000 127.0000 Du        
  34175 ****       121.7500 156.0000 134.7500 Du        
  34176 ****       121.7500 156.0000 135.0000 Du        
  34177 ****       121.7500 156.0000 135.2500 Du        
  34178 ****       121.7500 156.0000 135.5000 Du        
  34179 ****       121.7500 156.0000 135.7500 Du        
  34180 ****       121.7500 156.0000 136.0000 Du        
  34181 ****       121.7500 156.0000 136.2500 Du        
  34182 ****       121.7500 156.0000 136.5000 Du        
  34183 ****       121.7500 156.0000 145.2500 Du        
  34184 ****       121.7500 156.0000 145.5000 Du        
  34185 ****       121.7500 156.0000 145.7500 Du        
  34186 ****       121.7500 156.2500 116.7500 Du        
  34187 ****       121.7500 156.2500 117.0000 Du        
  34188 ****       121.7500 156.2500 117.2500 Du        
  34189 ****       121.7500 156.2500 117.5000 Du        
  34190 ****       121.7500 156.2500 117.7500 Du        
  34191 ****       121.7500 156.2500 118.0000 Du        
  34192 ****       121.7500 156.2500 118.2500 Du        
  34193 ****       121.7500 156.2500 118.5000 Du        
  34194 ****       121.7500 156.2500 118.7500 Du        
  34195 ****       121.7500 156.2500 119.0000 Du        
  34196 ****       121.7500 156.2500 119.2500 Du        
  34197 ****       121.7500 156.2500 119.5000 Du        
  34198 ****       121.7500 156.2500 119.7500 Du        
  34199 ****       121.7500 156.2500 120.0000 Du        
  34200 ****       121.7500 156.2500 120.2500 Du        
  34201 ****       121.7500 156.2500 125.0000 Du        
  34202 ****       121.7500 156.2500 125.2500 Du        
  34203 ****       121.7500 156.2500 125.5000 Du        
  34204 ****       121.7500 156.2500 125.7500 Du        
  34205 ****       121.7500 156.2500 126.0000 Du        
  34206 ****       121.7500 156.2500 126.2500 Du        
  34207 ****       121.7500 156.2500 126.5000 Du        
  34208 ****       121.7500 156.2500 126.7500 Du        
  34209 ****       121.7500 156.2500 127.0000 Du        
  34210 ****       121.7500 156.2500 135.0000 Du        
  34211 ****       121.7500 156.2500 135.2500 Du        
  34212 ****       121.7500 156.2500 135.5000 Du        
  34213 ****       121.7500 156.2500 135.7500 Du        
  34214 ****       121.7500 156.2500 136.0000 Du        
  34215 ****       121.7500 156.2500 136.2500 Du        
  34216 ****       121.7500 156.2500 136.5000 Du        
  34217 ****       121.7500 156.2500 145.5000 Du        
  34218 ****       121.7500 156.2500 145.7500 Du        
  34219 ****       121.7500 156.5000 117.2500 Du        
  34220 ****       121.7500 156.5000 117.5000 Du        
  34221 ****       121.7500 156.5000 117.7500 Du        
  34222 ****       121.7500 156.5000 118.0000 Du        
  34223 ****       121.7500 156.5000 118.2500 Du        
  34224 ****       121.7500 156.5000 118.5000 Du        
  34225 ****       121.7500 156.5000 118.7500 Du        
  34226 ****       121.7500 156.5000 119.0000 Du        
  34227 ****       121.7500 156.5000 119.2500 Du        
  34228 ****       121.7500 156.5000 119.5000 Du        
  34229 ****       121.7500 156.5000 119.7500 Du        
  34230 ****       121.7500 156.5000 120.0000 Du        
  34231 ****       121.7500 156.5000 120.2500 Du        
  34232 ****       121.7500 156.5000 120.5000 Du        
  34233 ****       121.7500 156.5000 125.2500 Du        
  34234 ****       121.7500 156.5000 125.5000 Du        
  34235 ****       121.7500 156.5000 125.7500 Du        
  34236 ****       121.7500 156.5000 126.0000 Du        
  34237 ****       121.7500 156.5000 126.2500 Du        
  34238 ****       121.7500 156.5000 126.5000 Du        
  34239 ****       121.7500 156.5000 126.7500 Du        
  34240 ****       121.7500 156.5000 127.0000 Du        
  34241 ****       121.7500 156.5000 135.0000 Du        
  34242 ****       121.7500 156.5000 135.2500 Du        
  34243 ****       121.7500 156.5000 135.5000 Du        
  34244 ****       121.7500 156.5000 135.7500 Du        
  34245 ****       121.7500 156.5000 136.0000 Du        
  34246 ****       121.7500 156.5000 136.2500 Du        
  34247 ****       121.7500 156.7500 117.0000 Du        
  34248 ****       121.7500 156.7500 117.2500 Du        
  34249 ****       121.7500 156.7500 117.5000 Du        
  34250 ****       121.7500 156.7500 117.7500 Du        
  34251 ****       121.7500 156.7500 118.0000 Du        
  34252 ****       121.7500 156.7500 118.2500 Du        
  34253 ****       121.7500 156.7500 118.5000 Du        
  34254 ****       121.7500 156.7500 118.7500 Du        
  34255 ****       121.7500 156.7500 119.0000 Du        
  34256 ****       121.7500 156.7500 119.2500 Du        
  34257 ****       121.7500 156.7500 119.5000 Du        
  34258 ****       121.7500 156.7500 119.7500 Du        
  34259 ****       121.7500 156.7500 120.0000 Du        
  34260 ****       121.7500 156.7500 120.2500 Du        
  34261 ****       121.7500 156.7500 120.5000 Du        
  34262 ****       121.7500 156.7500 125.2500 Du        
  34263 ****       121.7500 156.7500 125.5000 Du        
  34264 ****       121.7500 156.7500 125.7500 Du        
  34265 ****       121.7500 156.7500 126.0000 Du        
  34266 ****       121.7500 156.7500 126.2500 Du        
  34267 ****       121.7500 156.7500 126.5000 Du        
  34268 ****       121.7500 156.7500 126.7500 Du        
  34269 ****       121.7500 156.7500 127.0000 Du        
  34270 ****       121.7500 156.7500 135.0000 Du        
  34271 ****       121.7500 156.7500 135.2500 Du        
  34272 ****       121.7500 156.7500 135.5000 Du        
  34273 ****       121.7500 156.7500 135.7500 Du        
  34274 ****       121.7500 156.7500 136.0000 Du        
  34275 ****       121.7500 157.0000 117.0000 Du        
  34276 ****       121.7500 157.0000 117.2500 Du        
  34277 ****       121.7500 157.0000 117.5000 Du        
  34278 ****       121.7500 157.0000 117.7500 Du        
  34279 ****       121.7500 157.0000 118.0000 Du        
  34280 ****       121.7500 157.0000 118.2500 Du        
  34281 ****       121.7500 157.0000 118.5000 Du        
  34282 ****       121.7500 157.0000 118.7500 Du        
  34283 ****       121.7500 157.0000 119.0000 Du        
  34284 ****       121.7500 157.0000 119.2500 Du        
  34285 ****       121.7500 157.0000 119.5000 Du        
  34286 ****       121.7500 157.0000 119.7500 Du        
  34287 ****       121.7500 157.0000 120.0000 Du        
  34288 ****       121.7500 157.0000 120.2500 Du        
  34289 ****       121.7500 157.0000 125.5000 Du        
  34290 ****       121.7500 157.0000 125.7500 Du        
  34291 ****       121.7500 157.0000 126.0000 Du        
  34292 ****       121.7500 157.0000 126.2500 Du        
  34293 ****       121.7500 157.0000 126.5000 Du        
  34294 ****       121.7500 157.0000 126.7500 Du        
  34295 ****       121.7500 157.0000 127.0000 Du        
  34296 ****       121.7500 157.0000 135.0000 Du        
  34297 ****       121.7500 157.0000 135.2500 Du        
  34298 ****       121.7500 157.0000 135.5000 Du        
  34299 ****       121.7500 157.0000 135.7500 Du        
  34300 ****       121.7500 157.2500 117.2500 Du        
  34301 ****       121.7500 157.2500 117.5000 Du        
  34302 ****       121.7500 157.2500 117.7500 Du        
  34303 ****       121.7500 157.2500 118.0000 Du        
  34304 ****       121.7500 157.2500 118.2500 Du        
  34305 ****       121.7500 157.2500 118.5000 Du        
  34306 ****       121.7500 157.2500 118.7500 Du        
  34307 ****       121.7500 157.2500 119.0000 Du        
  34308 ****       121.7500 157.2500 119.2500 Du        
  34309 ****       121.7500 157.2500 119.5000 Du        
  34310 ****       121.7500 157.2500 119.7500 Du        
  34311 ****       121.7500 157.2500 120.0000 Du        
  34312 ****       121.7500 157.2500 125.7500 Du        
  34313 ****       121.7500 157.2500 126.0000 Du        
  34314 ****       121.7500 157.2500 126.2500 Du        
  34315 ****       121.7500 157.2500 126.5000 Du        
  34316 ****       121.7500 157.2500 126.7500 Du        
  34317 ****       121.7500 157.2500 127.0000 Du        
  34318 ****       121.7500 157.2500 127.2500 Du        
  34319 ****       121.7500 157.5000 117.2500 Du        
  34320 ****       121.7500 157.5000 117.7500 Du        
  34321 ****       121.7500 157.5000 118.0000 Du        
  34322 ****       121.7500 157.5000 126.0000 Du        
  34323 ****       121.7500 157.5000 126.2500 Du        
  34324 ****       121.7500 157.5000 126.5000 Du        
  34325 ****       121.7500 157.5000 126.7500 Du        
  34326 ****       121.7500 157.5000 127.0000 Du        
  34327 ****       121.7500 157.5000 127.2500 Du        
  34328 ****       121.7500 157.7500 126.2500 Du        
  34329 ****       121.7500 157.7500 126.5000 Du        
  34330 ****       121.7500 157.7500 126.7500 Du        
  34331 ****       121.7500 157.7500 127.0000 Du        
  34332 ****       121.7500 157.7500 127.2500 Du        
  34333 ****       121.7500 158.0000 126.7500 Du        
  34334 ****       121.7500 158.0000 127.0000 Du        
  34335 ****       122.0000 135.0000 129.7500 Du        
  34336 ****       122.0000 135.2500 129.7500 Du        
  34337 ****       122.0000 135.2500 130.0000 Du        
  34338 ****       122.0000 135.5000 129.7500 Du        
  34339 ****       122.0000 135.5000 130.0000 Du        
  34340 ****       122.0000 135.5000 130.2500 Du        
  34341 ****       122.0000 135.7500 130.0000 Du        
  34342 ****       122.0000 135.7500 130.2500 Du        
  34343 ****       122.0000 135.7500 130.5000 Du        
  34344 ****       122.0000 136.0000 130.0000 Du        
  34345 ****       122.0000 136.0000 130.2500 Du        
  34346 ****       122.0000 136.0000 130.5000 Du        
  34347 ****       122.0000 136.0000 130.7500 Du        
  34348 ****       122.0000 136.2500 130.5000 Du        
  34349 ****       122.0000 137.5000 114.5000 Du        
  34350 ****       122.0000 137.5000 114.7500 Du        
  34351 ****       122.0000 137.5000 115.0000 Du        
  34352 ****       122.0000 137.7500 114.2500 Du        
  34353 ****       122.0000 137.7500 114.5000 Du        
  34354 ****       122.0000 137.7500 114.7500 Du        
  34355 ****       122.0000 137.7500 115.0000 Du        
  34356 ****       122.0000 137.7500 115.2500 Du        
  34357 ****       122.0000 138.0000 114.0000 Du        
  34358 ****       122.0000 138.0000 114.2500 Du        
  34359 ****       122.0000 138.0000 114.5000 Du        
  34360 ****       122.0000 138.0000 114.7500 Du        
  34361 ****       122.0000 138.0000 115.0000 Du        
  34362 ****       122.0000 138.0000 115.2500 Du        
  34363 ****       122.0000 138.0000 115.5000 Du        
  34364 ****       122.0000 138.2500 114.0000 Du        
  34365 ****       122.0000 138.2500 114.2500 Du        
  34366 ****       122.0000 138.2500 114.5000 Du        
  34367 ****       122.0000 138.2500 114.7500 Du        
  34368 ****       122.0000 138.2500 115.0000 Du        
  34369 ****       122.0000 138.2500 115.2500 Du        
  34370 ****       122.0000 138.5000 114.2500 Du        
  34371 ****       122.0000 138.5000 114.5000 Du        
  34372 ****       122.0000 138.5000 114.7500 Du        
  34373 ****       122.0000 138.5000 115.0000 Du        
  34374 ****       122.0000 138.5000 125.7500 Du        
  34375 ****       122.0000 138.5000 126.0000 Du        
  34376 ****       122.0000 138.5000 126.2500 Du        
  34377 ****       122.0000 138.7500 125.7500 Du        
  34378 ****       122.0000 138.7500 126.0000 Du        
  34379 ****       122.0000 138.7500 126.2500 Du        
  34380 ****       122.0000 138.7500 126.5000 Du        
  34381 ****       122.0000 139.0000 125.7500 Du        
  34382 ****       122.0000 139.0000 126.0000 Du        
  34383 ****       122.0000 139.0000 126.2500 Du        
  34384 ****       122.0000 139.0000 126.5000 Du        
  34385 ****       122.0000 139.0000 126.7500 Du        
  34386 ****       122.0000 139.2500 125.7500 Du        
  34387 ****       122.0000 139.2500 126.0000 Du        
  34388 ****       122.0000 139.2500 126.2500 Du        
  34389 ****       122.0000 139.2500 126.5000 Du        
  34390 ****       122.0000 139.2500 126.7500 Du        
  34391 ****       122.0000 139.5000 126.0000 Du        
  34392 ****       122.0000 139.5000 126.2500 Du        
  34393 ****       122.0000 139.5000 126.5000 Du        
  34394 ****       122.0000 139.5000 126.7500 Du        
  34395 ****       122.0000 140.5000 117.7500 Du        
  34396 ****       122.0000 140.5000 118.0000 Du        
  34397 ****       122.0000 140.5000 118.2500 Du        
  34398 ****       122.0000 140.7500 117.5000 Du        
  34399 ****       122.0000 140.7500 117.7500 Du        
  34400 ****       122.0000 140.7500 118.0000 Du        
  34401 ****       122.0000 140.7500 118.2500 Du        
  34402 ****       122.0000 140.7500 118.5000 Du        
  34403 ****       122.0000 141.0000 117.5000 Du        
  34404 ****       122.0000 141.0000 117.7500 Du        
  34405 ****       122.0000 141.0000 118.0000 Du        
  34406 ****       122.0000 141.0000 118.2500 Du        
  34407 ****       122.0000 141.0000 118.5000 Du        
  34408 ****       122.0000 141.0000 118.7500 Du        
  34409 ****       122.0000 141.0000 119.0000 Du        
  34410 ****       122.0000 141.2500 117.7500 Du        
  34411 ****       122.0000 141.2500 118.0000 Du        
  34412 ****       122.0000 141.2500 118.2500 Du        
  34413 ****       122.0000 141.2500 118.5000 Du        
  34414 ****       122.0000 141.2500 118.7500 Du        
  34415 ****       122.0000 141.2500 119.0000 Du        
  34416 ****       122.0000 141.5000 117.7500 Du        
  34417 ****       122.0000 141.5000 118.0000 Du        
  34418 ****       122.0000 141.5000 118.2500 Du        
  34419 ****       122.0000 141.5000 118.5000 Du        
  34420 ****       122.0000 141.5000 118.7500 Du        
  34421 ****       122.0000 141.5000 119.0000 Du        
  34422 ****       122.0000 141.5000 119.2500 Du        
  34423 ****       122.0000 141.7500 118.0000 Du        
  34424 ****       122.0000 141.7500 118.2500 Du        
  34425 ****       122.0000 141.7500 118.5000 Du        
  34426 ****       122.0000 141.7500 118.7500 Du        
  34427 ****       122.0000 141.7500 119.0000 Du        
  34428 ****       122.0000 141.7500 119.2500 Du        
  34429 ****       122.0000 141.7500 119.5000 Du        
  34430 ****       122.0000 141.7500 119.7500 Du        
  34431 ****       122.0000 142.0000 118.2500 Du        
  34432 ****       122.0000 142.0000 118.5000 Du        
  34433 ****       122.0000 142.0000 118.7500 Du        
  34434 ****       122.0000 142.0000 119.0000 Du        
  34435 ****       122.0000 142.0000 119.2500 Du        
  34436 ****       122.0000 142.0000 119.5000 Du        
  34437 ****       122.0000 142.0000 119.7500 Du        
  34438 ****       122.0000 142.0000 120.0000 Du        
  34439 ****       122.0000 142.0000 120.2500 Du        
  34440 ****       122.0000 142.2500 118.5000 Du        
  34441 ****       122.0000 142.2500 118.7500 Du        
  34442 ****       122.0000 142.2500 119.0000 Du        
  34443 ****       122.0000 142.2500 119.2500 Du        
  34444 ****       122.0000 142.2500 119.5000 Du        
  34445 ****       122.0000 142.2500 119.7500 Du        
  34446 ****       122.0000 142.2500 120.0000 Du        
  34447 ****       122.0000 142.2500 120.2500 Du        
  34448 ****       122.0000 142.5000 118.7500 Du        
  34449 ****       122.0000 142.5000 119.0000 Du        
  34450 ****       122.0000 142.5000 119.2500 Du        
  34451 ****       122.0000 142.5000 119.5000 Du        
  34452 ****       122.0000 142.5000 119.7500 Du        
  34453 ****       122.0000 142.5000 120.0000 Du        
  34454 ****       122.0000 142.5000 120.2500 Du        
  34455 ****       122.0000 142.5000 120.5000 Du        
  34456 ****       122.0000 142.7500 118.7500 Du        
  34457 ****       122.0000 142.7500 119.0000 Du        
  34458 ****       122.0000 142.7500 119.2500 Du        
  34459 ****       122.0000 142.7500 119.5000 Du        
  34460 ****       122.0000 142.7500 119.7500 Du        
  34461 ****       122.0000 142.7500 120.0000 Du        
  34462 ****       122.0000 142.7500 120.2500 Du        
  34463 ****       122.0000 143.0000 119.0000 Du        
  34464 ****       122.0000 143.0000 119.2500 Du        
  34465 ****       122.0000 143.0000 119.5000 Du        
  34466 ****       122.0000 143.0000 119.7500 Du        
  34467 ****       122.0000 143.0000 120.0000 Du        
  34468 ****       122.0000 143.0000 120.2500 Du        
  34469 ****       122.0000 143.2500 119.0000 Du        
  34470 ****       122.0000 143.2500 119.2500 Du        
  34471 ****       122.0000 143.2500 119.5000 Du        
  34472 ****       122.0000 143.2500 119.7500 Du        
  34473 ****       122.0000 143.2500 120.0000 Du        
  34474 ****       122.0000 143.5000 119.0000 Du        
  34475 ****       122.0000 143.5000 119.2500 Du        
  34476 ****       122.0000 143.5000 119.5000 Du        
  34477 ****       122.0000 143.5000 119.7500 Du        
  34478 ****       122.0000 143.5000 120.0000 Du        
  34479 ****       122.0000 143.7500 119.0000 Du        
  34480 ****       122.0000 143.7500 119.2500 Du        
  34481 ****       122.0000 143.7500 119.5000 Du        
  34482 ****       122.0000 143.7500 119.7500 Du        
  34483 ****       122.0000 144.0000 119.0000 Du        
  34484 ****       122.0000 144.0000 119.2500 Du        
  34485 ****       122.0000 144.0000 119.5000 Du        
  34486 ****       122.0000 151.5000 122.7500 Du        
  34487 ****       122.0000 151.5000 123.0000 Du        
  34488 ****       122.0000 151.7500 122.7500 Du        
  34489 ****       122.0000 151.7500 123.0000 Du        
  34490 ****       122.0000 151.7500 123.2500 Du        
  34491 ****       122.0000 151.7500 123.5000 Du        
  34492 ****       122.0000 152.0000 122.7500 Du        
  34493 ****       122.0000 152.0000 123.0000 Du        
  34494 ****       122.0000 152.0000 123.2500 Du        
  34495 ****       122.0000 152.0000 123.5000 Du        
  34496 ****       122.0000 152.0000 123.7500 Du        
  34497 ****       122.0000 152.2500 122.7500 Du        
  34498 ****       122.0000 152.2500 123.0000 Du        
  34499 ****       122.0000 152.2500 123.2500 Du        
  34500 ****       122.0000 152.2500 123.5000 Du        
  34501 ****       122.0000 152.2500 123.7500 Du        
  34502 ****       122.0000 152.2500 124.0000 Du        
  34503 ****       122.0000 152.2500 124.2500 Du        
  34504 ****       122.0000 152.5000 122.7500 Du        
  34505 ****       122.0000 152.5000 123.0000 Du        
  34506 ****       122.0000 152.5000 123.2500 Du        
  34507 ****       122.0000 152.5000 123.5000 Du        
  34508 ****       122.0000 152.5000 123.7500 Du        
  34509 ****       122.0000 152.5000 124.0000 Du        
  34510 ****       122.0000 152.5000 124.2500 Du        
  34511 ****       122.0000 152.7500 122.7500 Du        
  34512 ****       122.0000 152.7500 123.0000 Du        
  34513 ****       122.0000 152.7500 123.2500 Du        
  34514 ****       122.0000 152.7500 123.5000 Du        
  34515 ****       122.0000 152.7500 123.7500 Du        
  34516 ****       122.0000 152.7500 124.0000 Du        
  34517 ****       122.0000 152.7500 124.2500 Du        
  34518 ****       122.0000 153.0000 122.5000 Du        
  34519 ****       122.0000 153.0000 122.7500 Du        
  34520 ****       122.0000 153.0000 123.0000 Du        
  34521 ****       122.0000 153.0000 123.2500 Du        
  34522 ****       122.0000 153.0000 123.5000 Du        
  34523 ****       122.0000 153.0000 123.7500 Du        
  34524 ****       122.0000 153.0000 124.0000 Du        
  34525 ****       122.0000 153.0000 124.2500 Du        
  34526 ****       122.0000 153.0000 124.5000 Du        
  34527 ****       122.0000 153.2500 122.7500 Du        
  34528 ****       122.0000 153.2500 123.0000 Du        
  34529 ****       122.0000 153.2500 123.2500 Du        
  34530 ****       122.0000 153.2500 123.5000 Du        
  34531 ****       122.0000 153.2500 123.7500 Du        
  34532 ****       122.0000 153.2500 124.0000 Du        
  34533 ****       122.0000 153.2500 124.2500 Du        
  34534 ****       122.0000 153.2500 124.5000 Du        
  34535 ****       122.0000 153.5000 122.7500 Du        
  34536 ****       122.0000 153.5000 123.0000 Du        
  34537 ****       122.0000 153.5000 123.2500 Du        
  34538 ****       122.0000 153.5000 123.5000 Du        
  34539 ****       122.0000 153.5000 123.7500 Du        
  34540 ****       122.0000 153.5000 124.0000 Du        
  34541 ****       122.0000 153.5000 124.2500 Du        
  34542 ****       122.0000 153.7500 122.7500 Du        
  34543 ****       122.0000 153.7500 123.0000 Du        
  34544 ****       122.0000 153.7500 123.2500 Du        
  34545 ****       122.0000 153.7500 123.5000 Du        
  34546 ****       122.0000 153.7500 123.7500 Du        
  34547 ****       122.0000 153.7500 124.0000 Du        
  34548 ****       122.0000 153.7500 124.2500 Du        
  34549 ****       122.0000 153.7500 124.5000 Du        
  34550 ****       122.0000 154.0000 122.7500 Du        
  34551 ****       122.0000 154.0000 123.0000 Du        
  34552 ****       122.0000 154.0000 123.2500 Du        
  34553 ****       122.0000 154.0000 123.5000 Du        
  34554 ****       122.0000 154.0000 123.7500 Du        
  34555 ****       122.0000 154.0000 124.0000 Du        
  34556 ****       122.0000 154.0000 124.2500 Du        
  34557 ****       122.0000 154.0000 124.5000 Du        
  34558 ****       122.0000 154.0000 124.7500 Du        
  34559 ****       122.0000 154.0000 125.0000 Du        
  34560 ****       122.0000 154.2500 122.7500 Du        
  34561 ****       122.0000 154.2500 123.0000 Du        
  34562 ****       122.0000 154.2500 123.2500 Du        
  34563 ****       122.0000 154.2500 123.5000 Du        
  34564 ****       122.0000 154.2500 123.7500 Du        
  34565 ****       122.0000 154.2500 124.0000 Du        
  34566 ****       122.0000 154.2500 124.2500 Du        
  34567 ****       122.0000 154.2500 124.5000 Du        
  34568 ****       122.0000 154.2500 124.7500 Du        
  34569 ****       122.0000 154.2500 125.0000 Du        
  34570 ****       122.0000 154.5000 122.7500 Du        
  34571 ****       122.0000 154.5000 123.0000 Du        
  34572 ****       122.0000 154.5000 123.2500 Du        
  34573 ****       122.0000 154.5000 123.5000 Du        
  34574 ****       122.0000 154.5000 123.7500 Du        
  34575 ****       122.0000 154.5000 124.0000 Du        
  34576 ****       122.0000 154.5000 124.2500 Du        
  34577 ****       122.0000 154.7500 123.0000 Du        
  34578 ****       122.0000 154.7500 123.2500 Du        
  34579 ****       122.0000 154.7500 123.5000 Du        
  34580 ****       122.0000 154.7500 123.7500 Du        
  34581 ****       122.0000 154.7500 124.0000 Du        
  34582 ****       122.0000 154.7500 124.2500 Du        
  34583 ****       122.0000 154.7500 124.5000 Du        
  34584 ****       122.0000 154.7500 124.7500 Du        
  34585 ****       122.0000 154.7500 125.0000 Du        
  34586 ****       122.0000 154.7500 125.2500 Du        
  34587 ****       122.0000 154.7500 134.7500 Du        
  34588 ****       122.0000 154.7500 135.0000 Du        
  34589 ****       122.0000 154.7500 135.2500 Du        
  34590 ****       122.0000 154.7500 135.7500 Du        
  34591 ****       122.0000 155.0000 123.7500 Du        
  34592 ****       122.0000 155.0000 124.0000 Du        
  34593 ****       122.0000 155.0000 124.2500 Du        
  34594 ****       122.0000 155.0000 124.5000 Du        
  34595 ****       122.0000 155.0000 124.7500 Du        
  34596 ****       122.0000 155.0000 125.0000 Du        
  34597 ****       122.0000 155.0000 125.2500 Du        
  34598 ****       122.0000 155.0000 125.7500 Du        
  34599 ****       122.0000 155.0000 126.0000 Du        
  34600 ****       122.0000 155.0000 134.7500 Du        
  34601 ****       122.0000 155.0000 135.0000 Du        
  34602 ****       122.0000 155.0000 135.2500 Du        
  34603 ****       122.0000 155.0000 135.5000 Du        
  34604 ****       122.0000 155.0000 135.7500 Du        
  34605 ****       122.0000 155.0000 136.0000 Du        
  34606 ****       122.0000 155.2500 124.2500 Du        
  34607 ****       122.0000 155.2500 124.7500 Du        
  34608 ****       122.0000 155.2500 125.0000 Du        
  34609 ****       122.0000 155.2500 125.2500 Du        
  34610 ****       122.0000 155.2500 125.5000 Du        
  34611 ****       122.0000 155.2500 125.7500 Du        
  34612 ****       122.0000 155.2500 126.0000 Du        
  34613 ****       122.0000 155.2500 126.2500 Du        
  34614 ****       122.0000 155.2500 126.5000 Du        
  34615 ****       122.0000 155.2500 134.7500 Du        
  34616 ****       122.0000 155.2500 135.0000 Du        
  34617 ****       122.0000 155.2500 135.2500 Du        
  34618 ****       122.0000 155.2500 135.5000 Du        
  34619 ****       122.0000 155.2500 135.7500 Du        
  34620 ****       122.0000 155.2500 136.0000 Du        
  34621 ****       122.0000 155.5000 125.0000 Du        
  34622 ****       122.0000 155.5000 125.2500 Du        
  34623 ****       122.0000 155.5000 125.5000 Du        
  34624 ****       122.0000 155.5000 125.7500 Du        
  34625 ****       122.0000 155.5000 126.0000 Du        
  34626 ****       122.0000 155.5000 126.2500 Du        
  34627 ****       122.0000 155.5000 126.5000 Du        
  34628 ****       122.0000 155.5000 126.7500 Du        
  34629 ****       122.0000 155.5000 134.7500 Du        
  34630 ****       122.0000 155.5000 135.0000 Du        
  34631 ****       122.0000 155.5000 135.2500 Du        
  34632 ****       122.0000 155.5000 135.5000 Du        
  34633 ****       122.0000 155.5000 135.7500 Du        
  34634 ****       122.0000 155.5000 136.0000 Du        
  34635 ****       122.0000 155.7500 118.0000 Du        
  34636 ****       122.0000 155.7500 118.7500 Du        
  34637 ****       122.0000 155.7500 119.0000 Du        
  34638 ****       122.0000 155.7500 119.2500 Du        
  34639 ****       122.0000 155.7500 119.5000 Du        
  34640 ****       122.0000 155.7500 119.7500 Du        
  34641 ****       122.0000 155.7500 120.0000 Du        
  34642 ****       122.0000 155.7500 125.0000 Du        
  34643 ****       122.0000 155.7500 125.2500 Du        
  34644 ****       122.0000 155.7500 125.5000 Du        
  34645 ****       122.0000 155.7500 125.7500 Du        
  34646 ****       122.0000 155.7500 126.0000 Du        
  34647 ****       122.0000 155.7500 126.2500 Du        
  34648 ****       122.0000 155.7500 126.5000 Du        
  34649 ****       122.0000 155.7500 126.7500 Du        
  34650 ****       122.0000 155.7500 134.7500 Du        
  34651 ****       122.0000 155.7500 135.0000 Du        
  34652 ****       122.0000 155.7500 135.2500 Du        
  34653 ****       122.0000 155.7500 135.5000 Du        
  34654 ****       122.0000 155.7500 135.7500 Du        
  34655 ****       122.0000 155.7500 136.0000 Du        
  34656 ****       122.0000 155.7500 145.2500 Du        
  34657 ****       122.0000 155.7500 145.5000 Du        
  34658 ****       122.0000 156.0000 117.0000 Du        
  34659 ****       122.0000 156.0000 117.2500 Du        
  34660 ****       122.0000 156.0000 117.5000 Du        
  34661 ****       122.0000 156.0000 117.7500 Du        
  34662 ****       122.0000 156.0000 118.0000 Du        
  34663 ****       122.0000 156.0000 118.2500 Du        
  34664 ****       122.0000 156.0000 118.5000 Du        
  34665 ****       122.0000 156.0000 118.7500 Du        
  34666 ****       122.0000 156.0000 119.0000 Du        
  34667 ****       122.0000 156.0000 119.2500 Du        
  34668 ****       122.0000 156.0000 119.5000 Du        
  34669 ****       122.0000 156.0000 119.7500 Du        
  34670 ****       122.0000 156.0000 120.0000 Du        
  34671 ****       122.0000 156.0000 120.2500 Du        
  34672 ****       122.0000 156.0000 125.0000 Du        
  34673 ****       122.0000 156.0000 125.2500 Du        
  34674 ****       122.0000 156.0000 125.5000 Du        
  34675 ****       122.0000 156.0000 125.7500 Du        
  34676 ****       122.0000 156.0000 126.0000 Du        
  34677 ****       122.0000 156.0000 126.2500 Du        
  34678 ****       122.0000 156.0000 126.5000 Du        
  34679 ****       122.0000 156.0000 126.7500 Du        
  34680 ****       122.0000 156.0000 127.0000 Du        
  34681 ****       122.0000 156.0000 134.7500 Du        
  34682 ****       122.0000 156.0000 135.0000 Du        
  34683 ****       122.0000 156.0000 135.2500 Du        
  34684 ****       122.0000 156.0000 135.5000 Du        
  34685 ****       122.0000 156.0000 135.7500 Du        
  34686 ****       122.0000 156.0000 136.0000 Du        
  34687 ****       122.0000 156.0000 145.2500 Du        
  34688 ****       122.0000 156.0000 145.5000 Du        
  34689 ****       122.0000 156.0000 145.7500 Du        
  34690 ****       122.0000 156.0000 146.0000 Du        
  34691 ****       122.0000 156.2500 116.7500 Du        
  34692 ****       122.0000 156.2500 117.0000 Du        
  34693 ****       122.0000 156.2500 117.2500 Du        
  34694 ****       122.0000 156.2500 117.5000 Du        
  34695 ****       122.0000 156.2500 117.7500 Du        
  34696 ****       122.0000 156.2500 118.0000 Du        
  34697 ****       122.0000 156.2500 118.2500 Du        
  34698 ****       122.0000 156.2500 118.5000 Du        
  34699 ****       122.0000 156.2500 118.7500 Du        
  34700 ****       122.0000 156.2500 119.0000 Du        
  34701 ****       122.0000 156.2500 119.2500 Du        
  34702 ****       122.0000 156.2500 119.5000 Du        
  34703 ****       122.0000 156.2500 119.7500 Du        
  34704 ****       122.0000 156.2500 120.0000 Du        
  34705 ****       122.0000 156.2500 120.2500 Du        
  34706 ****       122.0000 156.2500 120.5000 Du        
  34707 ****       122.0000 156.2500 125.2500 Du        
  34708 ****       122.0000 156.2500 125.5000 Du        
  34709 ****       122.0000 156.2500 125.7500 Du        
  34710 ****       122.0000 156.2500 126.0000 Du        
  34711 ****       122.0000 156.2500 126.2500 Du        
  34712 ****       122.0000 156.2500 126.5000 Du        
  34713 ****       122.0000 156.2500 126.7500 Du        
  34714 ****       122.0000 156.2500 127.0000 Du        
  34715 ****       122.0000 156.2500 135.0000 Du        
  34716 ****       122.0000 156.2500 135.2500 Du        
  34717 ****       122.0000 156.2500 135.5000 Du        
  34718 ****       122.0000 156.2500 135.7500 Du        
  34719 ****       122.0000 156.2500 136.0000 Du        
  34720 ****       122.0000 156.2500 145.5000 Du        
  34721 ****       122.0000 156.2500 145.7500 Du        
  34722 ****       122.0000 156.2500 146.0000 Du        
  34723 ****       122.0000 156.5000 117.0000 Du        
  34724 ****       122.0000 156.5000 117.2500 Du        
  34725 ****       122.0000 156.5000 117.5000 Du        
  34726 ****       122.0000 156.5000 117.7500 Du        
  34727 ****       122.0000 156.5000 118.0000 Du        
  34728 ****       122.0000 156.5000 118.2500 Du        
  34729 ****       122.0000 156.5000 118.5000 Du        
  34730 ****       122.0000 156.5000 118.7500 Du        
  34731 ****       122.0000 156.5000 119.0000 Du        
  34732 ****       122.0000 156.5000 119.2500 Du        
  34733 ****       122.0000 156.5000 119.5000 Du        
  34734 ****       122.0000 156.5000 119.7500 Du        
  34735 ****       122.0000 156.5000 120.0000 Du        
  34736 ****       122.0000 156.5000 120.2500 Du        
  34737 ****       122.0000 156.5000 125.5000 Du        
  34738 ****       122.0000 156.5000 125.7500 Du        
  34739 ****       122.0000 156.5000 126.0000 Du        
  34740 ****       122.0000 156.5000 126.2500 Du        
  34741 ****       122.0000 156.5000 126.5000 Du        
  34742 ****       122.0000 156.5000 126.7500 Du        
  34743 ****       122.0000 156.5000 127.0000 Du        
  34744 ****       122.0000 156.5000 135.0000 Du        
  34745 ****       122.0000 156.5000 135.2500 Du        
  34746 ****       122.0000 156.5000 135.5000 Du        
  34747 ****       122.0000 156.5000 135.7500 Du        
  34748 ****       122.0000 156.5000 136.0000 Du        
  34749 ****       122.0000 156.7500 117.0000 Du        
  34750 ****       122.0000 156.7500 117.2500 Du        
  34751 ****       122.0000 156.7500 117.5000 Du        
  34752 ****       122.0000 156.7500 117.7500 Du        
  34753 ****       122.0000 156.7500 118.0000 Du        
  34754 ****       122.0000 156.7500 118.2500 Du        
  34755 ****       122.0000 156.7500 118.5000 Du        
  34756 ****       122.0000 156.7500 118.7500 Du        
  34757 ****       122.0000 156.7500 119.0000 Du        
  34758 ****       122.0000 156.7500 119.2500 Du        
  34759 ****       122.0000 156.7500 119.5000 Du        
  34760 ****       122.0000 156.7500 119.7500 Du        
  34761 ****       122.0000 156.7500 120.0000 Du        
  34762 ****       122.0000 156.7500 120.2500 Du        
  34763 ****       122.0000 156.7500 125.7500 Du        
  34764 ****       122.0000 156.7500 126.0000 Du        
  34765 ****       122.0000 156.7500 126.2500 Du        
  34766 ****       122.0000 156.7500 126.5000 Du        
  34767 ****       122.0000 156.7500 126.7500 Du        
  34768 ****       122.0000 156.7500 127.0000 Du        
  34769 ****       122.0000 156.7500 135.0000 Du        
  34770 ****       122.0000 156.7500 135.2500 Du        
  34771 ****       122.0000 156.7500 135.5000 Du        
  34772 ****       122.0000 156.7500 135.7500 Du        
  34773 ****       122.0000 156.7500 136.0000 Du        
  34774 ****       122.0000 157.0000 117.0000 Du        
  34775 ****       122.0000 157.0000 117.2500 Du        
  34776 ****       122.0000 157.0000 117.5000 Du        
  34777 ****       122.0000 157.0000 117.7500 Du        
  34778 ****       122.0000 157.0000 118.0000 Du        
  34779 ****       122.0000 157.0000 118.2500 Du        
  34780 ****       122.0000 157.0000 118.5000 Du        
  34781 ****       122.0000 157.0000 118.7500 Du        
  34782 ****       122.0000 157.0000 119.0000 Du        
  34783 ****       122.0000 157.0000 119.2500 Du        
  34784 ****       122.0000 157.0000 119.5000 Du        
  34785 ****       122.0000 157.0000 119.7500 Du        
  34786 ****       122.0000 157.0000 120.0000 Du        
  34787 ****       122.0000 157.0000 120.2500 Du        
  34788 ****       122.0000 157.0000 125.7500 Du        
  34789 ****       122.0000 157.0000 126.0000 Du        
  34790 ****       122.0000 157.0000 126.2500 Du        
  34791 ****       122.0000 157.0000 126.5000 Du        
  34792 ****       122.0000 157.0000 126.7500 Du        
  34793 ****       122.0000 157.0000 127.0000 Du        
  34794 ****       122.0000 157.0000 127.2500 Du        
  34795 ****       122.0000 157.0000 135.0000 Du        
  34796 ****       122.0000 157.0000 135.2500 Du        
  34797 ****       122.0000 157.0000 135.5000 Du        
  34798 ****       122.0000 157.0000 135.7500 Du        
  34799 ****       122.0000 157.0000 136.0000 Du        
  34800 ****       122.0000 157.2500 117.0000 Du        
  34801 ****       122.0000 157.2500 117.2500 Du        
  34802 ****       122.0000 157.2500 117.5000 Du        
  34803 ****       122.0000 157.2500 117.7500 Du        
  34804 ****       122.0000 157.2500 118.0000 Du        
  34805 ****       122.0000 157.2500 118.2500 Du        
  34806 ****       122.0000 157.2500 118.5000 Du        
  34807 ****       122.0000 157.2500 118.7500 Du        
  34808 ****       122.0000 157.2500 119.0000 Du        
  34809 ****       122.0000 157.2500 119.2500 Du        
  34810 ****       122.0000 157.2500 119.5000 Du        
  34811 ****       122.0000 157.2500 119.7500 Du        
  34812 ****       122.0000 157.2500 120.0000 Du        
  34813 ****       122.0000 157.2500 126.0000 Du        
  34814 ****       122.0000 157.2500 126.2500 Du        
  34815 ****       122.0000 157.2500 126.5000 Du        
  34816 ****       122.0000 157.2500 126.7500 Du        
  34817 ****       122.0000 157.2500 127.0000 Du        
  34818 ****       122.0000 157.2500 127.2500 Du        
  34819 ****       122.0000 157.5000 117.2500 Du        
  34820 ****       122.0000 157.5000 117.5000 Du        
  34821 ****       122.0000 157.5000 117.7500 Du        
  34822 ****       122.0000 157.5000 118.0000 Du        
  34823 ****       122.0000 157.5000 118.2500 Du        
  34824 ****       122.0000 157.5000 118.5000 Du        
  34825 ****       122.0000 157.5000 118.7500 Du        
  34826 ****       122.0000 157.5000 119.0000 Du        
  34827 ****       122.0000 157.5000 119.2500 Du        
  34828 ****       122.0000 157.5000 119.5000 Du        
  34829 ****       122.0000 157.5000 126.2500 Du        
  34830 ****       122.0000 157.5000 126.5000 Du        
  34831 ****       122.0000 157.5000 126.7500 Du        
  34832 ****       122.0000 157.5000 127.0000 Du        
  34833 ****       122.0000 157.5000 127.2500 Du        
  34834 ****       122.0000 157.7500 117.2500 Du        
  34835 ****       122.0000 157.7500 117.5000 Du        
  34836 ****       122.0000 157.7500 117.7500 Du        
  34837 ****       122.0000 157.7500 126.5000 Du        
  34838 ****       122.0000 157.7500 126.7500 Du        
  34839 ****       122.0000 157.7500 127.0000 Du        
  34840 ****       122.0000 157.7500 127.2500 Du        
  34841 ****       122.0000 158.0000 117.0000 Du        
  34842 ****       122.0000 158.0000 117.2500 Du        
  34843 ****       122.0000 158.0000 126.7500 Du        
  34844 ****       122.0000 158.0000 127.0000 Du        
  34845 ****       122.2500 135.2500 130.0000 Du        
  34846 ****       122.2500 135.5000 130.2500 Du        
  34847 ****       122.2500 135.7500 130.2500 Du        
  34848 ****       122.2500 135.7500 130.5000 Du        
  34849 ****       122.2500 136.0000 130.2500 Du        
  34850 ****       122.2500 136.0000 130.5000 Du        
  34851 ****       122.2500 136.0000 130.7500 Du        
  34852 ****       122.2500 137.5000 114.2500 Du        
  34853 ****       122.2500 137.5000 114.5000 Du        
  34854 ****       122.2500 137.5000 114.7500 Du        
  34855 ****       122.2500 137.5000 115.0000 Du        
  34856 ****       122.2500 137.7500 114.0000 Du        
  34857 ****       122.2500 137.7500 114.2500 Du        
  34858 ****       122.2500 137.7500 114.5000 Du        
  34859 ****       122.2500 137.7500 114.7500 Du        
  34860 ****       122.2500 137.7500 115.0000 Du        
  34861 ****       122.2500 137.7500 115.2500 Du        
  34862 ****       122.2500 138.0000 113.7500 Du        
  34863 ****       122.2500 138.0000 114.0000 Du        
  34864 ****       122.2500 138.0000 114.2500 Du        
  34865 ****       122.2500 138.0000 114.5000 Du        
  34866 ****       122.2500 138.0000 114.7500 Du        
  34867 ****       122.2500 138.0000 115.0000 Du        
  34868 ****       122.2500 138.0000 115.2500 Du        
  34869 ****       122.2500 138.2500 113.7500 Du        
  34870 ****       122.2500 138.2500 114.0000 Du        
  34871 ****       122.2500 138.2500 114.2500 Du        
  34872 ****       122.2500 138.2500 114.5000 Du        
  34873 ****       122.2500 138.2500 114.7500 Du        
  34874 ****       122.2500 138.2500 115.0000 Du        
  34875 ****       122.2500 138.2500 115.2500 Du        
  34876 ****       122.2500 138.5000 113.7500 Du        
  34877 ****       122.2500 138.5000 114.0000 Du        
  34878 ****       122.2500 138.5000 114.2500 Du        
  34879 ****       122.2500 138.5000 114.5000 Du        
  34880 ****       122.2500 138.5000 114.7500 Du        
  34881 ****       122.2500 138.5000 115.0000 Du        
  34882 ****       122.2500 138.5000 115.2500 Du        
  34883 ****       122.2500 138.7500 114.0000 Du        
  34884 ****       122.2500 138.7500 114.2500 Du        
  34885 ****       122.2500 138.7500 114.5000 Du        
  34886 ****       122.2500 138.7500 114.7500 Du        
  34887 ****       122.2500 138.7500 115.0000 Du        
  34888 ****       122.2500 138.7500 115.2500 Du        
  34889 ****       122.2500 138.7500 126.0000 Du        
  34890 ****       122.2500 138.7500 126.2500 Du        
  34891 ****       122.2500 139.0000 125.7500 Du        
  34892 ****       122.2500 139.0000 126.0000 Du        
  34893 ****       122.2500 139.0000 126.2500 Du        
  34894 ****       122.2500 139.0000 126.5000 Du        
  34895 ****       122.2500 139.2500 126.0000 Du        
  34896 ****       122.2500 139.2500 126.2500 Du        
  34897 ****       122.2500 139.2500 126.5000 Du        
  34898 ****       122.2500 140.5000 117.7500 Du        
  34899 ****       122.2500 140.5000 118.0000 Du        
  34900 ****       122.2500 140.5000 118.2500 Du        
  34901 ****       122.2500 140.7500 117.5000 Du        
  34902 ****       122.2500 140.7500 117.7500 Du        
  34903 ****       122.2500 140.7500 118.0000 Du        
  34904 ****       122.2500 140.7500 118.2500 Du        
  34905 ****       122.2500 141.0000 117.7500 Du        
  34906 ****       122.2500 141.0000 118.0000 Du        
  34907 ****       122.2500 141.0000 118.2500 Du        
  34908 ****       122.2500 141.0000 118.7500 Du        
  34909 ****       122.2500 141.2500 118.0000 Du        
  34910 ****       122.2500 141.2500 118.2500 Du        
  34911 ****       122.2500 141.2500 118.7500 Du        
  34912 ****       122.2500 141.5000 118.5000 Du        
  34913 ****       122.2500 141.5000 118.7500 Du        
  34914 ****       122.2500 141.5000 119.0000 Du        
  34915 ****       122.2500 141.5000 119.2500 Du        
  34916 ****       122.2500 141.7500 118.7500 Du        
  34917 ****       122.2500 141.7500 119.0000 Du        
  34918 ****       122.2500 141.7500 119.2500 Du        
  34919 ****       122.2500 141.7500 119.5000 Du        
  34920 ****       122.2500 142.0000 118.7500 Du        
  34921 ****       122.2500 142.0000 119.0000 Du        
  34922 ****       122.2500 142.0000 119.2500 Du        
  34923 ****       122.2500 142.0000 119.5000 Du        
  34924 ****       122.2500 142.0000 119.7500 Du        
  34925 ****       122.2500 142.0000 120.0000 Du        
  34926 ****       122.2500 142.2500 119.0000 Du        
  34927 ****       122.2500 142.2500 119.2500 Du        
  34928 ****       122.2500 142.2500 119.5000 Du        
  34929 ****       122.2500 142.2500 119.7500 Du        
  34930 ****       122.2500 142.2500 120.0000 Du        
  34931 ****       122.2500 142.2500 120.2500 Du        
  34932 ****       122.2500 142.5000 119.2500 Du        
  34933 ****       122.2500 142.5000 119.5000 Du        
  34934 ****       122.2500 142.5000 119.7500 Du        
  34935 ****       122.2500 142.5000 120.0000 Du        
  34936 ****       122.2500 142.5000 120.2500 Du        
  34937 ****       122.2500 142.7500 119.2500 Du        
  34938 ****       122.2500 142.7500 119.5000 Du        
  34939 ****       122.2500 142.7500 119.7500 Du        
  34940 ****       122.2500 142.7500 120.0000 Du        
  34941 ****       122.2500 142.7500 120.2500 Du        
  34942 ****       122.2500 143.0000 119.2500 Du        
  34943 ****       122.2500 143.0000 119.5000 Du        
  34944 ****       122.2500 143.0000 119.7500 Du        
  34945 ****       122.2500 143.0000 120.0000 Du        
  34946 ****       122.2500 143.0000 120.2500 Du        
  34947 ****       122.2500 143.2500 119.2500 Du        
  34948 ****       122.2500 143.2500 119.5000 Du        
  34949 ****       122.2500 143.2500 119.7500 Du        
  34950 ****       122.2500 143.2500 120.0000 Du        
  34951 ****       122.2500 143.5000 119.2500 Du        
  34952 ****       122.2500 143.5000 119.5000 Du        
  34953 ****       122.2500 143.5000 119.7500 Du        
  34954 ****       122.2500 151.5000 122.0000 Du        
  34955 ****       122.2500 151.5000 122.2500 Du        
  34956 ****       122.2500 151.5000 122.5000 Du        
  34957 ****       122.2500 151.5000 122.7500 Du        
  34958 ****       122.2500 151.5000 123.0000 Du        
  34959 ****       122.2500 151.5000 123.2500 Du        
  34960 ****       122.2500 151.7500 122.0000 Du        
  34961 ****       122.2500 151.7500 122.2500 Du        
  34962 ****       122.2500 151.7500 122.5000 Du        
  34963 ****       122.2500 151.7500 122.7500 Du        
  34964 ****       122.2500 151.7500 123.0000 Du        
  34965 ****       122.2500 151.7500 123.2500 Du        
  34966 ****       122.2500 151.7500 123.5000 Du        
  34967 ****       122.2500 151.7500 123.7500 Du        
  34968 ****       122.2500 152.0000 122.0000 Du        
  34969 ****       122.2500 152.0000 122.2500 Du        
  34970 ****       122.2500 152.0000 122.5000 Du        
  34971 ****       122.2500 152.0000 122.7500 Du        
  34972 ****       122.2500 152.0000 123.0000 Du        
  34973 ****       122.2500 152.0000 123.2500 Du        
  34974 ****       122.2500 152.0000 123.5000 Du        
  34975 ****       122.2500 152.0000 123.7500 Du        
  34976 ****       122.2500 152.0000 124.0000 Du        
  34977 ****       122.2500 152.0000 124.2500 Du        
  34978 ****       122.2500 152.2500 122.0000 Du        
  34979 ****       122.2500 152.2500 122.2500 Du        
  34980 ****       122.2500 152.2500 122.5000 Du        
  34981 ****       122.2500 152.2500 122.7500 Du        
  34982 ****       122.2500 152.2500 123.0000 Du        
  34983 ****       122.2500 152.2500 123.2500 Du        
  34984 ****       122.2500 152.2500 123.5000 Du        
  34985 ****       122.2500 152.2500 123.7500 Du        
  34986 ****       122.2500 152.2500 124.0000 Du        
  34987 ****       122.2500 152.2500 124.2500 Du        
  34988 ****       122.2500 152.5000 122.2500 Du        
  34989 ****       122.2500 152.5000 122.5000 Du        
  34990 ****       122.2500 152.5000 122.7500 Du        
  34991 ****       122.2500 152.5000 123.0000 Du        
  34992 ****       122.2500 152.5000 123.2500 Du        
  34993 ****       122.2500 152.5000 123.5000 Du        
  34994 ****       122.2500 152.5000 123.7500 Du        
  34995 ****       122.2500 152.5000 124.0000 Du        
  34996 ****       122.2500 152.5000 124.2500 Du        
  34997 ****       122.2500 152.7500 122.2500 Du        
  34998 ****       122.2500 152.7500 122.5000 Du        
  34999 ****       122.2500 152.7500 122.7500 Du        
  35000 ****       122.2500 152.7500 123.0000 Du        
  35001 ****       122.2500 152.7500 123.2500 Du        
  35002 ****       122.2500 152.7500 123.5000 Du        
  35003 ****       122.2500 152.7500 123.7500 Du        
  35004 ****       122.2500 152.7500 124.0000 Du        
  35005 ****       122.2500 152.7500 124.2500 Du        
  35006 ****       122.2500 153.0000 122.2500 Du        
  35007 ****       122.2500 153.0000 122.5000 Du        
  35008 ****       122.2500 153.0000 122.7500 Du        
  35009 ****       122.2500 153.0000 123.0000 Du        
  35010 ****       122.2500 153.0000 123.2500 Du        
  35011 ****       122.2500 153.0000 123.5000 Du        
  35012 ****       122.2500 153.0000 123.7500 Du        
  35013 ****       122.2500 153.0000 124.0000 Du        
  35014 ****       122.2500 153.0000 124.2500 Du        
  35015 ****       122.2500 153.2500 122.2500 Du        
  35016 ****       122.2500 153.2500 122.5000 Du        
  35017 ****       122.2500 153.2500 122.7500 Du        
  35018 ****       122.2500 153.2500 123.0000 Du        
  35019 ****       122.2500 153.2500 123.2500 Du        
  35020 ****       122.2500 153.2500 123.5000 Du        
  35021 ****       122.2500 153.2500 123.7500 Du        
  35022 ****       122.2500 153.2500 124.0000 Du        
  35023 ****       122.2500 153.2500 124.2500 Du        
  35024 ****       122.2500 153.5000 122.5000 Du        
  35025 ****       122.2500 153.5000 122.7500 Du        
  35026 ****       122.2500 153.5000 123.0000 Du        
  35027 ****       122.2500 153.5000 123.2500 Du        
  35028 ****       122.2500 153.5000 123.5000 Du        
  35029 ****       122.2500 153.5000 123.7500 Du        
  35030 ****       122.2500 153.5000 124.0000 Du        
  35031 ****       122.2500 153.5000 124.2500 Du        
  35032 ****       122.2500 153.7500 122.5000 Du        
  35033 ****       122.2500 153.7500 122.7500 Du        
  35034 ****       122.2500 153.7500 123.0000 Du        
  35035 ****       122.2500 153.7500 123.2500 Du        
  35036 ****       122.2500 153.7500 123.5000 Du        
  35037 ****       122.2500 153.7500 123.7500 Du        
  35038 ****       122.2500 153.7500 124.0000 Du        
  35039 ****       122.2500 153.7500 124.2500 Du        
  35040 ****       122.2500 154.0000 122.5000 Du        
  35041 ****       122.2500 154.0000 122.7500 Du        
  35042 ****       122.2500 154.0000 123.0000 Du        
  35043 ****       122.2500 154.0000 123.2500 Du        
  35044 ****       122.2500 154.0000 123.5000 Du        
  35045 ****       122.2500 154.0000 123.7500 Du        
  35046 ****       122.2500 154.0000 124.0000 Du        
  35047 ****       122.2500 154.0000 124.2500 Du        
  35048 ****       122.2500 154.2500 122.7500 Du        
  35049 ****       122.2500 154.2500 123.0000 Du        
  35050 ****       122.2500 154.2500 123.2500 Du        
  35051 ****       122.2500 154.2500 123.5000 Du        
  35052 ****       122.2500 154.2500 123.7500 Du        
  35053 ****       122.2500 154.2500 124.0000 Du        
  35054 ****       122.2500 154.2500 124.2500 Du        
  35055 ****       122.2500 154.5000 123.0000 Du        
  35056 ****       122.2500 154.5000 123.2500 Du        
  35057 ****       122.2500 154.5000 123.5000 Du        
  35058 ****       122.2500 154.5000 123.7500 Du        
  35059 ****       122.2500 154.5000 124.0000 Du        
  35060 ****       122.2500 154.5000 124.2500 Du        
  35061 ****       122.2500 154.7500 123.2500 Du        
  35062 ****       122.2500 154.7500 123.5000 Du        
  35063 ****       122.2500 154.7500 123.7500 Du        
  35064 ****       122.2500 154.7500 124.0000 Du        
  35065 ****       122.2500 154.7500 124.2500 Du        
  35066 ****       122.2500 155.0000 124.7500 Du        
  35067 ****       122.2500 155.0000 125.0000 Du        
  35068 ****       122.2500 155.0000 125.2500 Du        
  35069 ****       122.2500 155.0000 125.7500 Du        
  35070 ****       122.2500 155.0000 134.7500 Du        
  35071 ****       122.2500 155.0000 135.0000 Du        
  35072 ****       122.2500 155.0000 135.2500 Du        
  35073 ****       122.2500 155.0000 135.5000 Du        
  35074 ****       122.2500 155.2500 125.0000 Du        
  35075 ****       122.2500 155.2500 125.2500 Du        
  35076 ****       122.2500 155.2500 125.5000 Du        
  35077 ****       122.2500 155.2500 125.7500 Du        
  35078 ****       122.2500 155.2500 126.0000 Du        
  35079 ****       122.2500 155.2500 134.7500 Du        
  35080 ****       122.2500 155.2500 135.0000 Du        
  35081 ****       122.2500 155.2500 135.2500 Du        
  35082 ****       122.2500 155.2500 135.5000 Du        
  35083 ****       122.2500 155.5000 118.2500 Du        
  35084 ****       122.2500 155.5000 125.2500 Du        
  35085 ****       122.2500 155.5000 125.5000 Du        
  35086 ****       122.2500 155.5000 125.7500 Du        
  35087 ****       122.2500 155.5000 126.0000 Du        
  35088 ****       122.2500 155.5000 126.2500 Du        
  35089 ****       122.2500 155.5000 126.5000 Du        
  35090 ****       122.2500 155.5000 126.7500 Du        
  35091 ****       122.2500 155.5000 134.7500 Du        
  35092 ****       122.2500 155.5000 135.0000 Du        
  35093 ****       122.2500 155.5000 135.2500 Du        
  35094 ****       122.2500 155.5000 135.5000 Du        
  35095 ****       122.2500 155.7500 117.7500 Du        
  35096 ****       122.2500 155.7500 118.0000 Du        
  35097 ****       122.2500 155.7500 118.2500 Du        
  35098 ****       122.2500 155.7500 118.5000 Du        
  35099 ****       122.2500 155.7500 118.7500 Du        
  35100 ****       122.2500 155.7500 119.0000 Du        
  35101 ****       122.2500 155.7500 119.2500 Du        
  35102 ****       122.2500 155.7500 119.5000 Du        
  35103 ****       122.2500 155.7500 119.7500 Du        
  35104 ****       122.2500 155.7500 125.2500 Du        
  35105 ****       122.2500 155.7500 125.5000 Du        
  35106 ****       122.2500 155.7500 125.7500 Du        
  35107 ****       122.2500 155.7500 126.0000 Du        
  35108 ****       122.2500 155.7500 126.2500 Du        
  35109 ****       122.2500 155.7500 126.5000 Du        
  35110 ****       122.2500 155.7500 126.7500 Du        
  35111 ****       122.2500 155.7500 134.7500 Du        
  35112 ****       122.2500 155.7500 135.0000 Du        
  35113 ****       122.2500 155.7500 135.2500 Du        
  35114 ****       122.2500 155.7500 135.5000 Du        
  35115 ****       122.2500 155.7500 145.2500 Du        
  35116 ****       122.2500 155.7500 145.5000 Du        
  35117 ****       122.2500 156.0000 117.0000 Du        
  35118 ****       122.2500 156.0000 117.2500 Du        
  35119 ****       122.2500 156.0000 117.5000 Du        
  35120 ****       122.2500 156.0000 117.7500 Du        
  35121 ****       122.2500 156.0000 118.0000 Du        
  35122 ****       122.2500 156.0000 118.2500 Du        
  35123 ****       122.2500 156.0000 118.5000 Du        
  35124 ****       122.2500 156.0000 118.7500 Du        
  35125 ****       122.2500 156.0000 119.0000 Du        
  35126 ****       122.2500 156.0000 119.2500 Du        
  35127 ****       122.2500 156.0000 119.5000 Du        
  35128 ****       122.2500 156.0000 119.7500 Du        
  35129 ****       122.2500 156.0000 120.0000 Du        
  35130 ****       122.2500 156.0000 120.2500 Du        
  35131 ****       122.2500 156.0000 125.5000 Du        
  35132 ****       122.2500 156.0000 125.7500 Du        
  35133 ****       122.2500 156.0000 126.0000 Du        
  35134 ****       122.2500 156.0000 126.2500 Du        
  35135 ****       122.2500 156.0000 126.5000 Du        
  35136 ****       122.2500 156.0000 126.7500 Du        
  35137 ****       122.2500 156.0000 134.7500 Du        
  35138 ****       122.2500 156.0000 135.0000 Du        
  35139 ****       122.2500 156.0000 135.2500 Du        
  35140 ****       122.2500 156.0000 135.5000 Du        
  35141 ****       122.2500 156.0000 145.2500 Du        
  35142 ****       122.2500 156.0000 145.5000 Du        
  35143 ****       122.2500 156.0000 145.7500 Du        
  35144 ****       122.2500 156.0000 146.0000 Du        
  35145 ****       122.2500 156.2500 117.0000 Du        
  35146 ****       122.2500 156.2500 117.2500 Du        
  35147 ****       122.2500 156.2500 117.5000 Du        
  35148 ****       122.2500 156.2500 117.7500 Du        
  35149 ****       122.2500 156.2500 118.0000 Du        
  35150 ****       122.2500 156.2500 118.2500 Du        
  35151 ****       122.2500 156.2500 118.5000 Du        
  35152 ****       122.2500 156.2500 118.7500 Du        
  35153 ****       122.2500 156.2500 119.0000 Du        
  35154 ****       122.2500 156.2500 119.2500 Du        
  35155 ****       122.2500 156.2500 119.5000 Du        
  35156 ****       122.2500 156.2500 119.7500 Du        
  35157 ****       122.2500 156.2500 120.0000 Du        
  35158 ****       122.2500 156.2500 120.2500 Du        
  35159 ****       122.2500 156.2500 125.7500 Du        
  35160 ****       122.2500 156.2500 126.0000 Du        
  35161 ****       122.2500 156.2500 126.2500 Du        
  35162 ****       122.2500 156.2500 126.5000 Du        
  35163 ****       122.2500 156.2500 126.7500 Du        
  35164 ****       122.2500 156.2500 127.0000 Du        
  35165 ****       122.2500 156.2500 135.0000 Du        
  35166 ****       122.2500 156.2500 135.2500 Du        
  35167 ****       122.2500 156.2500 135.5000 Du        
  35168 ****       122.2500 156.2500 135.7500 Du        
  35169 ****       122.2500 156.2500 145.5000 Du        
  35170 ****       122.2500 156.2500 145.7500 Du        
  35171 ****       122.2500 156.2500 146.0000 Du        
  35172 ****       122.2500 156.5000 117.0000 Du        
  35173 ****       122.2500 156.5000 117.2500 Du        
  35174 ****       122.2500 156.5000 117.5000 Du        
  35175 ****       122.2500 156.5000 117.7500 Du        
  35176 ****       122.2500 156.5000 118.0000 Du        
  35177 ****       122.2500 156.5000 118.2500 Du        
  35178 ****       122.2500 156.5000 118.5000 Du        
  35179 ****       122.2500 156.5000 118.7500 Du        
  35180 ****       122.2500 156.5000 119.0000 Du        
  35181 ****       122.2500 156.5000 119.2500 Du        
  35182 ****       122.2500 156.5000 119.5000 Du        
  35183 ****       122.2500 156.5000 119.7500 Du        
  35184 ****       122.2500 156.5000 120.0000 Du        
  35185 ****       122.2500 156.5000 120.2500 Du        
  35186 ****       122.2500 156.5000 125.7500 Du        
  35187 ****       122.2500 156.5000 126.0000 Du        
  35188 ****       122.2500 156.5000 126.2500 Du        
  35189 ****       122.2500 156.5000 126.5000 Du        
  35190 ****       122.2500 156.5000 126.7500 Du        
  35191 ****       122.2500 156.5000 127.0000 Du        
  35192 ****       122.2500 156.5000 135.0000 Du        
  35193 ****       122.2500 156.5000 135.2500 Du        
  35194 ****       122.2500 156.5000 135.5000 Du        
  35195 ****       122.2500 156.5000 135.7500 Du        
  35196 ****       122.2500 156.7500 117.0000 Du        
  35197 ****       122.2500 156.7500 117.2500 Du        
  35198 ****       122.2500 156.7500 117.5000 Du        
  35199 ****       122.2500 156.7500 117.7500 Du        
  35200 ****       122.2500 156.7500 118.0000 Du        
  35201 ****       122.2500 156.7500 118.2500 Du        
  35202 ****       122.2500 156.7500 118.5000 Du        
  35203 ****       122.2500 156.7500 118.7500 Du        
  35204 ****       122.2500 156.7500 119.0000 Du        
  35205 ****       122.2500 156.7500 119.2500 Du        
  35206 ****       122.2500 156.7500 119.5000 Du        
  35207 ****       122.2500 156.7500 119.7500 Du        
  35208 ****       122.2500 156.7500 120.0000 Du        
  35209 ****       122.2500 156.7500 126.0000 Du        
  35210 ****       122.2500 156.7500 126.2500 Du        
  35211 ****       122.2500 156.7500 126.5000 Du        
  35212 ****       122.2500 156.7500 126.7500 Du        
  35213 ****       122.2500 156.7500 127.0000 Du        
  35214 ****       122.2500 156.7500 135.0000 Du        
  35215 ****       122.2500 156.7500 135.2500 Du        
  35216 ****       122.2500 156.7500 135.5000 Du        
  35217 ****       122.2500 156.7500 135.7500 Du        
  35218 ****       122.2500 157.0000 117.2500 Du        
  35219 ****       122.2500 157.0000 117.5000 Du        
  35220 ****       122.2500 157.0000 117.7500 Du        
  35221 ****       122.2500 157.0000 118.0000 Du        
  35222 ****       122.2500 157.0000 118.2500 Du        
  35223 ****       122.2500 157.0000 118.5000 Du        
  35224 ****       122.2500 157.0000 118.7500 Du        
  35225 ****       122.2500 157.0000 119.0000 Du        
  35226 ****       122.2500 157.0000 119.2500 Du        
  35227 ****       122.2500 157.0000 119.5000 Du        
  35228 ****       122.2500 157.0000 119.7500 Du        
  35229 ****       122.2500 157.0000 120.0000 Du        
  35230 ****       122.2500 157.0000 126.2500 Du        
  35231 ****       122.2500 157.0000 126.5000 Du        
  35232 ****       122.2500 157.0000 126.7500 Du        
  35233 ****       122.2500 157.0000 127.0000 Du        
  35234 ****       122.2500 157.2500 117.2500 Du        
  35235 ****       122.2500 157.2500 117.5000 Du        
  35236 ****       122.2500 157.2500 117.7500 Du        
  35237 ****       122.2500 157.2500 118.0000 Du        
  35238 ****       122.2500 157.2500 118.2500 Du        
  35239 ****       122.2500 157.2500 118.5000 Du        
  35240 ****       122.2500 157.2500 118.7500 Du        
  35241 ****       122.2500 157.2500 119.0000 Du        
  35242 ****       122.2500 157.2500 119.2500 Du        
  35243 ****       122.2500 157.2500 119.5000 Du        
  35244 ****       122.2500 157.2500 119.7500 Du        
  35245 ****       122.2500 157.2500 126.2500 Du        
  35246 ****       122.2500 157.2500 126.5000 Du        
  35247 ****       122.2500 157.2500 126.7500 Du        
  35248 ****       122.2500 157.2500 127.0000 Du        
  35249 ****       122.2500 157.5000 117.2500 Du        
  35250 ****       122.2500 157.5000 117.5000 Du        
  35251 ****       122.2500 157.5000 117.7500 Du        
  35252 ****       122.2500 157.5000 118.0000 Du        
  35253 ****       122.2500 157.5000 118.2500 Du        
  35254 ****       122.2500 157.5000 118.5000 Du        
  35255 ****       122.2500 157.5000 118.7500 Du        
  35256 ****       122.2500 157.5000 119.0000 Du        
  35257 ****       122.2500 157.5000 126.5000 Du        
  35258 ****       122.2500 157.5000 126.7500 Du        
  35259 ****       122.2500 157.5000 127.0000 Du        
  35260 ****       122.2500 157.7500 126.7500 Du        
  35261 ****       122.2500 157.7500 127.0000 Du        
  35262 ****       122.5000 135.7500 130.5000 Du        
  35263 ****       122.5000 136.0000 130.5000 Du        
  35264 ****       122.5000 136.0000 130.7500 Du        
  35265 ****       122.5000 137.5000 114.0000 Du        
  35266 ****       122.5000 137.5000 114.2500 Du        
  35267 ****       122.5000 137.7500 113.7500 Du        
  35268 ****       122.5000 137.7500 114.0000 Du        
  35269 ****       122.5000 137.7500 114.2500 Du        
  35270 ****       122.5000 137.7500 114.5000 Du        
  35271 ****       122.5000 137.7500 114.7500 Du        
  35272 ****       122.5000 137.7500 115.0000 Du        
  35273 ****       122.5000 138.0000 113.7500 Du        
  35274 ****       122.5000 138.0000 114.0000 Du        
  35275 ****       122.5000 138.0000 114.2500 Du        
  35276 ****       122.5000 138.0000 114.5000 Du        
  35277 ****       122.5000 138.0000 114.7500 Du        
  35278 ****       122.5000 138.0000 115.0000 Du        
  35279 ****       122.5000 138.0000 115.2500 Du        
  35280 ****       122.5000 138.2500 113.7500 Du        
  35281 ****       122.5000 138.2500 114.0000 Du        
  35282 ****       122.5000 138.2500 114.2500 Du        
  35283 ****       122.5000 138.2500 114.5000 Du        
  35284 ****       122.5000 138.2500 114.7500 Du        
  35285 ****       122.5000 138.2500 115.0000 Du        
  35286 ****       122.5000 138.2500 115.2500 Du        
  35287 ****       122.5000 138.5000 113.7500 Du        
  35288 ****       122.5000 138.5000 114.0000 Du        
  35289 ****       122.5000 138.5000 114.2500 Du        
  35290 ****       122.5000 138.5000 114.5000 Du        
  35291 ****       122.5000 138.5000 114.7500 Du        
  35292 ****       122.5000 138.5000 115.0000 Du        
  35293 ****       122.5000 138.5000 115.2500 Du        
  35294 ****       122.5000 138.5000 115.5000 Du        
  35295 ****       122.5000 138.7500 113.7500 Du        
  35296 ****       122.5000 138.7500 114.0000 Du        
  35297 ****       122.5000 138.7500 114.2500 Du        
  35298 ****       122.5000 138.7500 114.5000 Du        
  35299 ****       122.5000 138.7500 114.7500 Du        
  35300 ****       122.5000 138.7500 115.0000 Du        
  35301 ****       122.5000 138.7500 115.2500 Du        
  35302 ****       122.5000 138.7500 115.5000 Du        
  35303 ****       122.5000 138.7500 115.7500 Du        
  35304 ****       122.5000 139.0000 114.0000 Du        
  35305 ****       122.5000 139.0000 114.2500 Du        
  35306 ****       122.5000 139.0000 114.5000 Du        
  35307 ****       122.5000 139.0000 114.7500 Du        
  35308 ****       122.5000 139.0000 115.0000 Du        
  35309 ****       122.5000 139.0000 115.2500 Du        
  35310 ****       122.5000 139.0000 115.5000 Du        
  35311 ****       122.5000 139.0000 115.7500 Du        
  35312 ****       122.5000 139.0000 116.0000 Du        
  35313 ****       122.5000 139.2500 114.2500 Du        
  35314 ****       122.5000 141.7500 119.2500 Du        
  35315 ****       122.5000 141.7500 119.7500 Du        
  35316 ****       122.5000 142.0000 119.7500 Du        
  35317 ****       122.5000 142.0000 120.0000 Du        
  35318 ****       122.5000 142.2500 119.7500 Du        
  35319 ****       122.5000 142.2500 120.0000 Du        
  35320 ****       122.5000 142.2500 120.2500 Du        
  35321 ****       122.5000 142.5000 119.7500 Du        
  35322 ****       122.5000 142.5000 120.0000 Du        
  35323 ****       122.5000 142.5000 120.2500 Du        
  35324 ****       122.5000 142.7500 119.7500 Du        
  35325 ****       122.5000 142.7500 120.0000 Du        
  35326 ****       122.5000 142.7500 120.2500 Du        
  35327 ****       122.5000 143.0000 119.7500 Du        
  35328 ****       122.5000 143.0000 120.0000 Du        
  35329 ****       122.5000 151.2500 122.2500 Du        
  35330 ****       122.5000 151.2500 122.5000 Du        
  35331 ****       122.5000 151.2500 122.7500 Du        
  35332 ****       122.5000 151.2500 123.0000 Du        
  35333 ****       122.5000 151.2500 123.2500 Du        
  35334 ****       122.5000 151.5000 122.0000 Du        
  35335 ****       122.5000 151.5000 122.2500 Du        
  35336 ****       122.5000 151.5000 122.5000 Du        
  35337 ****       122.5000 151.5000 122.7500 Du        
  35338 ****       122.5000 151.5000 123.0000 Du        
  35339 ****       122.5000 151.5000 123.2500 Du        
  35340 ****       122.5000 151.5000 123.5000 Du        
  35341 ****       122.5000 151.7500 122.0000 Du        
  35342 ****       122.5000 151.7500 122.2500 Du        
  35343 ****       122.5000 151.7500 122.5000 Du        
  35344 ****       122.5000 151.7500 122.7500 Du        
  35345 ****       122.5000 151.7500 123.0000 Du        
  35346 ****       122.5000 151.7500 123.2500 Du        
  35347 ****       122.5000 151.7500 123.5000 Du        
  35348 ****       122.5000 151.7500 123.7500 Du        
  35349 ****       122.5000 152.0000 122.0000 Du        
  35350 ****       122.5000 152.0000 122.2500 Du        
  35351 ****       122.5000 152.0000 122.5000 Du        
  35352 ****       122.5000 152.0000 122.7500 Du        
  35353 ****       122.5000 152.0000 123.0000 Du        
  35354 ****       122.5000 152.0000 123.2500 Du        
  35355 ****       122.5000 152.0000 123.5000 Du        
  35356 ****       122.5000 152.0000 123.7500 Du        
  35357 ****       122.5000 152.0000 124.0000 Du        
  35358 ****       122.5000 152.2500 122.0000 Du        
  35359 ****       122.5000 152.2500 122.2500 Du        
  35360 ****       122.5000 152.2500 122.5000 Du        
  35361 ****       122.5000 152.2500 122.7500 Du        
  35362 ****       122.5000 152.2500 123.0000 Du        
  35363 ****       122.5000 152.2500 123.2500 Du        
  35364 ****       122.5000 152.2500 123.5000 Du        
  35365 ****       122.5000 152.2500 123.7500 Du        
  35366 ****       122.5000 152.2500 124.0000 Du        
  35367 ****       122.5000 152.2500 124.2500 Du        
  35368 ****       122.5000 152.5000 122.0000 Du        
  35369 ****       122.5000 152.5000 122.2500 Du        
  35370 ****       122.5000 152.5000 122.5000 Du        
  35371 ****       122.5000 152.5000 122.7500 Du        
  35372 ****       122.5000 152.5000 123.0000 Du        
  35373 ****       122.5000 152.5000 123.2500 Du        
  35374 ****       122.5000 152.5000 123.5000 Du        
  35375 ****       122.5000 152.5000 123.7500 Du        
  35376 ****       122.5000 152.5000 124.0000 Du        
  35377 ****       122.5000 152.5000 124.2500 Du        
  35378 ****       122.5000 152.7500 122.2500 Du        
  35379 ****       122.5000 152.7500 122.5000 Du        
  35380 ****       122.5000 152.7500 122.7500 Du        
  35381 ****       122.5000 152.7500 123.0000 Du        
  35382 ****       122.5000 152.7500 123.2500 Du        
  35383 ****       122.5000 152.7500 123.5000 Du        
  35384 ****       122.5000 152.7500 123.7500 Du        
  35385 ****       122.5000 152.7500 124.0000 Du        
  35386 ****       122.5000 152.7500 124.2500 Du        
  35387 ****       122.5000 153.0000 122.2500 Du        
  35388 ****       122.5000 153.0000 122.5000 Du        
  35389 ****       122.5000 153.0000 122.7500 Du        
  35390 ****       122.5000 153.0000 123.0000 Du        
  35391 ****       122.5000 153.0000 123.2500 Du        
  35392 ****       122.5000 153.0000 123.5000 Du        
  35393 ****       122.5000 153.0000 123.7500 Du        
  35394 ****       122.5000 153.0000 124.0000 Du        
  35395 ****       122.5000 153.0000 124.2500 Du        
  35396 ****       122.5000 153.2500 122.5000 Du        
  35397 ****       122.5000 153.2500 122.7500 Du        
  35398 ****       122.5000 153.2500 123.0000 Du        
  35399 ****       122.5000 153.2500 123.2500 Du        
  35400 ****       122.5000 153.2500 123.5000 Du        
  35401 ****       122.5000 153.2500 123.7500 Du        
  35402 ****       122.5000 153.2500 124.0000 Du        
  35403 ****       122.5000 153.2500 124.2500 Du        
  35404 ****       122.5000 153.5000 122.7500 Du        
  35405 ****       122.5000 153.5000 123.0000 Du        
  35406 ****       122.5000 153.5000 123.2500 Du        
  35407 ****       122.5000 153.5000 123.5000 Du        
  35408 ****       122.5000 153.5000 123.7500 Du        
  35409 ****       122.5000 153.5000 124.0000 Du        
  35410 ****       122.5000 153.5000 124.2500 Du        
  35411 ****       122.5000 153.7500 122.7500 Du        
  35412 ****       122.5000 153.7500 123.0000 Du        
  35413 ****       122.5000 153.7500 123.2500 Du        
  35414 ****       122.5000 153.7500 123.5000 Du        
  35415 ****       122.5000 153.7500 123.7500 Du        
  35416 ****       122.5000 153.7500 124.0000 Du        
  35417 ****       122.5000 153.7500 124.2500 Du        
  35418 ****       122.5000 154.0000 122.7500 Du        
  35419 ****       122.5000 154.0000 123.0000 Du        
  35420 ****       122.5000 154.0000 123.2500 Du        
  35421 ****       122.5000 154.0000 123.5000 Du        
  35422 ****       122.5000 154.0000 123.7500 Du        
  35423 ****       122.5000 154.0000 124.0000 Du        
  35424 ****       122.5000 154.0000 124.2500 Du        
  35425 ****       122.5000 154.2500 123.0000 Du        
  35426 ****       122.5000 154.2500 123.2500 Du        
  35427 ****       122.5000 154.2500 123.5000 Du        
  35428 ****       122.5000 154.2500 123.7500 Du        
  35429 ****       122.5000 154.2500 124.0000 Du        
  35430 ****       122.5000 155.0000 134.7500 Du        
  35431 ****       122.5000 155.2500 134.7500 Du        
  35432 ****       122.5000 155.2500 135.0000 Du        
  35433 ****       122.5000 155.5000 125.7500 Du        
  35434 ****       122.5000 155.5000 126.0000 Du        
  35435 ****       122.5000 155.5000 126.2500 Du        
  35436 ****       122.5000 155.5000 134.7500 Du        
  35437 ****       122.5000 155.5000 135.0000 Du        
  35438 ****       122.5000 155.5000 135.2500 Du        
  35439 ****       122.5000 155.7500 117.7500 Du        
  35440 ****       122.5000 155.7500 118.0000 Du        
  35441 ****       122.5000 155.7500 118.2500 Du        
  35442 ****       122.5000 155.7500 118.5000 Du        
  35443 ****       122.5000 155.7500 118.7500 Du        
  35444 ****       122.5000 155.7500 119.0000 Du        
  35445 ****       122.5000 155.7500 125.7500 Du        
  35446 ****       122.5000 155.7500 126.0000 Du        
  35447 ****       122.5000 155.7500 126.2500 Du        
  35448 ****       122.5000 155.7500 126.5000 Du        
  35449 ****       122.5000 155.7500 126.7500 Du        
  35450 ****       122.5000 155.7500 134.7500 Du        
  35451 ****       122.5000 155.7500 135.0000 Du        
  35452 ****       122.5000 155.7500 135.2500 Du        
  35453 ****       122.5000 155.7500 145.2500 Du        
  35454 ****       122.5000 155.7500 145.5000 Du        
  35455 ****       122.5000 155.7500 145.7500 Du        
  35456 ****       122.5000 156.0000 117.2500 Du        
  35457 ****       122.5000 156.0000 117.5000 Du        
  35458 ****       122.5000 156.0000 117.7500 Du        
  35459 ****       122.5000 156.0000 118.0000 Du        
  35460 ****       122.5000 156.0000 118.2500 Du        
  35461 ****       122.5000 156.0000 118.5000 Du        
  35462 ****       122.5000 156.0000 118.7500 Du        
  35463 ****       122.5000 156.0000 119.0000 Du        
  35464 ****       122.5000 156.0000 119.2500 Du        
  35465 ****       122.5000 156.0000 119.5000 Du        
  35466 ****       122.5000 156.0000 119.7500 Du        
  35467 ****       122.5000 156.0000 125.7500 Du        
  35468 ****       122.5000 156.0000 126.0000 Du        
  35469 ****       122.5000 156.0000 126.2500 Du        
  35470 ****       122.5000 156.0000 126.5000 Du        
  35471 ****       122.5000 156.0000 126.7500 Du        
  35472 ****       122.5000 156.0000 134.7500 Du        
  35473 ****       122.5000 156.0000 135.0000 Du        
  35474 ****       122.5000 156.0000 135.2500 Du        
  35475 ****       122.5000 156.0000 145.2500 Du        
  35476 ****       122.5000 156.0000 145.5000 Du        
  35477 ****       122.5000 156.0000 145.7500 Du        
  35478 ****       122.5000 156.0000 146.0000 Du        
  35479 ****       122.5000 156.0000 146.2500 Du        
  35480 ****       122.5000 156.2500 117.2500 Du        
  35481 ****       122.5000 156.2500 117.5000 Du        
  35482 ****       122.5000 156.2500 117.7500 Du        
  35483 ****       122.5000 156.2500 118.0000 Du        
  35484 ****       122.5000 156.2500 118.2500 Du        
  35485 ****       122.5000 156.2500 118.5000 Du        
  35486 ****       122.5000 156.2500 118.7500 Du        
  35487 ****       122.5000 156.2500 119.0000 Du        
  35488 ****       122.5000 156.2500 119.2500 Du        
  35489 ****       122.5000 156.2500 119.5000 Du        
  35490 ****       122.5000 156.2500 119.7500 Du        
  35491 ****       122.5000 156.2500 120.0000 Du        
  35492 ****       122.5000 156.2500 126.0000 Du        
  35493 ****       122.5000 156.2500 126.2500 Du        
  35494 ****       122.5000 156.2500 126.5000 Du        
  35495 ****       122.5000 156.2500 126.7500 Du        
  35496 ****       122.5000 156.2500 135.0000 Du        
  35497 ****       122.5000 156.2500 135.2500 Du        
  35498 ****       122.5000 156.2500 145.5000 Du        
  35499 ****       122.5000 156.2500 145.7500 Du        
  35500 ****       122.5000 156.2500 146.0000 Du        
  35501 ****       122.5000 156.2500 146.2500 Du        
  35502 ****       122.5000 156.5000 117.5000 Du        
  35503 ****       122.5000 156.5000 117.7500 Du        
  35504 ****       122.5000 156.5000 118.0000 Du        
  35505 ****       122.5000 156.5000 118.2500 Du        
  35506 ****       122.5000 156.5000 118.5000 Du        
  35507 ****       122.5000 156.5000 118.7500 Du        
  35508 ****       122.5000 156.5000 119.0000 Du        
  35509 ****       122.5000 156.5000 119.2500 Du        
  35510 ****       122.5000 156.5000 119.5000 Du        
  35511 ****       122.5000 156.5000 119.7500 Du        
  35512 ****       122.5000 156.5000 120.0000 Du        
  35513 ****       122.5000 156.5000 126.0000 Du        
  35514 ****       122.5000 156.5000 126.2500 Du        
  35515 ****       122.5000 156.5000 126.5000 Du        
  35516 ****       122.5000 156.5000 126.7500 Du        
  35517 ****       122.5000 156.5000 127.0000 Du        
  35518 ****       122.5000 156.7500 117.5000 Du        
  35519 ****       122.5000 156.7500 117.7500 Du        
  35520 ****       122.5000 156.7500 118.0000 Du        
  35521 ****       122.5000 156.7500 118.2500 Du        
  35522 ****       122.5000 156.7500 118.5000 Du        
  35523 ****       122.5000 156.7500 118.7500 Du        
  35524 ****       122.5000 156.7500 119.0000 Du        
  35525 ****       122.5000 156.7500 119.2500 Du        
  35526 ****       122.5000 156.7500 119.5000 Du        
  35527 ****       122.5000 156.7500 119.7500 Du        
  35528 ****       122.5000 156.7500 120.0000 Du        
  35529 ****       122.5000 156.7500 126.2500 Du        
  35530 ****       122.5000 156.7500 126.5000 Du        
  35531 ****       122.5000 156.7500 126.7500 Du        
  35532 ****       122.5000 156.7500 127.0000 Du        
  35533 ****       122.5000 157.0000 117.5000 Du        
  35534 ****       122.5000 157.0000 117.7500 Du        
  35535 ****       122.5000 157.0000 118.0000 Du        
  35536 ****       122.5000 157.0000 118.2500 Du        
  35537 ****       122.5000 157.0000 118.5000 Du        
  35538 ****       122.5000 157.0000 118.7500 Du        
  35539 ****       122.5000 157.0000 119.0000 Du        
  35540 ****       122.5000 157.0000 119.2500 Du        
  35541 ****       122.5000 157.0000 119.5000 Du        
  35542 ****       122.5000 157.0000 119.7500 Du        
  35543 ****       122.5000 157.0000 126.5000 Du        
  35544 ****       122.5000 157.0000 126.7500 Du        
  35545 ****       122.5000 157.0000 127.0000 Du        
  35546 ****       122.5000 157.2500 117.5000 Du        
  35547 ****       122.5000 157.2500 117.7500 Du        
  35548 ****       122.5000 157.2500 118.0000 Du        
  35549 ****       122.5000 157.2500 118.2500 Du        
  35550 ****       122.5000 157.2500 118.5000 Du        
  35551 ****       122.5000 157.2500 118.7500 Du        
  35552 ****       122.5000 157.2500 119.0000 Du        
  35553 ****       122.5000 157.2500 119.2500 Du        
  35554 ****       122.5000 157.2500 119.5000 Du        
  35555 ****       122.5000 157.2500 126.5000 Du        
  35556 ****       122.5000 157.2500 126.7500 Du        
  35557 ****       122.5000 157.2500 127.0000 Du        
  35558 ****       122.5000 157.5000 126.7500 Du        
  35559 ****       122.7500 137.2500 114.2500 Du        
  35560 ****       122.7500 137.5000 113.7500 Du        
  35561 ****       122.7500 137.5000 114.0000 Du        
  35562 ****       122.7500 137.5000 114.2500 Du        
  35563 ****       122.7500 137.5000 114.5000 Du        
  35564 ****       122.7500 137.7500 113.5000 Du        
  35565 ****       122.7500 137.7500 113.7500 Du        
  35566 ****       122.7500 137.7500 114.0000 Du        
  35567 ****       122.7500 137.7500 114.2500 Du        
  35568 ****       122.7500 137.7500 114.5000 Du        
  35569 ****       122.7500 137.7500 114.7500 Du        
  35570 ****       122.7500 137.7500 115.0000 Du        
  35571 ****       122.7500 138.0000 113.5000 Du        
  35572 ****       122.7500 138.0000 113.7500 Du        
  35573 ****       122.7500 138.0000 114.0000 Du        
  35574 ****       122.7500 138.0000 114.2500 Du        
  35575 ****       122.7500 138.0000 114.5000 Du        
  35576 ****       122.7500 138.0000 114.7500 Du        
  35577 ****       122.7500 138.0000 115.0000 Du        
  35578 ****       122.7500 138.0000 115.2500 Du        
  35579 ****       122.7500 138.2500 113.5000 Du        
  35580 ****       122.7500 138.2500 113.7500 Du        
  35581 ****       122.7500 138.2500 114.0000 Du        
  35582 ****       122.7500 138.2500 114.2500 Du        
  35583 ****       122.7500 138.2500 114.5000 Du        
  35584 ****       122.7500 138.2500 114.7500 Du        
  35585 ****       122.7500 138.2500 115.0000 Du        
  35586 ****       122.7500 138.2500 115.2500 Du        
  35587 ****       122.7500 138.5000 113.5000 Du        
  35588 ****       122.7500 138.5000 113.7500 Du        
  35589 ****       122.7500 138.5000 114.0000 Du        
  35590 ****       122.7500 138.5000 114.2500 Du        
  35591 ****       122.7500 138.5000 114.5000 Du        
  35592 ****       122.7500 138.5000 114.7500 Du        
  35593 ****       122.7500 138.5000 115.0000 Du        
  35594 ****       122.7500 138.5000 115.2500 Du        
  35595 ****       122.7500 138.5000 115.5000 Du        
  35596 ****       122.7500 138.5000 115.7500 Du        
  35597 ****       122.7500 138.7500 113.5000 Du        
  35598 ****       122.7500 138.7500 113.7500 Du        
  35599 ****       122.7500 138.7500 114.0000 Du        
  35600 ****       122.7500 138.7500 114.2500 Du        
  35601 ****       122.7500 138.7500 114.5000 Du        
  35602 ****       122.7500 138.7500 114.7500 Du        
  35603 ****       122.7500 138.7500 115.0000 Du        
  35604 ****       122.7500 138.7500 115.2500 Du        
  35605 ****       122.7500 138.7500 115.5000 Du        
  35606 ****       122.7500 138.7500 115.7500 Du        
  35607 ****       122.7500 138.7500 116.0000 Du        
  35608 ****       122.7500 139.0000 113.7500 Du        
  35609 ****       122.7500 139.0000 114.0000 Du        
  35610 ****       122.7500 139.0000 114.2500 Du        
  35611 ****       122.7500 139.0000 114.5000 Du        
  35612 ****       122.7500 139.0000 114.7500 Du        
  35613 ****       122.7500 139.0000 115.0000 Du        
  35614 ****       122.7500 139.0000 115.2500 Du        
  35615 ****       122.7500 139.0000 115.5000 Du        
  35616 ****       122.7500 139.0000 115.7500 Du        
  35617 ****       122.7500 139.0000 116.0000 Du        
  35618 ****       122.7500 139.2500 114.0000 Du        
  35619 ****       122.7500 139.2500 114.2500 Du        
  35620 ****       122.7500 139.2500 114.5000 Du        
  35621 ****       122.7500 139.2500 114.7500 Du        
  35622 ****       122.7500 139.2500 115.0000 Du        
  35623 ****       122.7500 139.2500 115.2500 Du        
  35624 ****       122.7500 139.2500 115.5000 Du        
  35625 ****       122.7500 139.2500 115.7500 Du        
  35626 ****       122.7500 139.2500 116.0000 Du        
  35627 ****       122.7500 142.0000 120.0000 Du        
  35628 ****       122.7500 142.2500 120.0000 Du        
  35629 ****       122.7500 142.5000 120.0000 Du        
  35630 ****       122.7500 151.0000 110.7500 Du        
  35631 ****       122.7500 151.0000 122.7500 Du        
  35632 ****       122.7500 151.2500 122.2500 Du        
  35633 ****       122.7500 151.2500 122.5000 Du        
  35634 ****       122.7500 151.2500 122.7500 Du        
  35635 ****       122.7500 151.2500 123.0000 Du        
  35636 ****       122.7500 151.2500 123.2500 Du        
  35637 ****       122.7500 151.2500 123.5000 Du        
  35638 ****       122.7500 151.2500 123.7500 Du        
  35639 ****       122.7500 151.5000 122.0000 Du        
  35640 ****       122.7500 151.5000 122.2500 Du        
  35641 ****       122.7500 151.5000 122.5000 Du        
  35642 ****       122.7500 151.5000 122.7500 Du        
  35643 ****       122.7500 151.5000 123.0000 Du        
  35644 ****       122.7500 151.5000 123.2500 Du        
  35645 ****       122.7500 151.5000 123.5000 Du        
  35646 ****       122.7500 151.5000 123.7500 Du        
  35647 ****       122.7500 151.5000 124.0000 Du        
  35648 ****       122.7500 151.7500 122.0000 Du        
  35649 ****       122.7500 151.7500 122.2500 Du        
  35650 ****       122.7500 151.7500 122.5000 Du        
  35651 ****       122.7500 151.7500 122.7500 Du        
  35652 ****       122.7500 151.7500 123.0000 Du        
  35653 ****       122.7500 151.7500 123.2500 Du        
  35654 ****       122.7500 151.7500 123.5000 Du        
  35655 ****       122.7500 151.7500 123.7500 Du        
  35656 ****       122.7500 151.7500 124.0000 Du        
  35657 ****       122.7500 151.7500 124.2500 Du        
  35658 ****       122.7500 152.0000 122.0000 Du        
  35659 ****       122.7500 152.0000 122.2500 Du        
  35660 ****       122.7500 152.0000 122.5000 Du        
  35661 ****       122.7500 152.0000 122.7500 Du        
  35662 ****       122.7500 152.0000 123.0000 Du        
  35663 ****       122.7500 152.0000 123.2500 Du        
  35664 ****       122.7500 152.0000 123.5000 Du        
  35665 ****       122.7500 152.0000 123.7500 Du        
  35666 ****       122.7500 152.0000 124.0000 Du        
  35667 ****       122.7500 152.0000 124.2500 Du        
  35668 ****       122.7500 152.2500 122.2500 Du        
  35669 ****       122.7500 152.2500 122.5000 Du        
  35670 ****       122.7500 152.2500 122.7500 Du        
  35671 ****       122.7500 152.2500 123.0000 Du        
  35672 ****       122.7500 152.2500 123.2500 Du        
  35673 ****       122.7500 152.2500 123.5000 Du        
  35674 ****       122.7500 152.2500 123.7500 Du        
  35675 ****       122.7500 152.2500 124.0000 Du        
  35676 ****       122.7500 152.2500 124.2500 Du        
  35677 ****       122.7500 152.5000 122.2500 Du        
  35678 ****       122.7500 152.5000 122.5000 Du        
  35679 ****       122.7500 152.5000 122.7500 Du        
  35680 ****       122.7500 152.5000 123.0000 Du        
  35681 ****       122.7500 152.5000 123.2500 Du        
  35682 ****       122.7500 152.5000 123.5000 Du        
  35683 ****       122.7500 152.5000 123.7500 Du        
  35684 ****       122.7500 152.5000 124.0000 Du        
  35685 ****       122.7500 152.5000 124.2500 Du        
  35686 ****       122.7500 152.7500 122.5000 Du        
  35687 ****       122.7500 152.7500 122.7500 Du        
  35688 ****       122.7500 152.7500 123.0000 Du        
  35689 ****       122.7500 152.7500 123.2500 Du        
  35690 ****       122.7500 152.7500 123.5000 Du        
  35691 ****       122.7500 152.7500 123.7500 Du        
  35692 ****       122.7500 152.7500 124.0000 Du        
  35693 ****       122.7500 152.7500 124.2500 Du        
  35694 ****       122.7500 153.0000 122.5000 Du        
  35695 ****       122.7500 153.0000 122.7500 Du        
  35696 ****       122.7500 153.0000 123.0000 Du        
  35697 ****       122.7500 153.0000 123.2500 Du        
  35698 ****       122.7500 153.0000 123.5000 Du        
  35699 ****       122.7500 153.0000 123.7500 Du        
  35700 ****       122.7500 153.0000 124.0000 Du        
  35701 ****       122.7500 153.0000 124.2500 Du        
  35702 ****       122.7500 153.2500 122.7500 Du        
  35703 ****       122.7500 153.2500 123.0000 Du        
  35704 ****       122.7500 153.2500 123.2500 Du        
  35705 ****       122.7500 153.2500 123.5000 Du        
  35706 ****       122.7500 153.2500 123.7500 Du        
  35707 ****       122.7500 153.2500 124.0000 Du        
  35708 ****       122.7500 153.2500 124.2500 Du        
  35709 ****       122.7500 153.5000 123.0000 Du        
  35710 ****       122.7500 153.5000 123.2500 Du        
  35711 ****       122.7500 153.5000 123.5000 Du        
  35712 ****       122.7500 153.5000 123.7500 Du        
  35713 ****       122.7500 153.5000 124.0000 Du        
  35714 ****       122.7500 153.5000 124.2500 Du        
  35715 ****       122.7500 153.7500 123.0000 Du        
  35716 ****       122.7500 153.7500 123.2500 Du        
  35717 ****       122.7500 153.7500 123.5000 Du        
  35718 ****       122.7500 153.7500 123.7500 Du        
  35719 ****       122.7500 153.7500 124.0000 Du        
  35720 ****       122.7500 153.7500 124.2500 Du        
  35721 ****       122.7500 154.0000 123.0000 Du        
  35722 ****       122.7500 154.0000 123.2500 Du        
  35723 ****       122.7500 154.0000 123.5000 Du        
  35724 ****       122.7500 154.0000 123.7500 Du        
  35725 ****       122.7500 154.0000 124.0000 Du        
  35726 ****       122.7500 154.0000 124.2500 Du        
  35727 ****       122.7500 154.2500 123.2500 Du        
  35728 ****       122.7500 154.2500 123.5000 Du        
  35729 ****       122.7500 154.2500 123.7500 Du        
  35730 ****       122.7500 155.5000 126.0000 Du        
  35731 ****       122.7500 155.5000 126.2500 Du        
  35732 ****       122.7500 155.5000 134.7500 Du        
  35733 ****       122.7500 155.7500 117.7500 Du        
  35734 ****       122.7500 155.7500 118.0000 Du        
  35735 ****       122.7500 155.7500 118.2500 Du        
  35736 ****       122.7500 155.7500 126.0000 Du        
  35737 ****       122.7500 155.7500 126.2500 Du        
  35738 ****       122.7500 155.7500 126.5000 Du        
  35739 ****       122.7500 155.7500 134.7500 Du        
  35740 ****       122.7500 155.7500 145.2500 Du        
  35741 ****       122.7500 155.7500 145.5000 Du        
  35742 ****       122.7500 155.7500 145.7500 Du        
  35743 ****       122.7500 155.7500 146.0000 Du        
  35744 ****       122.7500 156.0000 117.2500 Du        
  35745 ****       122.7500 156.0000 117.5000 Du        
  35746 ****       122.7500 156.0000 117.7500 Du        
  35747 ****       122.7500 156.0000 118.0000 Du        
  35748 ****       122.7500 156.0000 118.2500 Du        
  35749 ****       122.7500 156.0000 118.5000 Du        
  35750 ****       122.7500 156.0000 118.7500 Du        
  35751 ****       122.7500 156.0000 119.0000 Du        
  35752 ****       122.7500 156.0000 126.0000 Du        
  35753 ****       122.7500 156.0000 126.2500 Du        
  35754 ****       122.7500 156.0000 126.5000 Du        
  35755 ****       122.7500 156.0000 126.7500 Du        
  35756 ****       122.7500 156.0000 145.0000 Du        
  35757 ****       122.7500 156.0000 145.2500 Du        
  35758 ****       122.7500 156.0000 145.5000 Du        
  35759 ****       122.7500 156.0000 145.7500 Du        
  35760 ****       122.7500 156.0000 146.0000 Du        
  35761 ****       122.7500 156.0000 146.2500 Du        
  35762 ****       122.7500 156.2500 117.0000 Du        
  35763 ****       122.7500 156.2500 117.2500 Du        
  35764 ****       122.7500 156.2500 117.5000 Du        
  35765 ****       122.7500 156.2500 117.7500 Du        
  35766 ****       122.7500 156.2500 118.0000 Du        
  35767 ****       122.7500 156.2500 118.2500 Du        
  35768 ****       122.7500 156.2500 118.5000 Du        
  35769 ****       122.7500 156.2500 118.7500 Du        
  35770 ****       122.7500 156.2500 119.0000 Du        
  35771 ****       122.7500 156.2500 119.2500 Du        
  35772 ****       122.7500 156.2500 119.5000 Du        
  35773 ****       122.7500 156.2500 119.7500 Du        
  35774 ****       122.7500 156.2500 126.0000 Du        
  35775 ****       122.7500 156.2500 126.2500 Du        
  35776 ****       122.7500 156.2500 126.5000 Du        
  35777 ****       122.7500 156.2500 126.7500 Du        
  35778 ****       122.7500 156.2500 145.5000 Du        
  35779 ****       122.7500 156.2500 145.7500 Du        
  35780 ****       122.7500 156.2500 146.0000 Du        
  35781 ****       122.7500 156.2500 146.2500 Du        
  35782 ****       122.7500 156.5000 117.5000 Du        
  35783 ****       122.7500 156.5000 117.7500 Du        
  35784 ****       122.7500 156.5000 118.0000 Du        
  35785 ****       122.7500 156.5000 118.2500 Du        
  35786 ****       122.7500 156.5000 118.5000 Du        
  35787 ****       122.7500 156.5000 118.7500 Du        
  35788 ****       122.7500 156.5000 119.0000 Du        
  35789 ****       122.7500 156.5000 119.2500 Du        
  35790 ****       122.7500 156.5000 119.5000 Du        
  35791 ****       122.7500 156.5000 119.7500 Du        
  35792 ****       122.7500 156.5000 126.2500 Du        
  35793 ****       122.7500 156.5000 126.5000 Du        
  35794 ****       122.7500 156.5000 126.7500 Du        
  35795 ****       122.7500 156.7500 117.2500 Du        
  35796 ****       122.7500 156.7500 117.5000 Du        
  35797 ****       122.7500 156.7500 117.7500 Du        
  35798 ****       122.7500 156.7500 118.0000 Du        
  35799 ****       122.7500 156.7500 118.2500 Du        
  35800 ****       122.7500 156.7500 118.5000 Du        
  35801 ****       122.7500 156.7500 118.7500 Du        
  35802 ****       122.7500 156.7500 119.0000 Du        
  35803 ****       122.7500 156.7500 119.2500 Du        
  35804 ****       122.7500 156.7500 119.5000 Du        
  35805 ****       122.7500 156.7500 119.7500 Du        
  35806 ****       122.7500 156.7500 126.5000 Du        
  35807 ****       122.7500 156.7500 126.7500 Du        
  35808 ****       122.7500 157.0000 117.5000 Du        
  35809 ****       122.7500 157.0000 117.7500 Du        
  35810 ****       122.7500 157.0000 118.0000 Du        
  35811 ****       122.7500 157.0000 118.2500 Du        
  35812 ****       122.7500 157.0000 118.5000 Du        
  35813 ****       122.7500 157.0000 118.7500 Du        
  35814 ****       122.7500 157.0000 119.0000 Du        
  35815 ****       122.7500 157.0000 119.2500 Du        
  35816 ****       122.7500 157.0000 119.5000 Du        
  35817 ****       122.7500 157.0000 126.7500 Du        
  35818 ****       122.7500 157.2500 117.5000 Du        
  35819 ****       122.7500 157.2500 117.7500 Du        
  35820 ****       122.7500 157.2500 118.0000 Du        
  35821 ****       122.7500 157.2500 118.2500 Du        
  35822 ****       122.7500 157.2500 118.5000 Du        
  35823 ****       122.7500 157.2500 118.7500 Du        
  35824 ****       122.7500 157.2500 119.0000 Du        
  35825 ****       123.0000 136.7500 108.2500 Du        
  35826 ****       123.0000 136.7500 108.5000 Du        
  35827 ****       123.0000 137.0000 108.2500 Du        
  35828 ****       123.0000 137.0000 108.5000 Du        
  35829 ****       123.0000 137.2500 108.2500 Du        
  35830 ****       123.0000 137.2500 108.5000 Du        
  35831 ****       123.0000 137.2500 114.0000 Du        
  35832 ****       123.0000 137.5000 113.5000 Du        
  35833 ****       123.0000 137.5000 113.7500 Du        
  35834 ****       123.0000 137.5000 114.0000 Du        
  35835 ****       123.0000 137.5000 114.2500 Du        
  35836 ****       123.0000 137.5000 114.5000 Du        
  35837 ****       123.0000 137.7500 113.2500 Du        
  35838 ****       123.0000 137.7500 113.5000 Du        
  35839 ****       123.0000 137.7500 113.7500 Du        
  35840 ****       123.0000 137.7500 114.0000 Du        
  35841 ****       123.0000 137.7500 114.2500 Du        
  35842 ****       123.0000 137.7500 114.5000 Du        
  35843 ****       123.0000 137.7500 114.7500 Du        
  35844 ****       123.0000 137.7500 115.0000 Du        
  35845 ****       123.0000 138.0000 113.2500 Du        
  35846 ****       123.0000 138.0000 113.5000 Du        
  35847 ****       123.0000 138.0000 113.7500 Du        
  35848 ****       123.0000 138.0000 114.0000 Du        
  35849 ****       123.0000 138.0000 114.2500 Du        
  35850 ****       123.0000 138.0000 114.5000 Du        
  35851 ****       123.0000 138.0000 114.7500 Du        
  35852 ****       123.0000 138.0000 115.0000 Du        
  35853 ****       123.0000 138.0000 115.2500 Du        
  35854 ****       123.0000 138.2500 113.2500 Du        
  35855 ****       123.0000 138.2500 113.5000 Du        
  35856 ****       123.0000 138.2500 113.7500 Du        
  35857 ****       123.0000 138.2500 114.0000 Du        
  35858 ****       123.0000 138.2500 114.2500 Du        
  35859 ****       123.0000 138.2500 114.5000 Du        
  35860 ****       123.0000 138.2500 114.7500 Du        
  35861 ****       123.0000 138.2500 115.0000 Du        
  35862 ****       123.0000 138.2500 115.2500 Du        
  35863 ****       123.0000 138.5000 113.2500 Du        
  35864 ****       123.0000 138.5000 113.5000 Du        
  35865 ****       123.0000 138.5000 113.7500 Du        
  35866 ****       123.0000 138.5000 114.0000 Du        
  35867 ****       123.0000 138.5000 114.2500 Du        
  35868 ****       123.0000 138.5000 114.5000 Du        
  35869 ****       123.0000 138.5000 114.7500 Du        
  35870 ****       123.0000 138.5000 115.0000 Du        
  35871 ****       123.0000 138.5000 115.2500 Du        
  35872 ****       123.0000 138.5000 115.5000 Du        
  35873 ****       123.0000 138.5000 115.7500 Du        
  35874 ****       123.0000 138.5000 116.0000 Du        
  35875 ****       123.0000 138.7500 113.5000 Du        
  35876 ****       123.0000 138.7500 113.7500 Du        
  35877 ****       123.0000 138.7500 114.0000 Du        
  35878 ****       123.0000 138.7500 114.2500 Du        
  35879 ****       123.0000 138.7500 114.5000 Du        
  35880 ****       123.0000 138.7500 114.7500 Du        
  35881 ****       123.0000 138.7500 115.0000 Du        
  35882 ****       123.0000 138.7500 115.2500 Du        
  35883 ****       123.0000 138.7500 115.5000 Du        
  35884 ****       123.0000 138.7500 115.7500 Du        
  35885 ****       123.0000 138.7500 116.0000 Du        
  35886 ****       123.0000 139.0000 113.7500 Du        
  35887 ****       123.0000 139.0000 114.0000 Du        
  35888 ****       123.0000 139.0000 114.2500 Du        
  35889 ****       123.0000 139.0000 114.5000 Du        
  35890 ****       123.0000 139.0000 114.7500 Du        
  35891 ****       123.0000 139.0000 115.0000 Du        
  35892 ****       123.0000 139.0000 115.2500 Du        
  35893 ****       123.0000 139.0000 115.5000 Du        
  35894 ****       123.0000 139.0000 115.7500 Du        
  35895 ****       123.0000 139.0000 116.0000 Du        
  35896 ****       123.0000 139.2500 114.0000 Du        
  35897 ****       123.0000 139.2500 114.2500 Du        
  35898 ****       123.0000 139.2500 114.5000 Du        
  35899 ****       123.0000 139.2500 114.7500 Du        
  35900 ****       123.0000 139.2500 115.0000 Du        
  35901 ****       123.0000 139.2500 115.2500 Du        
  35902 ****       123.0000 150.7500 110.7500 Du        
  35903 ****       123.0000 151.0000 110.7500 Du        
  35904 ****       123.0000 151.0000 111.0000 Du        
  35905 ****       123.0000 151.0000 122.5000 Du        
  35906 ****       123.0000 151.0000 122.7500 Du        
  35907 ****       123.0000 151.0000 123.0000 Du        
  35908 ****       123.0000 151.0000 123.2500 Du        
  35909 ****       123.0000 151.0000 123.5000 Du        
  35910 ****       123.0000 151.2500 110.7500 Du        
  35911 ****       123.0000 151.2500 111.0000 Du        
  35912 ****       123.0000 151.2500 122.2500 Du        
  35913 ****       123.0000 151.2500 122.5000 Du        
  35914 ****       123.0000 151.2500 122.7500 Du        
  35915 ****       123.0000 151.2500 123.0000 Du        
  35916 ****       123.0000 151.2500 123.2500 Du        
  35917 ****       123.0000 151.2500 123.5000 Du        
  35918 ****       123.0000 151.2500 123.7500 Du        
  35919 ****       123.0000 151.2500 124.0000 Du        
  35920 ****       123.0000 151.5000 122.2500 Du        
  35921 ****       123.0000 151.5000 122.5000 Du        
  35922 ****       123.0000 151.5000 122.7500 Du        
  35923 ****       123.0000 151.5000 123.0000 Du        
  35924 ****       123.0000 151.5000 123.2500 Du        
  35925 ****       123.0000 151.5000 123.5000 Du        
  35926 ****       123.0000 151.5000 123.7500 Du        
  35927 ****       123.0000 151.5000 124.0000 Du        
  35928 ****       123.0000 151.5000 124.2500 Du        
  35929 ****       123.0000 151.7500 122.2500 Du        
  35930 ****       123.0000 151.7500 122.5000 Du        
  35931 ****       123.0000 151.7500 122.7500 Du        
  35932 ****       123.0000 151.7500 123.0000 Du        
  35933 ****       123.0000 151.7500 123.2500 Du        
  35934 ****       123.0000 151.7500 123.5000 Du        
  35935 ****       123.0000 151.7500 123.7500 Du        
  35936 ****       123.0000 151.7500 124.0000 Du        
  35937 ****       123.0000 151.7500 124.2500 Du        
  35938 ****       123.0000 152.0000 122.2500 Du        
  35939 ****       123.0000 152.0000 122.5000 Du        
  35940 ****       123.0000 152.0000 122.7500 Du        
  35941 ****       123.0000 152.0000 123.0000 Du        
  35942 ****       123.0000 152.0000 123.2500 Du        
  35943 ****       123.0000 152.0000 123.5000 Du        
  35944 ****       123.0000 152.0000 123.7500 Du        
  35945 ****       123.0000 152.0000 124.0000 Du        
  35946 ****       123.0000 152.0000 124.2500 Du        
  35947 ****       123.0000 152.0000 124.5000 Du        
  35948 ****       123.0000 152.2500 122.5000 Du        
  35949 ****       123.0000 152.2500 122.7500 Du        
  35950 ****       123.0000 152.2500 123.0000 Du        
  35951 ****       123.0000 152.2500 123.2500 Du        
  35952 ****       123.0000 152.2500 123.5000 Du        
  35953 ****       123.0000 152.2500 123.7500 Du        
  35954 ****       123.0000 152.2500 124.0000 Du        
  35955 ****       123.0000 152.2500 124.2500 Du        
  35956 ****       123.0000 152.2500 124.5000 Du        
  35957 ****       123.0000 152.5000 122.5000 Du        
  35958 ****       123.0000 152.5000 122.7500 Du        
  35959 ****       123.0000 152.5000 123.0000 Du        
  35960 ****       123.0000 152.5000 123.2500 Du        
  35961 ****       123.0000 152.5000 123.5000 Du        
  35962 ****       123.0000 152.5000 123.7500 Du        
  35963 ****       123.0000 152.5000 124.0000 Du        
  35964 ****       123.0000 152.5000 124.2500 Du        
  35965 ****       123.0000 152.7500 122.7500 Du        
  35966 ****       123.0000 152.7500 123.0000 Du        
  35967 ****       123.0000 152.7500 123.2500 Du        
  35968 ****       123.0000 152.7500 123.5000 Du        
  35969 ****       123.0000 152.7500 123.7500 Du        
  35970 ****       123.0000 152.7500 124.0000 Du        
  35971 ****       123.0000 152.7500 124.2500 Du        
  35972 ****       123.0000 153.0000 122.7500 Du        
  35973 ****       123.0000 153.0000 123.0000 Du        
  35974 ****       123.0000 153.0000 123.2500 Du        
  35975 ****       123.0000 153.0000 123.5000 Du        
  35976 ****       123.0000 153.0000 123.7500 Du        
  35977 ****       123.0000 153.0000 124.0000 Du        
  35978 ****       123.0000 153.0000 124.2500 Du        
  35979 ****       123.0000 153.2500 123.0000 Du        
  35980 ****       123.0000 153.2500 123.2500 Du        
  35981 ****       123.0000 153.2500 123.5000 Du        
  35982 ****       123.0000 153.2500 123.7500 Du        
  35983 ****       123.0000 153.2500 124.0000 Du        
  35984 ****       123.0000 153.2500 124.2500 Du        
  35985 ****       123.0000 153.5000 123.2500 Du        
  35986 ****       123.0000 153.5000 123.5000 Du        
  35987 ****       123.0000 153.5000 123.7500 Du        
  35988 ****       123.0000 153.5000 124.0000 Du        
  35989 ****       123.0000 153.5000 124.2500 Du        
  35990 ****       123.0000 153.7500 123.2500 Du        
  35991 ****       123.0000 153.7500 123.5000 Du        
  35992 ****       123.0000 153.7500 123.7500 Du        
  35993 ****       123.0000 153.7500 124.0000 Du        
  35994 ****       123.0000 153.7500 124.2500 Du        
  35995 ****       123.0000 154.0000 123.7500 Du        
  35996 ****       123.0000 154.0000 124.0000 Du        
  35997 ****       123.0000 154.0000 124.2500 Du        
  35998 ****       123.0000 155.5000 126.0000 Du        
  35999 ****       123.0000 155.5000 126.2500 Du        
  36000 ****       123.0000 155.7500 117.7500 Du        
  36001 ****       123.0000 155.7500 126.0000 Du        
  36002 ****       123.0000 155.7500 126.2500 Du        
  36003 ****       123.0000 155.7500 126.5000 Du        
  36004 ****       123.0000 155.7500 145.0000 Du        
  36005 ****       123.0000 155.7500 145.2500 Du        
  36006 ****       123.0000 155.7500 145.5000 Du        
  36007 ****       123.0000 155.7500 145.7500 Du        
  36008 ****       123.0000 155.7500 146.0000 Du        
  36009 ****       123.0000 155.7500 146.2500 Du        
  36010 ****       123.0000 156.0000 117.2500 Du        
  36011 ****       123.0000 156.0000 117.5000 Du        
  36012 ****       123.0000 156.0000 117.7500 Du        
  36013 ****       123.0000 156.0000 118.0000 Du        
  36014 ****       123.0000 156.0000 118.2500 Du        
  36015 ****       123.0000 156.0000 126.0000 Du        
  36016 ****       123.0000 156.0000 126.2500 Du        
  36017 ****       123.0000 156.0000 126.5000 Du        
  36018 ****       123.0000 156.0000 145.0000 Du        
  36019 ****       123.0000 156.0000 145.2500 Du        
  36020 ****       123.0000 156.0000 145.5000 Du        
  36021 ****       123.0000 156.0000 145.7500 Du        
  36022 ****       123.0000 156.0000 146.0000 Du        
  36023 ****       123.0000 156.0000 146.2500 Du        
  36024 ****       123.0000 156.2500 117.0000 Du        
  36025 ****       123.0000 156.2500 117.2500 Du        
  36026 ****       123.0000 156.2500 117.5000 Du        
  36027 ****       123.0000 156.2500 117.7500 Du        
  36028 ****       123.0000 156.2500 118.0000 Du        
  36029 ****       123.0000 156.2500 118.2500 Du        
  36030 ****       123.0000 156.2500 118.5000 Du        
  36031 ****       123.0000 156.2500 118.7500 Du        
  36032 ****       123.0000 156.2500 119.0000 Du        
  36033 ****       123.0000 156.2500 126.2500 Du        
  36034 ****       123.0000 156.2500 126.5000 Du        
  36035 ****       123.0000 156.2500 145.5000 Du        
  36036 ****       123.0000 156.2500 145.7500 Du        
  36037 ****       123.0000 156.2500 146.0000 Du        
  36038 ****       123.0000 156.2500 146.2500 Du        
  36039 ****       123.0000 156.5000 117.2500 Du        
  36040 ****       123.0000 156.5000 117.5000 Du        
  36041 ****       123.0000 156.5000 117.7500 Du        
  36042 ****       123.0000 156.5000 118.0000 Du        
  36043 ****       123.0000 156.5000 118.2500 Du        
  36044 ****       123.0000 156.5000 118.5000 Du        
  36045 ****       123.0000 156.5000 118.7500 Du        
  36046 ****       123.0000 156.5000 119.0000 Du        
  36047 ****       123.0000 156.5000 119.2500 Du        
  36048 ****       123.0000 156.5000 126.5000 Du        
  36049 ****       123.0000 156.7500 117.2500 Du        
  36050 ****       123.0000 156.7500 117.5000 Du        
  36051 ****       123.0000 156.7500 117.7500 Du        
  36052 ****       123.0000 156.7500 118.0000 Du        
  36053 ****       123.0000 156.7500 118.2500 Du        
  36054 ****       123.0000 156.7500 118.5000 Du        
  36055 ****       123.0000 156.7500 118.7500 Du        
  36056 ****       123.0000 156.7500 119.0000 Du        
  36057 ****       123.0000 156.7500 119.2500 Du        
  36058 ****       123.0000 156.7500 119.5000 Du        
  36059 ****       123.0000 157.0000 117.2500 Du        
  36060 ****       123.0000 157.0000 117.5000 Du        
  36061 ****       123.0000 157.0000 117.7500 Du        
  36062 ****       123.0000 157.0000 118.0000 Du        
  36063 ****       123.0000 157.0000 118.2500 Du        
  36064 ****       123.0000 157.0000 118.5000 Du        
  36065 ****       123.0000 157.0000 118.7500 Du        
  36066 ****       123.0000 157.0000 119.0000 Du        
  36067 ****       123.0000 157.0000 119.2500 Du        
  36068 ****       123.0000 157.2500 117.5000 Du        
  36069 ****       123.0000 157.2500 117.7500 Du        
  36070 ****       123.0000 157.2500 118.0000 Du        
  36071 ****       123.0000 157.2500 118.2500 Du        
  36072 ****       123.2500 136.5000 108.2500 Du        
  36073 ****       123.2500 136.5000 108.5000 Du        
  36074 ****       123.2500 136.5000 108.7500 Du        
  36075 ****       123.2500 136.5000 109.0000 Du        
  36076 ****       123.2500 136.7500 108.0000 Du        
  36077 ****       123.2500 136.7500 108.2500 Du        
  36078 ****       123.2500 136.7500 108.5000 Du        
  36079 ****       123.2500 136.7500 108.7500 Du        
  36080 ****       123.2500 136.7500 109.0000 Du        
  36081 ****       123.2500 137.0000 108.2500 Du        
  36082 ****       123.2500 137.0000 108.5000 Du        
  36083 ****       123.2500 137.0000 108.7500 Du        
  36084 ****       123.2500 137.0000 109.0000 Du        
  36085 ****       123.2500 137.2500 108.2500 Du        
  36086 ****       123.2500 137.2500 108.5000 Du        
  36087 ****       123.2500 137.2500 108.7500 Du        
  36088 ****       123.2500 137.2500 109.0000 Du        
  36089 ****       123.2500 137.5000 108.5000 Du        
  36090 ****       123.2500 137.5000 108.7500 Du        
  36091 ****       123.2500 137.5000 109.0000 Du        
  36092 ****       123.2500 137.5000 109.2500 Du        
  36093 ****       123.2500 137.5000 113.2500 Du        
  36094 ****       123.2500 137.5000 113.5000 Du        
  36095 ****       123.2500 137.5000 113.7500 Du        
  36096 ****       123.2500 137.5000 114.0000 Du        
  36097 ****       123.2500 137.5000 114.2500 Du        
  36098 ****       123.2500 137.7500 109.0000 Du        
  36099 ****       123.2500 137.7500 109.2500 Du        
  36100 ****       123.2500 137.7500 113.0000 Du        
  36101 ****       123.2500 137.7500 113.2500 Du        
  36102 ****       123.2500 137.7500 113.5000 Du        
  36103 ****       123.2500 137.7500 113.7500 Du        
  36104 ****       123.2500 137.7500 114.0000 Du        
  36105 ****       123.2500 137.7500 114.2500 Du        
  36106 ****       123.2500 137.7500 114.5000 Du        
  36107 ****       123.2500 137.7500 114.7500 Du        
  36108 ****       123.2500 137.7500 115.0000 Du        
  36109 ****       123.2500 138.0000 113.0000 Du        
  36110 ****       123.2500 138.0000 113.2500 Du        
  36111 ****       123.2500 138.0000 113.5000 Du        
  36112 ****       123.2500 138.0000 113.7500 Du        
  36113 ****       123.2500 138.0000 114.0000 Du        
  36114 ****       123.2500 138.0000 114.2500 Du        
  36115 ****       123.2500 138.0000 114.5000 Du        
  36116 ****       123.2500 138.0000 114.7500 Du        
  36117 ****       123.2500 138.0000 115.0000 Du        
  36118 ****       123.2500 138.2500 113.0000 Du        
  36119 ****       123.2500 138.2500 113.2500 Du        
  36120 ****       123.2500 138.2500 113.5000 Du        
  36121 ****       123.2500 138.2500 113.7500 Du        
  36122 ****       123.2500 138.2500 114.0000 Du        
  36123 ****       123.2500 138.2500 114.2500 Du        
  36124 ****       123.2500 138.2500 114.5000 Du        
  36125 ****       123.2500 138.2500 114.7500 Du        
  36126 ****       123.2500 138.2500 115.0000 Du        
  36127 ****       123.2500 138.2500 115.2500 Du        
  36128 ****       123.2500 138.5000 113.2500 Du        
  36129 ****       123.2500 138.5000 113.5000 Du        
  36130 ****       123.2500 138.5000 113.7500 Du        
  36131 ****       123.2500 138.5000 114.0000 Du        
  36132 ****       123.2500 138.5000 114.2500 Du        
  36133 ****       123.2500 138.5000 114.5000 Du        
  36134 ****       123.2500 138.5000 114.7500 Du        
  36135 ****       123.2500 138.5000 115.0000 Du        
  36136 ****       123.2500 138.5000 115.2500 Du        
  36137 ****       123.2500 138.5000 115.5000 Du        
  36138 ****       123.2500 138.5000 115.7500 Du        
  36139 ****       123.2500 138.7500 113.5000 Du        
  36140 ****       123.2500 138.7500 113.7500 Du        
  36141 ****       123.2500 138.7500 114.0000 Du        
  36142 ****       123.2500 138.7500 114.2500 Du        
  36143 ****       123.2500 138.7500 114.5000 Du        
  36144 ****       123.2500 138.7500 114.7500 Du        
  36145 ****       123.2500 138.7500 115.0000 Du        
  36146 ****       123.2500 138.7500 115.2500 Du        
  36147 ****       123.2500 138.7500 115.5000 Du        
  36148 ****       123.2500 138.7500 115.7500 Du        
  36149 ****       123.2500 139.0000 113.7500 Du        
  36150 ****       123.2500 139.0000 114.0000 Du        
  36151 ****       123.2500 139.0000 114.2500 Du        
  36152 ****       123.2500 139.0000 114.5000 Du        
  36153 ****       123.2500 139.0000 114.7500 Du        
  36154 ****       123.2500 139.0000 115.0000 Du        
  36155 ****       123.2500 139.0000 115.2500 Du        
  36156 ****       123.2500 139.2500 114.2500 Du        
  36157 ****       123.2500 150.7500 110.7500 Du        
  36158 ****       123.2500 150.7500 111.0000 Du        
  36159 ****       123.2500 150.7500 122.7500 Du        
  36160 ****       123.2500 150.7500 123.0000 Du        
  36161 ****       123.2500 151.0000 110.5000 Du        
  36162 ****       123.2500 151.0000 110.7500 Du        
  36163 ****       123.2500 151.0000 111.0000 Du        
  36164 ****       123.2500 151.0000 122.5000 Du        
  36165 ****       123.2500 151.0000 122.7500 Du        
  36166 ****       123.2500 151.0000 123.0000 Du        
  36167 ****       123.2500 151.0000 123.2500 Du        
  36168 ****       123.2500 151.0000 123.5000 Du        
  36169 ****       123.2500 151.0000 123.7500 Du        
  36170 ****       123.2500 151.0000 124.0000 Du        
  36171 ****       123.2500 151.2500 110.7500 Du        
  36172 ****       123.2500 151.2500 111.0000 Du        
  36173 ****       123.2500 151.2500 122.5000 Du        
  36174 ****       123.2500 151.2500 122.7500 Du        
  36175 ****       123.2500 151.2500 123.0000 Du        
  36176 ****       123.2500 151.2500 123.2500 Du        
  36177 ****       123.2500 151.2500 123.5000 Du        
  36178 ****       123.2500 151.2500 123.7500 Du        
  36179 ****       123.2500 151.2500 124.0000 Du        
  36180 ****       123.2500 151.2500 124.2500 Du        
  36181 ****       123.2500 151.5000 122.5000 Du        
  36182 ****       123.2500 151.5000 122.7500 Du        
  36183 ****       123.2500 151.5000 123.0000 Du        
  36184 ****       123.2500 151.5000 123.2500 Du        
  36185 ****       123.2500 151.5000 123.5000 Du        
  36186 ****       123.2500 151.5000 123.7500 Du        
  36187 ****       123.2500 151.5000 124.0000 Du        
  36188 ****       123.2500 151.5000 124.2500 Du        
  36189 ****       123.2500 151.7500 122.5000 Du        
  36190 ****       123.2500 151.7500 122.7500 Du        
  36191 ****       123.2500 151.7500 123.0000 Du        
  36192 ****       123.2500 151.7500 123.2500 Du        
  36193 ****       123.2500 151.7500 123.5000 Du        
  36194 ****       123.2500 151.7500 123.7500 Du        
  36195 ****       123.2500 151.7500 124.0000 Du        
  36196 ****       123.2500 151.7500 124.2500 Du        
  36197 ****       123.2500 152.0000 122.5000 Du        
  36198 ****       123.2500 152.0000 122.7500 Du        
  36199 ****       123.2500 152.0000 123.0000 Du        
  36200 ****       123.2500 152.0000 123.2500 Du        
  36201 ****       123.2500 152.0000 123.5000 Du        
  36202 ****       123.2500 152.0000 123.7500 Du        
  36203 ****       123.2500 152.0000 124.0000 Du        
  36204 ****       123.2500 152.0000 124.2500 Du        
  36205 ****       123.2500 152.2500 122.7500 Du        
  36206 ****       123.2500 152.2500 123.0000 Du        
  36207 ****       123.2500 152.2500 123.2500 Du        
  36208 ****       123.2500 152.2500 123.5000 Du        
  36209 ****       123.2500 152.2500 123.7500 Du        
  36210 ****       123.2500 152.2500 124.0000 Du        
  36211 ****       123.2500 152.2500 124.2500 Du        
  36212 ****       123.2500 152.5000 123.0000 Du        
  36213 ****       123.2500 152.5000 123.2500 Du        
  36214 ****       123.2500 152.5000 123.5000 Du        
  36215 ****       123.2500 152.5000 123.7500 Du        
  36216 ****       123.2500 152.5000 124.0000 Du        
  36217 ****       123.2500 152.5000 124.2500 Du        
  36218 ****       123.2500 152.7500 123.0000 Du        
  36219 ****       123.2500 152.7500 123.2500 Du        
  36220 ****       123.2500 152.7500 123.5000 Du        
  36221 ****       123.2500 152.7500 123.7500 Du        
  36222 ****       123.2500 152.7500 124.0000 Du        
  36223 ****       123.2500 152.7500 124.2500 Du        
  36224 ****       123.2500 153.0000 123.0000 Du        
  36225 ****       123.2500 153.0000 123.2500 Du        
  36226 ****       123.2500 153.0000 123.5000 Du        
  36227 ****       123.2500 153.0000 123.7500 Du        
  36228 ****       123.2500 153.0000 124.0000 Du        
  36229 ****       123.2500 153.0000 124.2500 Du        
  36230 ****       123.2500 153.2500 123.2500 Du        
  36231 ****       123.2500 153.2500 123.5000 Du        
  36232 ****       123.2500 153.2500 123.7500 Du        
  36233 ****       123.2500 153.2500 124.0000 Du        
  36234 ****       123.2500 153.2500 124.2500 Du        
  36235 ****       123.2500 153.5000 123.5000 Du        
  36236 ****       123.2500 153.5000 123.7500 Du        
  36237 ****       123.2500 153.5000 124.0000 Du        
  36238 ****       123.2500 153.5000 124.2500 Du        
  36239 ****       123.2500 153.7500 123.7500 Du        
  36240 ****       123.2500 153.7500 124.0000 Du        
  36241 ****       123.2500 155.5000 145.5000 Du        
  36242 ****       123.2500 155.5000 145.7500 Du        
  36243 ****       123.2500 155.5000 146.0000 Du        
  36244 ****       123.2500 155.7500 126.2500 Du        
  36245 ****       123.2500 155.7500 145.0000 Du        
  36246 ****       123.2500 155.7500 145.2500 Du        
  36247 ****       123.2500 155.7500 145.5000 Du        
  36248 ****       123.2500 155.7500 145.7500 Du        
  36249 ****       123.2500 155.7500 146.0000 Du        
  36250 ****       123.2500 155.7500 146.2500 Du        
  36251 ****       123.2500 156.0000 117.5000 Du        
  36252 ****       123.2500 156.0000 117.7500 Du        
  36253 ****       123.2500 156.0000 118.0000 Du        
  36254 ****       123.2500 156.0000 145.0000 Du        
  36255 ****       123.2500 156.0000 145.2500 Du        
  36256 ****       123.2500 156.0000 145.5000 Du        
  36257 ****       123.2500 156.0000 145.7500 Du        
  36258 ****       123.2500 156.0000 146.0000 Du        
  36259 ****       123.2500 156.0000 146.2500 Du        
  36260 ****       123.2500 156.2500 117.0000 Du        
  36261 ****       123.2500 156.2500 117.2500 Du        
  36262 ****       123.2500 156.2500 117.5000 Du        
  36263 ****       123.2500 156.2500 117.7500 Du        
  36264 ****       123.2500 156.2500 118.0000 Du        
  36265 ****       123.2500 156.2500 118.2500 Du        
  36266 ****       123.2500 156.2500 118.5000 Du        
  36267 ****       123.2500 156.2500 145.5000 Du        
  36268 ****       123.2500 156.2500 145.7500 Du        
  36269 ****       123.2500 156.2500 146.0000 Du        
  36270 ****       123.2500 156.2500 146.2500 Du        
  36271 ****       123.2500 156.5000 117.2500 Du        
  36272 ****       123.2500 156.5000 117.5000 Du        
  36273 ****       123.2500 156.5000 117.7500 Du        
  36274 ****       123.2500 156.5000 118.0000 Du        
  36275 ****       123.2500 156.5000 118.2500 Du        
  36276 ****       123.2500 156.5000 118.5000 Du        
  36277 ****       123.2500 156.5000 118.7500 Du        
  36278 ****       123.2500 156.7500 117.2500 Du        
  36279 ****       123.2500 156.7500 117.5000 Du        
  36280 ****       123.2500 156.7500 117.7500 Du        
  36281 ****       123.2500 156.7500 118.0000 Du        
  36282 ****       123.2500 156.7500 118.2500 Du        
  36283 ****       123.2500 156.7500 118.5000 Du        
  36284 ****       123.2500 156.7500 118.7500 Du        
  36285 ****       123.2500 156.7500 119.0000 Du        
  36286 ****       123.2500 157.0000 117.5000 Du        
  36287 ****       123.2500 157.0000 117.7500 Du        
  36288 ****       123.2500 157.0000 118.0000 Du        
  36289 ****       123.2500 157.0000 118.2500 Du        
  36290 ****       123.2500 157.0000 118.5000 Du        
  36291 ****       123.2500 157.0000 118.7500 Du        
  36292 ****       123.5000 136.5000 108.2500 Du        
  36293 ****       123.5000 136.5000 108.5000 Du        
  36294 ****       123.5000 136.5000 108.7500 Du        
  36295 ****       123.5000 136.5000 109.0000 Du        
  36296 ****       123.5000 136.7500 108.2500 Du        
  36297 ****       123.5000 136.7500 108.5000 Du        
  36298 ****       123.5000 136.7500 108.7500 Du        
  36299 ****       123.5000 136.7500 109.0000 Du        
  36300 ****       123.5000 136.7500 109.2500 Du        
  36301 ****       123.5000 137.0000 108.0000 Du        
  36302 ****       123.5000 137.0000 108.2500 Du        
  36303 ****       123.5000 137.0000 108.5000 Du        
  36304 ****       123.5000 137.0000 108.7500 Du        
  36305 ****       123.5000 137.0000 109.0000 Du        
  36306 ****       123.5000 137.0000 109.2500 Du        
  36307 ****       123.5000 137.0000 109.5000 Du        
  36308 ****       123.5000 137.2500 108.2500 Du        
  36309 ****       123.5000 137.2500 108.5000 Du        
  36310 ****       123.5000 137.2500 108.7500 Du        
  36311 ****       123.5000 137.2500 109.0000 Du        
  36312 ****       123.5000 137.2500 109.2500 Du        
  36313 ****       123.5000 137.2500 109.5000 Du        
  36314 ****       123.5000 137.5000 108.5000 Du        
  36315 ****       123.5000 137.5000 108.7500 Du        
  36316 ****       123.5000 137.5000 109.0000 Du        
  36317 ****       123.5000 137.5000 109.2500 Du        
  36318 ****       123.5000 137.5000 109.5000 Du        
  36319 ****       123.5000 137.5000 109.7500 Du        
  36320 ****       123.5000 137.5000 113.2500 Du        
  36321 ****       123.5000 137.5000 114.0000 Du        
  36322 ****       123.5000 137.7500 109.0000 Du        
  36323 ****       123.5000 137.7500 109.2500 Du        
  36324 ****       123.5000 137.7500 109.5000 Du        
  36325 ****       123.5000 137.7500 109.7500 Du        
  36326 ****       123.5000 137.7500 110.0000 Du        
  36327 ****       123.5000 137.7500 113.0000 Du        
  36328 ****       123.5000 137.7500 113.2500 Du        
  36329 ****       123.5000 137.7500 113.5000 Du        
  36330 ****       123.5000 137.7500 113.7500 Du        
  36331 ****       123.5000 137.7500 114.0000 Du        
  36332 ****       123.5000 137.7500 114.2500 Du        
  36333 ****       123.5000 138.0000 109.2500 Du        
  36334 ****       123.5000 138.0000 109.5000 Du        
  36335 ****       123.5000 138.0000 109.7500 Du        
  36336 ****       123.5000 138.0000 112.7500 Du        
  36337 ****       123.5000 138.0000 113.0000 Du        
  36338 ****       123.5000 138.0000 113.2500 Du        
  36339 ****       123.5000 138.0000 113.5000 Du        
  36340 ****       123.5000 138.0000 113.7500 Du        
  36341 ****       123.5000 138.0000 114.0000 Du        
  36342 ****       123.5000 138.0000 114.2500 Du        
  36343 ****       123.5000 138.0000 114.5000 Du        
  36344 ****       123.5000 138.0000 114.7500 Du        
  36345 ****       123.5000 138.2500 113.0000 Du        
  36346 ****       123.5000 138.2500 113.2500 Du        
  36347 ****       123.5000 138.2500 113.5000 Du        
  36348 ****       123.5000 138.2500 113.7500 Du        
  36349 ****       123.5000 138.2500 114.0000 Du        
  36350 ****       123.5000 138.2500 114.2500 Du        
  36351 ****       123.5000 138.2500 114.5000 Du        
  36352 ****       123.5000 138.2500 114.7500 Du        
  36353 ****       123.5000 138.2500 115.0000 Du        
  36354 ****       123.5000 138.5000 113.2500 Du        
  36355 ****       123.5000 138.5000 113.5000 Du        
  36356 ****       123.5000 138.5000 113.7500 Du        
  36357 ****       123.5000 138.5000 114.0000 Du        
  36358 ****       123.5000 138.5000 114.2500 Du        
  36359 ****       123.5000 138.5000 114.5000 Du        
  36360 ****       123.5000 138.5000 114.7500 Du        
  36361 ****       123.5000 138.5000 115.0000 Du        
  36362 ****       123.5000 138.7500 113.7500 Du        
  36363 ****       123.5000 138.7500 114.0000 Du        
  36364 ****       123.5000 138.7500 114.2500 Du        
  36365 ****       123.5000 138.7500 114.5000 Du        
  36366 ****       123.5000 150.5000 110.7500 Du        
  36367 ****       123.5000 150.5000 111.0000 Du        
  36368 ****       123.5000 150.7500 110.5000 Du        
  36369 ****       123.5000 150.7500 110.7500 Du        
  36370 ****       123.5000 150.7500 111.0000 Du        
  36371 ****       123.5000 150.7500 111.2500 Du        
  36372 ****       123.5000 150.7500 122.7500 Du        
  36373 ****       123.5000 150.7500 123.0000 Du        
  36374 ****       123.5000 150.7500 123.2500 Du        
  36375 ****       123.5000 150.7500 123.5000 Du        
  36376 ****       123.5000 150.7500 123.7500 Du        
  36377 ****       123.5000 151.0000 110.5000 Du        
  36378 ****       123.5000 151.0000 110.7500 Du        
  36379 ****       123.5000 151.0000 111.0000 Du        
  36380 ****       123.5000 151.0000 111.2500 Du        
  36381 ****       123.5000 151.0000 122.7500 Du        
  36382 ****       123.5000 151.0000 123.0000 Du        
  36383 ****       123.5000 151.0000 123.2500 Du        
  36384 ****       123.5000 151.0000 123.5000 Du        
  36385 ****       123.5000 151.0000 123.7500 Du        
  36386 ****       123.5000 151.0000 124.0000 Du        
  36387 ****       123.5000 151.0000 124.2500 Du        
  36388 ****       123.5000 151.2500 110.7500 Du        
  36389 ****       123.5000 151.2500 111.0000 Du        
  36390 ****       123.5000 151.2500 111.2500 Du        
  36391 ****       123.5000 151.2500 122.5000 Du        
  36392 ****       123.5000 151.2500 122.7500 Du        
  36393 ****       123.5000 151.2500 123.0000 Du        
  36394 ****       123.5000 151.2500 123.2500 Du        
  36395 ****       123.5000 151.2500 123.5000 Du        
  36396 ****       123.5000 151.2500 123.7500 Du        
  36397 ****       123.5000 151.2500 124.0000 Du        
  36398 ****       123.5000 151.2500 124.2500 Du        
  36399 ****       123.5000 151.5000 122.7500 Du        
  36400 ****       123.5000 151.5000 123.0000 Du        
  36401 ****       123.5000 151.5000 123.2500 Du        
  36402 ****       123.5000 151.5000 123.5000 Du        
  36403 ****       123.5000 151.5000 123.7500 Du        
  36404 ****       123.5000 151.5000 124.0000 Du        
  36405 ****       123.5000 151.5000 124.2500 Du        
  36406 ****       123.5000 151.7500 122.7500 Du        
  36407 ****       123.5000 151.7500 123.0000 Du        
  36408 ****       123.5000 151.7500 123.2500 Du        
  36409 ****       123.5000 151.7500 123.5000 Du        
  36410 ****       123.5000 151.7500 123.7500 Du        
  36411 ****       123.5000 151.7500 124.0000 Du        
  36412 ****       123.5000 151.7500 124.2500 Du        
  36413 ****       123.5000 152.0000 123.0000 Du        
  36414 ****       123.5000 152.0000 123.2500 Du        
  36415 ****       123.5000 152.0000 123.5000 Du        
  36416 ****       123.5000 152.0000 123.7500 Du        
  36417 ****       123.5000 152.0000 124.0000 Du        
  36418 ****       123.5000 152.0000 124.2500 Du        
  36419 ****       123.5000 152.2500 123.0000 Du        
  36420 ****       123.5000 152.2500 123.2500 Du        
  36421 ****       123.5000 152.2500 123.5000 Du        
  36422 ****       123.5000 152.2500 123.7500 Du        
  36423 ****       123.5000 152.2500 124.0000 Du        
  36424 ****       123.5000 152.2500 124.2500 Du        
  36425 ****       123.5000 152.5000 123.2500 Du        
  36426 ****       123.5000 152.5000 123.5000 Du        
  36427 ****       123.5000 152.5000 123.7500 Du        
  36428 ****       123.5000 152.5000 124.0000 Du        
  36429 ****       123.5000 152.7500 123.5000 Du        
  36430 ****       123.5000 152.7500 123.7500 Du        
  36431 ****       123.5000 152.7500 124.0000 Du        
  36432 ****       123.5000 152.7500 124.2500 Du        
  36433 ****       123.5000 153.0000 123.5000 Du        
  36434 ****       123.5000 153.0000 123.7500 Du        
  36435 ****       123.5000 153.0000 124.0000 Du        
  36436 ****       123.5000 153.0000 124.2500 Du        
  36437 ****       123.5000 153.2500 123.7500 Du        
  36438 ****       123.5000 153.2500 124.0000 Du        
  36439 ****       123.5000 153.2500 124.2500 Du        
  36440 ****       123.5000 155.5000 145.5000 Du        
  36441 ****       123.5000 155.5000 145.7500 Du        
  36442 ****       123.5000 155.5000 146.0000 Du        
  36443 ****       123.5000 155.7500 145.0000 Du        
  36444 ****       123.5000 155.7500 145.2500 Du        
  36445 ****       123.5000 155.7500 145.5000 Du        
  36446 ****       123.5000 155.7500 145.7500 Du        
  36447 ****       123.5000 155.7500 146.0000 Du        
  36448 ****       123.5000 155.7500 146.2500 Du        
  36449 ****       123.5000 156.0000 117.5000 Du        
  36450 ****       123.5000 156.0000 117.7500 Du        
  36451 ****       123.5000 156.0000 145.0000 Du        
  36452 ****       123.5000 156.0000 145.2500 Du        
  36453 ****       123.5000 156.0000 145.5000 Du        
  36454 ****       123.5000 156.0000 145.7500 Du        
  36455 ****       123.5000 156.0000 146.0000 Du        
  36456 ****       123.5000 156.0000 146.2500 Du        
  36457 ****       123.5000 156.2500 117.0000 Du        
  36458 ****       123.5000 156.2500 117.2500 Du        
  36459 ****       123.5000 156.2500 117.5000 Du        
  36460 ****       123.5000 156.2500 117.7500 Du        
  36461 ****       123.5000 156.2500 118.0000 Du        
  36462 ****       123.5000 156.2500 145.5000 Du        
  36463 ****       123.5000 156.2500 145.7500 Du        
  36464 ****       123.5000 156.2500 146.0000 Du        
  36465 ****       123.5000 156.2500 146.2500 Du        
  36466 ****       123.5000 156.5000 117.0000 Du        
  36467 ****       123.5000 156.5000 117.2500 Du        
  36468 ****       123.5000 156.5000 117.5000 Du        
  36469 ****       123.5000 156.5000 117.7500 Du        
  36470 ****       123.5000 156.5000 118.0000 Du        
  36471 ****       123.5000 156.5000 118.2500 Du        
  36472 ****       123.5000 156.7500 117.0000 Du        
  36473 ****       123.5000 156.7500 117.2500 Du        
  36474 ****       123.5000 156.7500 117.5000 Du        
  36475 ****       123.5000 156.7500 117.7500 Du        
  36476 ****       123.5000 156.7500 118.0000 Du        
  36477 ****       123.5000 156.7500 118.2500 Du        
  36478 ****       123.5000 157.0000 117.2500 Du        
  36479 ****       123.5000 157.0000 117.5000 Du        
  36480 ****       123.5000 157.0000 117.7500 Du        
  36481 ****       123.7500 136.5000 108.2500 Du        
  36482 ****       123.7500 136.5000 108.5000 Du        
  36483 ****       123.7500 136.5000 108.7500 Du        
  36484 ****       123.7500 136.5000 109.0000 Du        
  36485 ****       123.7500 136.5000 109.2500 Du        
  36486 ****       123.7500 136.7500 108.0000 Du        
  36487 ****       123.7500 136.7500 108.2500 Du        
  36488 ****       123.7500 136.7500 108.5000 Du        
  36489 ****       123.7500 136.7500 108.7500 Du        
  36490 ****       123.7500 136.7500 109.0000 Du        
  36491 ****       123.7500 136.7500 109.2500 Du        
  36492 ****       123.7500 136.7500 109.5000 Du        
  36493 ****       123.7500 136.7500 109.7500 Du        
  36494 ****       123.7500 137.0000 108.0000 Du        
  36495 ****       123.7500 137.0000 108.2500 Du        
  36496 ****       123.7500 137.0000 108.5000 Du        
  36497 ****       123.7500 137.0000 108.7500 Du        
  36498 ****       123.7500 137.0000 109.0000 Du        
  36499 ****       123.7500 137.0000 109.2500 Du        
  36500 ****       123.7500 137.0000 109.5000 Du        
  36501 ****       123.7500 137.0000 109.7500 Du        
  36502 ****       123.7500 137.0000 110.0000 Du        
  36503 ****       123.7500 137.2500 108.2500 Du        
  36504 ****       123.7500 137.2500 108.5000 Du        
  36505 ****       123.7500 137.2500 108.7500 Du        
  36506 ****       123.7500 137.2500 109.0000 Du        
  36507 ****       123.7500 137.2500 109.2500 Du        
  36508 ****       123.7500 137.2500 109.5000 Du        
  36509 ****       123.7500 137.2500 109.7500 Du        
  36510 ****       123.7500 137.2500 110.0000 Du        
  36511 ****       123.7500 137.2500 110.2500 Du        
  36512 ****       123.7500 137.5000 108.5000 Du        
  36513 ****       123.7500 137.5000 108.7500 Du        
  36514 ****       123.7500 137.5000 109.0000 Du        
  36515 ****       123.7500 137.5000 109.2500 Du        
  36516 ****       123.7500 137.5000 109.5000 Du        
  36517 ****       123.7500 137.5000 109.7500 Du        
  36518 ****       123.7500 137.5000 110.0000 Du        
  36519 ****       123.7500 137.5000 110.2500 Du        
  36520 ****       123.7500 137.5000 112.7500 Du        
  36521 ****       123.7500 137.5000 113.0000 Du        
  36522 ****       123.7500 137.5000 113.2500 Du        
  36523 ****       123.7500 137.5000 113.5000 Du        
  36524 ****       123.7500 137.5000 113.7500 Du        
  36525 ****       123.7500 137.7500 108.7500 Du        
  36526 ****       123.7500 137.7500 109.0000 Du        
  36527 ****       123.7500 137.7500 109.2500 Du        
  36528 ****       123.7500 137.7500 109.5000 Du        
  36529 ****       123.7500 137.7500 109.7500 Du        
  36530 ****       123.7500 137.7500 110.0000 Du        
  36531 ****       123.7500 137.7500 110.2500 Du        
  36532 ****       123.7500 137.7500 112.2500 Du        
  36533 ****       123.7500 137.7500 112.5000 Du        
  36534 ****       123.7500 137.7500 112.7500 Du        
  36535 ****       123.7500 137.7500 113.0000 Du        
  36536 ****       123.7500 137.7500 113.2500 Du        
  36537 ****       123.7500 137.7500 113.5000 Du        
  36538 ****       123.7500 137.7500 113.7500 Du        
  36539 ****       123.7500 137.7500 114.0000 Du        
  36540 ****       123.7500 137.7500 114.2500 Du        
  36541 ****       123.7500 138.0000 109.0000 Du        
  36542 ****       123.7500 138.0000 109.2500 Du        
  36543 ****       123.7500 138.0000 109.5000 Du        
  36544 ****       123.7500 138.0000 109.7500 Du        
  36545 ****       123.7500 138.0000 110.0000 Du        
  36546 ****       123.7500 138.0000 110.2500 Du        
  36547 ****       123.7500 138.0000 112.5000 Du        
  36548 ****       123.7500 138.0000 112.7500 Du        
  36549 ****       123.7500 138.0000 113.0000 Du        
  36550 ****       123.7500 138.0000 113.2500 Du        
  36551 ****       123.7500 138.0000 113.5000 Du        
  36552 ****       123.7500 138.0000 113.7500 Du        
  36553 ****       123.7500 138.0000 114.0000 Du        
  36554 ****       123.7500 138.0000 114.2500 Du        
  36555 ****       123.7500 138.0000 114.5000 Du        
  36556 ****       123.7500 138.2500 109.5000 Du        
  36557 ****       123.7500 138.2500 109.7500 Du        
  36558 ****       123.7500 138.2500 110.0000 Du        
  36559 ****       123.7500 138.2500 110.2500 Du        
  36560 ****       123.7500 138.2500 113.0000 Du        
  36561 ****       123.7500 138.2500 113.2500 Du        
  36562 ****       123.7500 138.2500 113.5000 Du        
  36563 ****       123.7500 138.2500 113.7500 Du        
  36564 ****       123.7500 138.2500 114.0000 Du        
  36565 ****       123.7500 138.2500 114.2500 Du        
  36566 ****       123.7500 138.2500 114.5000 Du        
  36567 ****       123.7500 138.2500 114.7500 Du        
  36568 ****       123.7500 138.5000 113.2500 Du        
  36569 ****       123.7500 138.5000 113.5000 Du        
  36570 ****       123.7500 138.5000 113.7500 Du        
  36571 ****       123.7500 138.5000 114.0000 Du        
  36572 ****       123.7500 138.5000 114.2500 Du        
  36573 ****       123.7500 138.7500 113.7500 Du        
  36574 ****       123.7500 138.7500 114.0000 Du        
  36575 ****       123.7500 143.7500 134.2500 Du        
  36576 ****       123.7500 143.7500 135.0000 Du        
  36577 ****       123.7500 150.2500 110.7500 Du        
  36578 ****       123.7500 150.2500 111.0000 Du        
  36579 ****       123.7500 150.2500 111.2500 Du        
  36580 ****       123.7500 150.5000 110.5000 Du        
  36581 ****       123.7500 150.5000 110.7500 Du        
  36582 ****       123.7500 150.5000 111.0000 Du        
  36583 ****       123.7500 150.5000 111.2500 Du        
  36584 ****       123.7500 150.5000 123.0000 Du        
  36585 ****       123.7500 150.5000 123.2500 Du        
  36586 ****       123.7500 150.7500 110.5000 Du        
  36587 ****       123.7500 150.7500 110.7500 Du        
  36588 ****       123.7500 150.7500 111.0000 Du        
  36589 ****       123.7500 150.7500 111.2500 Du        
  36590 ****       123.7500 150.7500 111.5000 Du        
  36591 ****       123.7500 150.7500 122.7500 Du        
  36592 ****       123.7500 150.7500 123.0000 Du        
  36593 ****       123.7500 150.7500 123.2500 Du        
  36594 ****       123.7500 150.7500 123.5000 Du        
  36595 ****       123.7500 150.7500 123.7500 Du        
  36596 ****       123.7500 150.7500 124.0000 Du        
  36597 ****       123.7500 150.7500 124.2500 Du        
  36598 ****       123.7500 151.0000 110.5000 Du        
  36599 ****       123.7500 151.0000 110.7500 Du        
  36600 ****       123.7500 151.0000 111.0000 Du        
  36601 ****       123.7500 151.0000 111.2500 Du        
  36602 ****       123.7500 151.0000 122.7500 Du        
  36603 ****       123.7500 151.0000 123.0000 Du        
  36604 ****       123.7500 151.0000 123.2500 Du        
  36605 ****       123.7500 151.0000 123.5000 Du        
  36606 ****       123.7500 151.0000 123.7500 Du        
  36607 ****       123.7500 151.0000 124.0000 Du        
  36608 ****       123.7500 151.0000 124.2500 Du        
  36609 ****       123.7500 151.2500 111.0000 Du        
  36610 ****       123.7500 151.2500 111.2500 Du        
  36611 ****       123.7500 151.2500 122.7500 Du        
  36612 ****       123.7500 151.2500 123.0000 Du        
  36613 ****       123.7500 151.2500 123.2500 Du        
  36614 ****       123.7500 151.2500 123.5000 Du        
  36615 ****       123.7500 151.2500 123.7500 Du        
  36616 ****       123.7500 151.2500 124.0000 Du        
  36617 ****       123.7500 151.2500 124.2500 Du        
  36618 ****       123.7500 151.5000 122.7500 Du        
  36619 ****       123.7500 151.5000 123.0000 Du        
  36620 ****       123.7500 151.5000 123.2500 Du        
  36621 ****       123.7500 151.5000 123.5000 Du        
  36622 ****       123.7500 151.5000 123.7500 Du        
  36623 ****       123.7500 151.5000 124.0000 Du        
  36624 ****       123.7500 151.5000 124.2500 Du        
  36625 ****       123.7500 151.7500 123.0000 Du        
  36626 ****       123.7500 151.7500 123.2500 Du        
  36627 ****       123.7500 151.7500 123.5000 Du        
  36628 ****       123.7500 151.7500 123.7500 Du        
  36629 ****       123.7500 151.7500 124.0000 Du        
  36630 ****       123.7500 151.7500 124.2500 Du        
  36631 ****       123.7500 152.0000 123.0000 Du        
  36632 ****       123.7500 152.0000 123.2500 Du        
  36633 ****       123.7500 152.0000 123.5000 Du        
  36634 ****       123.7500 152.0000 123.7500 Du        
  36635 ****       123.7500 152.0000 124.0000 Du        
  36636 ****       123.7500 152.0000 124.2500 Du        
  36637 ****       123.7500 152.2500 123.2500 Du        
  36638 ****       123.7500 152.2500 123.5000 Du        
  36639 ****       123.7500 152.2500 123.7500 Du        
  36640 ****       123.7500 152.2500 124.0000 Du        
  36641 ****       123.7500 152.2500 124.2500 Du        
  36642 ****       123.7500 152.5000 123.5000 Du        
  36643 ****       123.7500 152.5000 123.7500 Du        
  36644 ****       123.7500 152.5000 124.0000 Du        
  36645 ****       123.7500 152.5000 124.2500 Du        
  36646 ****       123.7500 152.7500 123.5000 Du        
  36647 ****       123.7500 152.7500 123.7500 Du        
  36648 ****       123.7500 152.7500 124.0000 Du        
  36649 ****       123.7500 152.7500 124.2500 Du        
  36650 ****       123.7500 153.0000 123.7500 Du        
  36651 ****       123.7500 153.0000 124.0000 Du        
  36652 ****       123.7500 153.0000 124.2500 Du        
  36653 ****       123.7500 153.2500 123.7500 Du        
  36654 ****       123.7500 153.2500 124.0000 Du        
  36655 ****       123.7500 153.2500 124.2500 Du        
  36656 ****       123.7500 155.7500 145.5000 Du        
  36657 ****       123.7500 155.7500 145.7500 Du        
  36658 ****       123.7500 155.7500 146.0000 Du        
  36659 ****       123.7500 155.7500 146.2500 Du        
  36660 ****       123.7500 156.0000 117.2500 Du        
  36661 ****       123.7500 156.0000 117.5000 Du        
  36662 ****       123.7500 156.0000 145.5000 Du        
  36663 ****       123.7500 156.0000 145.7500 Du        
  36664 ****       123.7500 156.0000 146.0000 Du        
  36665 ****       123.7500 156.0000 146.2500 Du        
  36666 ****       123.7500 156.2500 117.0000 Du        
  36667 ****       123.7500 156.2500 117.2500 Du        
  36668 ****       123.7500 156.2500 117.5000 Du        
  36669 ****       123.7500 156.2500 117.7500 Du        
  36670 ****       123.7500 156.2500 145.7500 Du        
  36671 ****       123.7500 156.2500 146.0000 Du        
  36672 ****       123.7500 156.2500 146.2500 Du        
  36673 ****       123.7500 156.5000 117.0000 Du        
  36674 ****       123.7500 156.5000 117.2500 Du        
  36675 ****       123.7500 156.5000 117.5000 Du        
  36676 ****       123.7500 156.5000 117.7500 Du        
  36677 ****       123.7500 156.5000 118.0000 Du        
  36678 ****       123.7500 156.7500 116.7500 Du        
  36679 ****       123.7500 156.7500 117.0000 Du        
  36680 ****       123.7500 156.7500 117.2500 Du        
  36681 ****       123.7500 156.7500 117.5000 Du        
  36682 ****       123.7500 156.7500 117.7500 Du        
  36683 ****       123.7500 157.0000 117.0000 Du        
  36684 ****       123.7500 157.0000 117.2500 Du        
  36685 ****       123.7500 157.0000 117.5000 Du        
  36686 ****       124.0000 136.5000 108.7500 Du        
  36687 ****       124.0000 136.5000 109.0000 Du        
  36688 ****       124.0000 136.7500 108.0000 Du        
  36689 ****       124.0000 136.7500 108.2500 Du        
  36690 ****       124.0000 136.7500 108.5000 Du        
  36691 ****       124.0000 136.7500 108.7500 Du        
  36692 ****       124.0000 136.7500 109.0000 Du        
  36693 ****       124.0000 136.7500 109.2500 Du        
  36694 ****       124.0000 136.7500 109.5000 Du        
  36695 ****       124.0000 136.7500 109.7500 Du        
  36696 ****       124.0000 136.7500 110.0000 Du        
  36697 ****       124.0000 137.0000 108.0000 Du        
  36698 ****       124.0000 137.0000 108.2500 Du        
  36699 ****       124.0000 137.0000 108.5000 Du        
  36700 ****       124.0000 137.0000 108.7500 Du        
  36701 ****       124.0000 137.0000 109.0000 Du        
  36702 ****       124.0000 137.0000 109.2500 Du        
  36703 ****       124.0000 137.0000 109.5000 Du        
  36704 ****       124.0000 137.0000 109.7500 Du        
  36705 ****       124.0000 137.0000 110.0000 Du        
  36706 ****       124.0000 137.0000 110.2500 Du        
  36707 ****       124.0000 137.2500 108.2500 Du        
  36708 ****       124.0000 137.2500 108.5000 Du        
  36709 ****       124.0000 137.2500 108.7500 Du        
  36710 ****       124.0000 137.2500 109.0000 Du        
  36711 ****       124.0000 137.2500 109.2500 Du        
  36712 ****       124.0000 137.2500 109.5000 Du        
  36713 ****       124.0000 137.2500 109.7500 Du        
  36714 ****       124.0000 137.2500 110.0000 Du        
  36715 ****       124.0000 137.2500 110.2500 Du        
  36716 ****       124.0000 137.2500 110.5000 Du        
  36717 ****       124.0000 137.5000 108.5000 Du        
  36718 ****       124.0000 137.5000 108.7500 Du        
  36719 ****       124.0000 137.5000 109.0000 Du        
  36720 ****       124.0000 137.5000 109.2500 Du        
  36721 ****       124.0000 137.5000 109.5000 Du        
  36722 ****       124.0000 137.5000 109.7500 Du        
  36723 ****       124.0000 137.5000 110.0000 Du        
  36724 ****       124.0000 137.5000 110.2500 Du        
  36725 ****       124.0000 137.5000 110.5000 Du        
  36726 ****       124.0000 137.5000 110.7500 Du        
  36727 ****       124.0000 137.5000 111.0000 Du        
  36728 ****       124.0000 137.5000 111.2500 Du        
  36729 ****       124.0000 137.5000 111.5000 Du        
  36730 ****       124.0000 137.5000 111.7500 Du        
  36731 ****       124.0000 137.5000 112.0000 Du        
  36732 ****       124.0000 137.5000 112.2500 Du        
  36733 ****       124.0000 137.5000 112.5000 Du        
  36734 ****       124.0000 137.5000 112.7500 Du        
  36735 ****       124.0000 137.5000 113.0000 Du        
  36736 ****       124.0000 137.5000 113.2500 Du        
  36737 ****       124.0000 137.7500 108.7500 Du        
  36738 ****       124.0000 137.7500 109.0000 Du        
  36739 ****       124.0000 137.7500 109.2500 Du        
  36740 ****       124.0000 137.7500 109.5000 Du        
  36741 ****       124.0000 137.7500 109.7500 Du        
  36742 ****       124.0000 137.7500 110.0000 Du        
  36743 ****       124.0000 137.7500 110.2500 Du        
  36744 ****       124.0000 137.7500 110.5000 Du        
  36745 ****       124.0000 137.7500 110.7500 Du        
  36746 ****       124.0000 137.7500 111.0000 Du        
  36747 ****       124.0000 137.7500 111.2500 Du        
  36748 ****       124.0000 137.7500 111.5000 Du        
  36749 ****       124.0000 137.7500 111.7500 Du        
  36750 ****       124.0000 137.7500 112.0000 Du        
  36751 ****       124.0000 137.7500 112.2500 Du        
  36752 ****       124.0000 137.7500 112.5000 Du        
  36753 ****       124.0000 137.7500 112.7500 Du        
  36754 ****       124.0000 137.7500 113.0000 Du        
  36755 ****       124.0000 137.7500 113.2500 Du        
  36756 ****       124.0000 137.7500 113.5000 Du        
  36757 ****       124.0000 137.7500 113.7500 Du        
  36758 ****       124.0000 137.7500 114.0000 Du        
  36759 ****       124.0000 137.7500 114.2500 Du        
  36760 ****       124.0000 138.0000 109.0000 Du        
  36761 ****       124.0000 138.0000 109.2500 Du        
  36762 ****       124.0000 138.0000 109.5000 Du        
  36763 ****       124.0000 138.0000 109.7500 Du        
  36764 ****       124.0000 138.0000 110.0000 Du        
  36765 ****       124.0000 138.0000 110.2500 Du        
  36766 ****       124.0000 138.0000 110.5000 Du        
  36767 ****       124.0000 138.0000 110.7500 Du        
  36768 ****       124.0000 138.0000 111.0000 Du        
  36769 ****       124.0000 138.0000 111.2500 Du        
  36770 ****       124.0000 138.0000 111.7500 Du        
  36771 ****       124.0000 138.0000 112.0000 Du        
  36772 ****       124.0000 138.0000 112.2500 Du        
  36773 ****       124.0000 138.0000 112.5000 Du        
  36774 ****       124.0000 138.0000 112.7500 Du        
  36775 ****       124.0000 138.0000 113.0000 Du        
  36776 ****       124.0000 138.0000 113.2500 Du        
  36777 ****       124.0000 138.0000 113.5000 Du        
  36778 ****       124.0000 138.0000 113.7500 Du        
  36779 ****       124.0000 138.0000 114.0000 Du        
  36780 ****       124.0000 138.0000 114.2500 Du        
  36781 ****       124.0000 138.2500 109.2500 Du        
  36782 ****       124.0000 138.2500 109.5000 Du        
  36783 ****       124.0000 138.2500 109.7500 Du        
  36784 ****       124.0000 138.2500 110.0000 Du        
  36785 ****       124.0000 138.2500 110.2500 Du        
  36786 ****       124.0000 138.2500 110.5000 Du        
  36787 ****       124.0000 138.2500 113.0000 Du        
  36788 ****       124.0000 138.2500 113.2500 Du        
  36789 ****       124.0000 138.2500 113.5000 Du        
  36790 ****       124.0000 138.2500 113.7500 Du        
  36791 ****       124.0000 138.2500 114.0000 Du        
  36792 ****       124.0000 138.2500 114.2500 Du        
  36793 ****       124.0000 138.5000 109.7500 Du        
  36794 ****       124.0000 138.5000 110.0000 Du        
  36795 ****       124.0000 138.5000 113.5000 Du        
  36796 ****       124.0000 138.5000 113.7500 Du        
  36797 ****       124.0000 143.2500 134.7500 Du        
  36798 ****       124.0000 143.2500 135.0000 Du        
  36799 ****       124.0000 143.5000 134.2500 Du        
  36800 ****       124.0000 143.5000 134.5000 Du        
  36801 ****       124.0000 143.5000 134.7500 Du        
  36802 ****       124.0000 143.5000 135.0000 Du        
  36803 ****       124.0000 143.7500 134.0000 Du        
  36804 ****       124.0000 143.7500 134.2500 Du        
  36805 ****       124.0000 143.7500 134.5000 Du        
  36806 ****       124.0000 143.7500 134.7500 Du        
  36807 ****       124.0000 143.7500 135.0000 Du        
  36808 ****       124.0000 144.0000 134.7500 Du        
  36809 ****       124.0000 144.0000 135.0000 Du        
  36810 ****       124.0000 150.0000 110.7500 Du        
  36811 ****       124.0000 150.0000 111.0000 Du        
  36812 ****       124.0000 150.0000 111.2500 Du        
  36813 ****       124.0000 150.2500 110.5000 Du        
  36814 ****       124.0000 150.2500 110.7500 Du        
  36815 ****       124.0000 150.2500 111.0000 Du        
  36816 ****       124.0000 150.2500 111.2500 Du        
  36817 ****       124.0000 150.2500 111.5000 Du        
  36818 ****       124.0000 150.5000 110.5000 Du        
  36819 ****       124.0000 150.5000 110.7500 Du        
  36820 ****       124.0000 150.5000 111.0000 Du        
  36821 ****       124.0000 150.5000 111.2500 Du        
  36822 ****       124.0000 150.5000 111.5000 Du        
  36823 ****       124.0000 150.5000 123.0000 Du        
  36824 ****       124.0000 150.5000 123.2500 Du        
  36825 ****       124.0000 150.5000 123.5000 Du        
  36826 ****       124.0000 150.5000 123.7500 Du        
  36827 ****       124.0000 150.5000 124.0000 Du        
  36828 ****       124.0000 150.5000 124.2500 Du        
  36829 ****       124.0000 150.7500 110.5000 Du        
  36830 ****       124.0000 150.7500 110.7500 Du        
  36831 ****       124.0000 150.7500 111.0000 Du        
  36832 ****       124.0000 150.7500 111.2500 Du        
  36833 ****       124.0000 150.7500 111.5000 Du        
  36834 ****       124.0000 150.7500 123.0000 Du        
  36835 ****       124.0000 150.7500 123.2500 Du        
  36836 ****       124.0000 150.7500 123.5000 Du        
  36837 ****       124.0000 150.7500 123.7500 Du        
  36838 ****       124.0000 150.7500 124.0000 Du        
  36839 ****       124.0000 150.7500 124.2500 Du        
  36840 ****       124.0000 151.0000 110.7500 Du        
  36841 ****       124.0000 151.0000 111.0000 Du        
  36842 ****       124.0000 151.0000 111.2500 Du        
  36843 ****       124.0000 151.0000 111.5000 Du        
  36844 ****       124.0000 151.0000 122.7500 Du        
  36845 ****       124.0000 151.0000 123.0000 Du        
  36846 ****       124.0000 151.0000 123.2500 Du        
  36847 ****       124.0000 151.0000 123.5000 Du        
  36848 ****       124.0000 151.0000 123.7500 Du        
  36849 ****       124.0000 151.0000 124.0000 Du        
  36850 ****       124.0000 151.0000 124.2500 Du        
  36851 ****       124.0000 151.2500 111.0000 Du        
  36852 ****       124.0000 151.2500 111.2500 Du        
  36853 ****       124.0000 151.2500 111.5000 Du        
  36854 ****       124.0000 151.2500 122.7500 Du        
  36855 ****       124.0000 151.2500 123.0000 Du        
  36856 ****       124.0000 151.2500 123.2500 Du        
  36857 ****       124.0000 151.2500 123.5000 Du        
  36858 ****       124.0000 151.2500 123.7500 Du        
  36859 ****       124.0000 151.2500 124.0000 Du        
  36860 ****       124.0000 151.2500 124.2500 Du        
  36861 ****       124.0000 151.5000 123.0000 Du        
  36862 ****       124.0000 151.5000 123.2500 Du        
  36863 ****       124.0000 151.5000 123.5000 Du        
  36864 ****       124.0000 151.5000 123.7500 Du        
  36865 ****       124.0000 151.5000 124.0000 Du        
  36866 ****       124.0000 151.5000 124.2500 Du        
  36867 ****       124.0000 151.7500 123.0000 Du        
  36868 ****       124.0000 151.7500 123.2500 Du        
  36869 ****       124.0000 151.7500 123.5000 Du        
  36870 ****       124.0000 151.7500 123.7500 Du        
  36871 ****       124.0000 151.7500 124.0000 Du        
  36872 ****       124.0000 151.7500 124.2500 Du        
  36873 ****       124.0000 152.0000 123.2500 Du        
  36874 ****       124.0000 152.0000 123.5000 Du        
  36875 ****       124.0000 152.0000 123.7500 Du        
  36876 ****       124.0000 152.0000 124.0000 Du        
  36877 ****       124.0000 152.0000 124.2500 Du        
  36878 ****       124.0000 152.2500 123.2500 Du        
  36879 ****       124.0000 152.2500 123.5000 Du        
  36880 ****       124.0000 152.2500 123.7500 Du        
  36881 ****       124.0000 152.2500 124.0000 Du        
  36882 ****       124.0000 152.2500 124.2500 Du        
  36883 ****       124.0000 152.5000 123.5000 Du        
  36884 ****       124.0000 152.5000 123.7500 Du        
  36885 ****       124.0000 152.5000 124.0000 Du        
  36886 ****       124.0000 152.5000 124.2500 Du        
  36887 ****       124.0000 152.7500 123.7500 Du        
  36888 ****       124.0000 152.7500 124.0000 Du        
  36889 ****       124.0000 152.7500 124.2500 Du        
  36890 ****       124.0000 153.0000 123.7500 Du        
  36891 ****       124.0000 153.0000 124.0000 Du        
  36892 ****       124.0000 153.0000 124.2500 Du        
  36893 ****       124.0000 153.2500 123.7500 Du        
  36894 ****       124.0000 153.2500 124.0000 Du        
  36895 ****       124.0000 153.2500 124.2500 Du        
  36896 ****       124.0000 155.7500 146.0000 Du        
  36897 ****       124.0000 156.0000 117.0000 Du        
  36898 ****       124.0000 156.0000 117.2500 Du        
  36899 ****       124.0000 156.0000 145.7500 Du        
  36900 ****       124.0000 156.0000 146.0000 Du        
  36901 ****       124.0000 156.0000 146.2500 Du        
  36902 ****       124.0000 156.0000 146.7500 Du        
  36903 ****       124.0000 156.2500 116.7500 Du        
  36904 ****       124.0000 156.2500 117.0000 Du        
  36905 ****       124.0000 156.2500 117.2500 Du        
  36906 ****       124.0000 156.2500 117.5000 Du        
  36907 ****       124.0000 156.2500 117.7500 Du        
  36908 ****       124.0000 156.2500 146.0000 Du        
  36909 ****       124.0000 156.2500 146.2500 Du        
  36910 ****       124.0000 156.2500 147.0000 Du        
  36911 ****       124.0000 156.5000 116.7500 Du        
  36912 ****       124.0000 156.5000 117.0000 Du        
  36913 ****       124.0000 156.5000 117.2500 Du        
  36914 ****       124.0000 156.5000 117.5000 Du        
  36915 ****       124.0000 156.7500 116.7500 Du        
  36916 ****       124.0000 156.7500 117.0000 Du        
  36917 ****       124.0000 156.7500 117.2500 Du        
  36918 ****       124.0000 156.7500 117.5000 Du        
  36919 ****       124.0000 157.0000 117.0000 Du        
  36920 ****       124.0000 157.0000 117.2500 Du        
  36921 ****       124.2500 136.7500 108.2500 Du        
  36922 ****       124.2500 136.7500 108.5000 Du        
  36923 ****       124.2500 136.7500 108.7500 Du        
  36924 ****       124.2500 136.7500 109.0000 Du        
  36925 ****       124.2500 136.7500 109.2500 Du        
  36926 ****       124.2500 136.7500 109.5000 Du        
  36927 ****       124.2500 136.7500 109.7500 Du        
  36928 ****       124.2500 137.0000 108.0000 Du        
  36929 ****       124.2500 137.0000 108.2500 Du        
  36930 ****       124.2500 137.0000 108.5000 Du        
  36931 ****       124.2500 137.0000 108.7500 Du        
  36932 ****       124.2500 137.0000 109.0000 Du        
  36933 ****       124.2500 137.0000 109.2500 Du        
  36934 ****       124.2500 137.0000 109.5000 Du        
  36935 ****       124.2500 137.0000 109.7500 Du        
  36936 ****       124.2500 137.0000 110.0000 Du        
  36937 ****       124.2500 137.0000 110.2500 Du        
  36938 ****       124.2500 137.2500 108.2500 Du        
  36939 ****       124.2500 137.2500 108.5000 Du        
  36940 ****       124.2500 137.2500 108.7500 Du        
  36941 ****       124.2500 137.2500 109.0000 Du        
  36942 ****       124.2500 137.2500 109.2500 Du        
  36943 ****       124.2500 137.2500 109.5000 Du        
  36944 ****       124.2500 137.2500 109.7500 Du        
  36945 ****       124.2500 137.2500 110.0000 Du        
  36946 ****       124.2500 137.2500 110.2500 Du        
  36947 ****       124.2500 137.2500 110.5000 Du        
  36948 ****       124.2500 137.2500 110.7500 Du        
  36949 ****       124.2500 137.2500 111.0000 Du        
  36950 ****       124.2500 137.5000 108.5000 Du        
  36951 ****       124.2500 137.5000 108.7500 Du        
  36952 ****       124.2500 137.5000 109.0000 Du        
  36953 ****       124.2500 137.5000 109.2500 Du        
  36954 ****       124.2500 137.5000 109.5000 Du        
  36955 ****       124.2500 137.5000 109.7500 Du        
  36956 ****       124.2500 137.5000 110.0000 Du        
  36957 ****       124.2500 137.5000 110.2500 Du        
  36958 ****       124.2500 137.5000 110.5000 Du        
  36959 ****       124.2500 137.5000 110.7500 Du        
  36960 ****       124.2500 137.5000 111.0000 Du        
  36961 ****       124.2500 137.5000 111.2500 Du        
  36962 ****       124.2500 137.5000 111.5000 Du        
  36963 ****       124.2500 137.5000 111.7500 Du        
  36964 ****       124.2500 137.5000 112.0000 Du        
  36965 ****       124.2500 137.5000 112.2500 Du        
  36966 ****       124.2500 137.5000 112.5000 Du        
  36967 ****       124.2500 137.5000 112.7500 Du        
  36968 ****       124.2500 137.5000 113.0000 Du        
  36969 ****       124.2500 137.5000 113.2500 Du        
  36970 ****       124.2500 137.7500 108.7500 Du        
  36971 ****       124.2500 137.7500 109.0000 Du        
  36972 ****       124.2500 137.7500 109.2500 Du        
  36973 ****       124.2500 137.7500 109.5000 Du        
  36974 ****       124.2500 137.7500 109.7500 Du        
  36975 ****       124.2500 137.7500 110.0000 Du        
  36976 ****       124.2500 137.7500 110.2500 Du        
  36977 ****       124.2500 137.7500 110.5000 Du        
  36978 ****       124.2500 137.7500 110.7500 Du        
  36979 ****       124.2500 137.7500 111.0000 Du        
  36980 ****       124.2500 137.7500 111.2500 Du        
  36981 ****       124.2500 137.7500 111.5000 Du        
  36982 ****       124.2500 137.7500 111.7500 Du        
  36983 ****       124.2500 137.7500 112.0000 Du        
  36984 ****       124.2500 137.7500 112.2500 Du        
  36985 ****       124.2500 137.7500 112.5000 Du        
  36986 ****       124.2500 137.7500 112.7500 Du        
  36987 ****       124.2500 137.7500 113.0000 Du        
  36988 ****       124.2500 137.7500 113.2500 Du        
  36989 ****       124.2500 137.7500 113.5000 Du        
  36990 ****       124.2500 137.7500 113.7500 Du        
  36991 ****       124.2500 138.0000 109.0000 Du        
  36992 ****       124.2500 138.0000 109.2500 Du        
  36993 ****       124.2500 138.0000 109.5000 Du        
  36994 ****       124.2500 138.0000 109.7500 Du        
  36995 ****       124.2500 138.0000 110.0000 Du        
  36996 ****       124.2500 138.0000 110.2500 Du        
  36997 ****       124.2500 138.0000 110.5000 Du        
  36998 ****       124.2500 138.0000 110.7500 Du        
  36999 ****       124.2500 138.0000 111.0000 Du        
  37000 ****       124.2500 138.0000 111.2500 Du        
  37001 ****       124.2500 138.0000 111.5000 Du        
  37002 ****       124.2500 138.0000 111.7500 Du        
  37003 ****       124.2500 138.0000 112.0000 Du        
  37004 ****       124.2500 138.0000 112.2500 Du        
  37005 ****       124.2500 138.0000 112.5000 Du        
  37006 ****       124.2500 138.0000 112.7500 Du        
  37007 ****       124.2500 138.0000 113.0000 Du        
  37008 ****       124.2500 138.0000 113.2500 Du        
  37009 ****       124.2500 138.0000 113.5000 Du        
  37010 ****       124.2500 138.0000 113.7500 Du        
  37011 ****       124.2500 138.0000 114.0000 Du        
  37012 ****       124.2500 138.2500 109.2500 Du        
  37013 ****       124.2500 138.2500 109.5000 Du        
  37014 ****       124.2500 138.2500 109.7500 Du        
  37015 ****       124.2500 138.2500 110.0000 Du        
  37016 ****       124.2500 138.2500 110.2500 Du        
  37017 ****       124.2500 138.2500 110.5000 Du        
  37018 ****       124.2500 138.2500 113.0000 Du        
  37019 ****       124.2500 138.2500 113.2500 Du        
  37020 ****       124.2500 138.2500 113.5000 Du        
  37021 ****       124.2500 138.2500 113.7500 Du        
  37022 ****       124.2500 143.2500 134.5000 Du        
  37023 ****       124.2500 143.2500 134.7500 Du        
  37024 ****       124.2500 143.2500 135.0000 Du        
  37025 ****       124.2500 143.2500 135.2500 Du        
  37026 ****       124.2500 143.5000 134.0000 Du        
  37027 ****       124.2500 143.5000 134.2500 Du        
  37028 ****       124.2500 143.5000 134.5000 Du        
  37029 ****       124.2500 143.5000 134.7500 Du        
  37030 ****       124.2500 143.5000 135.0000 Du        
  37031 ****       124.2500 143.5000 135.2500 Du        
  37032 ****       124.2500 143.7500 134.0000 Du        
  37033 ****       124.2500 143.7500 134.2500 Du        
  37034 ****       124.2500 143.7500 134.5000 Du        
  37035 ****       124.2500 143.7500 134.7500 Du        
  37036 ****       124.2500 143.7500 135.0000 Du        
  37037 ****       124.2500 143.7500 135.2500 Du        
  37038 ****       124.2500 144.0000 134.7500 Du        
  37039 ****       124.2500 144.0000 135.0000 Du        
  37040 ****       124.2500 144.0000 135.2500 Du        
  37041 ****       124.2500 150.0000 110.5000 Du        
  37042 ****       124.2500 150.0000 110.7500 Du        
  37043 ****       124.2500 150.0000 111.0000 Du        
  37044 ****       124.2500 150.0000 111.2500 Du        
  37045 ****       124.2500 150.0000 111.5000 Du        
  37046 ****       124.2500 150.2500 110.2500 Du        
  37047 ****       124.2500 150.2500 110.5000 Du        
  37048 ****       124.2500 150.2500 110.7500 Du        
  37049 ****       124.2500 150.2500 111.0000 Du        
  37050 ****       124.2500 150.2500 111.2500 Du        
  37051 ****       124.2500 150.2500 111.5000 Du        
  37052 ****       124.2500 150.2500 123.2500 Du        
  37053 ****       124.2500 150.2500 123.5000 Du        
  37054 ****       124.2500 150.2500 123.7500 Du        
  37055 ****       124.2500 150.2500 124.0000 Du        
  37056 ****       124.2500 150.2500 124.2500 Du        
  37057 ****       124.2500 150.5000 110.5000 Du        
  37058 ****       124.2500 150.5000 110.7500 Du        
  37059 ****       124.2500 150.5000 111.0000 Du        
  37060 ****       124.2500 150.5000 111.2500 Du        
  37061 ****       124.2500 150.5000 111.5000 Du        
  37062 ****       124.2500 150.5000 123.0000 Du        
  37063 ****       124.2500 150.5000 123.2500 Du        
  37064 ****       124.2500 150.5000 123.5000 Du        
  37065 ****       124.2500 150.5000 123.7500 Du        
  37066 ****       124.2500 150.5000 124.0000 Du        
  37067 ****       124.2500 150.5000 124.2500 Du        
  37068 ****       124.2500 150.7500 110.5000 Du        
  37069 ****       124.2500 150.7500 110.7500 Du        
  37070 ****       124.2500 150.7500 111.0000 Du        
  37071 ****       124.2500 150.7500 111.2500 Du        
  37072 ****       124.2500 150.7500 111.5000 Du        
  37073 ****       124.2500 150.7500 111.7500 Du        
  37074 ****       124.2500 150.7500 123.0000 Du        
  37075 ****       124.2500 150.7500 123.2500 Du        
  37076 ****       124.2500 150.7500 123.5000 Du        
  37077 ****       124.2500 150.7500 123.7500 Du        
  37078 ****       124.2500 150.7500 124.0000 Du        
  37079 ****       124.2500 150.7500 124.2500 Du        
  37080 ****       124.2500 151.0000 110.7500 Du        
  37081 ****       124.2500 151.0000 111.0000 Du        
  37082 ****       124.2500 151.0000 111.2500 Du        
  37083 ****       124.2500 151.0000 111.5000 Du        
  37084 ****       124.2500 151.0000 111.7500 Du        
  37085 ****       124.2500 151.0000 123.0000 Du        
  37086 ****       124.2500 151.0000 123.2500 Du        
  37087 ****       124.2500 151.0000 123.5000 Du        
  37088 ****       124.2500 151.0000 123.7500 Du        
  37089 ****       124.2500 151.0000 124.0000 Du        
  37090 ****       124.2500 151.0000 124.2500 Du        
  37091 ****       124.2500 151.2500 110.7500 Du        
  37092 ****       124.2500 151.2500 111.0000 Du        
  37093 ****       124.2500 151.2500 111.2500 Du        
  37094 ****       124.2500 151.2500 111.5000 Du        
  37095 ****       124.2500 151.2500 123.0000 Du        
  37096 ****       124.2500 151.2500 123.2500 Du        
  37097 ****       124.2500 151.2500 123.5000 Du        
  37098 ****       124.2500 151.2500 123.7500 Du        
  37099 ****       124.2500 151.2500 124.0000 Du        
  37100 ****       124.2500 151.2500 124.2500 Du        
  37101 ****       124.2500 151.5000 111.5000 Du        
  37102 ****       124.2500 151.5000 123.0000 Du        
  37103 ****       124.2500 151.5000 123.2500 Du        
  37104 ****       124.2500 151.5000 123.5000 Du        
  37105 ****       124.2500 151.5000 123.7500 Du        
  37106 ****       124.2500 151.5000 124.0000 Du        
  37107 ****       124.2500 151.5000 124.2500 Du        
  37108 ****       124.2500 151.7500 111.5000 Du        
  37109 ****       124.2500 151.7500 123.2500 Du        
  37110 ****       124.2500 151.7500 123.5000 Du        
  37111 ****       124.2500 151.7500 123.7500 Du        
  37112 ****       124.2500 151.7500 124.0000 Du        
  37113 ****       124.2500 151.7500 124.2500 Du        
  37114 ****       124.2500 152.0000 123.2500 Du        
  37115 ****       124.2500 152.0000 123.5000 Du        
  37116 ****       124.2500 152.0000 123.7500 Du        
  37117 ****       124.2500 152.0000 124.0000 Du        
  37118 ****       124.2500 152.0000 124.2500 Du        
  37119 ****       124.2500 152.2500 123.5000 Du        
  37120 ****       124.2500 152.2500 123.7500 Du        
  37121 ****       124.2500 152.2500 124.0000 Du        
  37122 ****       124.2500 152.2500 124.2500 Du        
  37123 ****       124.2500 152.5000 123.7500 Du        
  37124 ****       124.2500 152.5000 124.0000 Du        
  37125 ****       124.2500 152.5000 124.2500 Du        
  37126 ****       124.2500 152.7500 123.7500 Du        
  37127 ****       124.2500 152.7500 124.0000 Du        
  37128 ****       124.2500 152.7500 124.2500 Du        
  37129 ****       124.2500 153.0000 123.7500 Du        
  37130 ****       124.2500 153.0000 124.0000 Du        
  37131 ****       124.2500 153.0000 124.2500 Du        
  37132 ****       124.2500 153.2500 124.0000 Du        
  37133 ****       124.2500 153.2500 124.2500 Du        
  37134 ****       124.2500 156.0000 117.0000 Du        
  37135 ****       124.2500 156.0000 117.2500 Du        
  37136 ****       124.2500 156.0000 146.2500 Du        
  37137 ****       124.2500 156.0000 146.5000 Du        
  37138 ****       124.2500 156.0000 146.7500 Du        
  37139 ****       124.2500 156.0000 147.0000 Du        
  37140 ****       124.2500 156.2500 116.7500 Du        
  37141 ****       124.2500 156.2500 117.0000 Du        
  37142 ****       124.2500 156.2500 117.2500 Du        
  37143 ****       124.2500 156.2500 117.5000 Du        
  37144 ****       124.2500 156.2500 146.2500 Du        
  37145 ****       124.2500 156.2500 146.5000 Du        
  37146 ****       124.2500 156.2500 146.7500 Du        
  37147 ****       124.2500 156.2500 147.0000 Du        
  37148 ****       124.2500 156.2500 147.2500 Du        
  37149 ****       124.2500 156.5000 116.5000 Du        
  37150 ****       124.2500 156.5000 116.7500 Du        
  37151 ****       124.2500 156.5000 117.0000 Du        
  37152 ****       124.2500 156.5000 117.2500 Du        
  37153 ****       124.2500 156.5000 117.5000 Du        
  37154 ****       124.2500 156.5000 146.2500 Du        
  37155 ****       124.2500 156.5000 146.7500 Du        
  37156 ****       124.2500 156.5000 147.0000 Du        
  37157 ****       124.2500 156.5000 147.2500 Du        
  37158 ****       124.2500 156.7500 116.7500 Du        
  37159 ****       124.2500 156.7500 117.0000 Du        
  37160 ****       124.2500 156.7500 117.2500 Du        
  37161 ****       124.2500 157.0000 117.0000 Du        
  37162 ****       124.2500 169.0000 113.7500 Du        
  37163 ****       124.2500 169.0000 114.0000 Du        
  37164 ****       124.2500 169.0000 114.2500 Du        
  37165 ****       124.2500 169.2500 114.0000 Du        
  37166 ****       124.2500 169.2500 114.2500 Du        
  37167 ****       124.2500 169.5000 114.0000 Du        
  37168 ****       124.2500 169.5000 114.2500 Du        
  37169 ****       124.2500 169.7500 114.0000 Du        
  37170 ****       124.2500 169.7500 114.2500 Du        
  37171 ****       124.2500 170.0000 114.2500 Du        
  37172 ****       124.5000 137.0000 108.5000 Du        
  37173 ****       124.5000 137.0000 108.7500 Du        
  37174 ****       124.5000 137.0000 109.0000 Du        
  37175 ****       124.5000 137.0000 109.2500 Du        
  37176 ****       124.5000 137.0000 109.5000 Du        
  37177 ****       124.5000 137.0000 109.7500 Du        
  37178 ****       124.5000 137.0000 110.0000 Du        
  37179 ****       124.5000 137.2500 108.5000 Du        
  37180 ****       124.5000 137.2500 108.7500 Du        
  37181 ****       124.5000 137.2500 109.0000 Du        
  37182 ****       124.5000 137.2500 109.2500 Du        
  37183 ****       124.5000 137.2500 109.5000 Du        
  37184 ****       124.5000 137.2500 109.7500 Du        
  37185 ****       124.5000 137.2500 110.0000 Du        
  37186 ****       124.5000 137.2500 110.2500 Du        
  37187 ****       124.5000 137.5000 108.5000 Du        
  37188 ****       124.5000 137.5000 108.7500 Du        
  37189 ****       124.5000 137.5000 109.0000 Du        
  37190 ****       124.5000 137.5000 109.2500 Du        
  37191 ****       124.5000 137.5000 109.5000 Du        
  37192 ****       124.5000 137.5000 109.7500 Du        
  37193 ****       124.5000 137.5000 110.0000 Du        
  37194 ****       124.5000 137.5000 110.2500 Du        
  37195 ****       124.5000 137.5000 110.5000 Du        
  37196 ****       124.5000 137.5000 110.7500 Du        
  37197 ****       124.5000 137.5000 111.0000 Du        
  37198 ****       124.5000 137.5000 111.7500 Du        
  37199 ****       124.5000 137.5000 112.0000 Du        
  37200 ****       124.5000 137.5000 112.2500 Du        
  37201 ****       124.5000 137.7500 108.7500 Du        
  37202 ****       124.5000 137.7500 109.0000 Du        
  37203 ****       124.5000 137.7500 109.2500 Du        
  37204 ****       124.5000 137.7500 109.5000 Du        
  37205 ****       124.5000 137.7500 109.7500 Du        
  37206 ****       124.5000 137.7500 110.0000 Du        
  37207 ****       124.5000 137.7500 110.2500 Du        
  37208 ****       124.5000 137.7500 110.5000 Du        
  37209 ****       124.5000 137.7500 110.7500 Du        
  37210 ****       124.5000 137.7500 111.0000 Du        
  37211 ****       124.5000 137.7500 111.2500 Du        
  37212 ****       124.5000 137.7500 111.5000 Du        
  37213 ****       124.5000 137.7500 111.7500 Du        
  37214 ****       124.5000 137.7500 112.0000 Du        
  37215 ****       124.5000 137.7500 112.2500 Du        
  37216 ****       124.5000 138.0000 109.0000 Du        
  37217 ****       124.5000 138.0000 109.2500 Du        
  37218 ****       124.5000 138.0000 109.5000 Du        
  37219 ****       124.5000 138.0000 109.7500 Du        
  37220 ****       124.5000 138.0000 110.0000 Du        
  37221 ****       124.5000 138.0000 110.2500 Du        
  37222 ****       124.5000 138.0000 110.5000 Du        
  37223 ****       124.5000 138.0000 110.7500 Du        
  37224 ****       124.5000 138.0000 113.2500 Du        
  37225 ****       124.5000 138.2500 109.5000 Du        
  37226 ****       124.5000 138.2500 109.7500 Du        
  37227 ****       124.5000 138.2500 110.0000 Du        
  37228 ****       124.5000 143.0000 134.7500 Du        
  37229 ****       124.5000 143.0000 135.0000 Du        
  37230 ****       124.5000 143.0000 135.2500 Du        
  37231 ****       124.5000 143.2500 134.2500 Du        
  37232 ****       124.5000 143.2500 134.5000 Du        
  37233 ****       124.5000 143.2500 134.7500 Du        
  37234 ****       124.5000 143.2500 135.0000 Du        
  37235 ****       124.5000 143.2500 135.2500 Du        
  37236 ****       124.5000 143.2500 135.5000 Du        
  37237 ****       124.5000 143.5000 134.0000 Du        
  37238 ****       124.5000 143.5000 134.2500 Du        
  37239 ****       124.5000 143.5000 134.5000 Du        
  37240 ****       124.5000 143.5000 134.7500 Du        
  37241 ****       124.5000 143.5000 135.0000 Du        
  37242 ****       124.5000 143.5000 135.2500 Du        
  37243 ****       124.5000 143.7500 133.7500 Du        
  37244 ****       124.5000 143.7500 134.0000 Du        
  37245 ****       124.5000 143.7500 134.2500 Du        
  37246 ****       124.5000 143.7500 134.5000 Du        
  37247 ****       124.5000 143.7500 134.7500 Du        
  37248 ****       124.5000 143.7500 135.0000 Du        
  37249 ****       124.5000 143.7500 135.2500 Du        
  37250 ****       124.5000 144.0000 133.7500 Du        
  37251 ****       124.5000 144.0000 134.0000 Du        
  37252 ****       124.5000 144.0000 134.2500 Du        
  37253 ****       124.5000 144.0000 134.5000 Du        
  37254 ****       124.5000 144.0000 134.7500 Du        
  37255 ****       124.5000 144.0000 135.0000 Du        
  37256 ****       124.5000 144.0000 135.2500 Du        
  37257 ****       124.5000 144.2500 134.0000 Du        
  37258 ****       124.5000 144.2500 134.2500 Du        
  37259 ****       124.5000 144.2500 134.5000 Du        
  37260 ****       124.5000 144.2500 134.7500 Du        
  37261 ****       124.5000 144.2500 135.0000 Du        
  37262 ****       124.5000 149.7500 110.5000 Du        
  37263 ****       124.5000 149.7500 110.7500 Du        
  37264 ****       124.5000 149.7500 111.0000 Du        
  37265 ****       124.5000 149.7500 111.2500 Du        
  37266 ****       124.5000 150.0000 110.5000 Du        
  37267 ****       124.5000 150.0000 110.7500 Du        
  37268 ****       124.5000 150.0000 111.0000 Du        
  37269 ****       124.5000 150.0000 111.2500 Du        
  37270 ****       124.5000 150.0000 111.5000 Du        
  37271 ****       124.5000 150.0000 111.7500 Du        
  37272 ****       124.5000 150.0000 123.7500 Du        
  37273 ****       124.5000 150.0000 124.0000 Du        
  37274 ****       124.5000 150.2500 110.5000 Du        
  37275 ****       124.5000 150.2500 110.7500 Du        
  37276 ****       124.5000 150.2500 111.0000 Du        
  37277 ****       124.5000 150.2500 111.2500 Du        
  37278 ****       124.5000 150.2500 111.5000 Du        
  37279 ****       124.5000 150.2500 111.7500 Du        
  37280 ****       124.5000 150.2500 123.2500 Du        
  37281 ****       124.5000 150.2500 123.5000 Du        
  37282 ****       124.5000 150.2500 123.7500 Du        
  37283 ****       124.5000 150.2500 124.0000 Du        
  37284 ****       124.5000 150.2500 124.2500 Du        
  37285 ****       124.5000 150.5000 110.5000 Du        
  37286 ****       124.5000 150.5000 110.7500 Du        
  37287 ****       124.5000 150.5000 111.0000 Du        
  37288 ****       124.5000 150.5000 111.2500 Du        
  37289 ****       124.5000 150.5000 111.5000 Du        
  37290 ****       124.5000 150.5000 111.7500 Du        
  37291 ****       124.5000 150.5000 123.2500 Du        
  37292 ****       124.5000 150.5000 123.5000 Du        
  37293 ****       124.5000 150.5000 123.7500 Du        
  37294 ****       124.5000 150.5000 124.0000 Du        
  37295 ****       124.5000 150.5000 124.2500 Du        
  37296 ****       124.5000 150.7500 110.5000 Du        
  37297 ****       124.5000 150.7500 110.7500 Du        
  37298 ****       124.5000 150.7500 111.0000 Du        
  37299 ****       124.5000 150.7500 111.2500 Du        
  37300 ****       124.5000 150.7500 111.5000 Du        
  37301 ****       124.5000 150.7500 111.7500 Du        
  37302 ****       124.5000 150.7500 123.2500 Du        
  37303 ****       124.5000 150.7500 123.5000 Du        
  37304 ****       124.5000 150.7500 123.7500 Du        
  37305 ****       124.5000 150.7500 124.0000 Du        
  37306 ****       124.5000 150.7500 124.2500 Du        
  37307 ****       124.5000 151.0000 110.7500 Du        
  37308 ****       124.5000 151.0000 111.0000 Du        
  37309 ****       124.5000 151.0000 111.2500 Du        
  37310 ****       124.5000 151.0000 111.5000 Du        
  37311 ****       124.5000 151.0000 111.7500 Du        
  37312 ****       124.5000 151.0000 123.2500 Du        
  37313 ****       124.5000 151.0000 123.5000 Du        
  37314 ****       124.5000 151.0000 123.7500 Du        
  37315 ****       124.5000 151.0000 124.0000 Du        
  37316 ****       124.5000 151.0000 124.2500 Du        
  37317 ****       124.5000 151.2500 111.0000 Du        
  37318 ****       124.5000 151.2500 111.2500 Du        
  37319 ****       124.5000 151.2500 111.5000 Du        
  37320 ****       124.5000 151.2500 111.7500 Du        
  37321 ****       124.5000 151.2500 123.2500 Du        
  37322 ****       124.5000 151.2500 123.5000 Du        
  37323 ****       124.5000 151.2500 123.7500 Du        
  37324 ****       124.5000 151.2500 124.0000 Du        
  37325 ****       124.5000 151.2500 124.2500 Du        
  37326 ****       124.5000 151.5000 111.2500 Du        
  37327 ****       124.5000 151.5000 111.5000 Du        
  37328 ****       124.5000 151.5000 111.7500 Du        
  37329 ****       124.5000 151.5000 123.2500 Du        
  37330 ****       124.5000 151.5000 123.5000 Du        
  37331 ****       124.5000 151.5000 123.7500 Du        
  37332 ****       124.5000 151.5000 124.0000 Du        
  37333 ****       124.5000 151.5000 124.2500 Du        
  37334 ****       124.5000 151.7500 123.2500 Du        
  37335 ****       124.5000 151.7500 123.5000 Du        
  37336 ****       124.5000 151.7500 123.7500 Du        
  37337 ****       124.5000 151.7500 124.0000 Du        
  37338 ****       124.5000 151.7500 124.2500 Du        
  37339 ****       124.5000 152.0000 123.2500 Du        
  37340 ****       124.5000 152.0000 123.5000 Du        
  37341 ****       124.5000 152.0000 123.7500 Du        
  37342 ****       124.5000 152.0000 124.0000 Du        
  37343 ****       124.5000 152.0000 124.2500 Du        
  37344 ****       124.5000 152.2500 123.7500 Du        
  37345 ****       124.5000 152.2500 124.0000 Du        
  37346 ****       124.5000 152.2500 124.2500 Du        
  37347 ****       124.5000 156.0000 116.7500 Du        
  37348 ****       124.5000 156.0000 117.0000 Du        
  37349 ****       124.5000 156.0000 117.2500 Du        
  37350 ****       124.5000 156.2500 116.5000 Du        
  37351 ****       124.5000 156.2500 116.7500 Du        
  37352 ****       124.5000 156.2500 117.0000 Du        
  37353 ****       124.5000 156.2500 117.2500 Du        
  37354 ****       124.5000 156.2500 117.5000 Du        
  37355 ****       124.5000 156.2500 146.7500 Du        
  37356 ****       124.5000 156.5000 116.5000 Du        
  37357 ****       124.5000 156.5000 116.7500 Du        
  37358 ****       124.5000 156.5000 117.0000 Du        
  37359 ****       124.5000 156.5000 117.2500 Du        
  37360 ****       124.5000 156.5000 146.7500 Du        
  37361 ****       124.5000 156.5000 147.0000 Du        
  37362 ****       124.5000 156.5000 147.2500 Du        
  37363 ****       124.5000 156.5000 147.5000 Du        
  37364 ****       124.5000 156.7500 116.7500 Du        
  37365 ****       124.5000 156.7500 117.0000 Du        
  37366 ****       124.5000 156.7500 147.0000 Du        
  37367 ****       124.5000 156.7500 147.2500 Du        
  37368 ****       124.5000 156.7500 147.5000 Du        
  37369 ****       124.5000 156.7500 147.7500 Du        
  37370 ****       124.5000 157.0000 116.7500 Du        
  37371 ****       124.5000 157.0000 117.0000 Du        
  37372 ****       124.5000 157.0000 148.0000 Du        
  37373 ****       124.5000 157.0000 148.2500 Du        
  37374 ****       124.5000 157.5000 148.7500 Du        
  37375 ****       124.5000 169.0000 113.7500 Du        
  37376 ****       124.5000 169.0000 114.0000 Du        
  37377 ****       124.5000 169.0000 114.2500 Du        
  37378 ****       124.5000 169.2500 113.7500 Du        
  37379 ****       124.5000 169.2500 114.0000 Du        
  37380 ****       124.5000 169.2500 114.2500 Du        
  37381 ****       124.5000 169.5000 113.7500 Du        
  37382 ****       124.5000 169.5000 114.0000 Du        
  37383 ****       124.5000 169.5000 114.2500 Du        
  37384 ****       124.5000 169.5000 114.5000 Du        
  37385 ****       124.5000 169.7500 114.0000 Du        
  37386 ****       124.5000 169.7500 114.2500 Du        
  37387 ****       124.5000 169.7500 114.5000 Du        
  37388 ****       124.5000 170.0000 114.2500 Du        
  37389 ****       124.5000 170.0000 114.5000 Du        
  37390 ****       124.5000 170.2500 114.5000 Du        
  37391 ****       124.7500 137.0000 108.7500 Du        
  37392 ****       124.7500 137.0000 109.0000 Du        
  37393 ****       124.7500 137.0000 109.2500 Du        
  37394 ****       124.7500 137.2500 108.5000 Du        
  37395 ****       124.7500 137.2500 108.7500 Du        
  37396 ****       124.7500 137.2500 109.0000 Du        
  37397 ****       124.7500 137.2500 109.2500 Du        
  37398 ****       124.7500 137.2500 109.5000 Du        
  37399 ****       124.7500 137.2500 109.7500 Du        
  37400 ****       124.7500 137.2500 110.0000 Du        
  37401 ****       124.7500 137.2500 110.2500 Du        
  37402 ****       124.7500 137.5000 108.5000 Du        
  37403 ****       124.7500 137.5000 108.7500 Du        
  37404 ****       124.7500 137.5000 109.0000 Du        
  37405 ****       124.7500 137.5000 109.2500 Du        
  37406 ****       124.7500 137.5000 109.5000 Du        
  37407 ****       124.7500 137.5000 109.7500 Du        
  37408 ****       124.7500 137.5000 110.0000 Du        
  37409 ****       124.7500 137.5000 110.2500 Du        
  37410 ****       124.7500 137.5000 110.5000 Du        
  37411 ****       124.7500 137.5000 110.7500 Du        
  37412 ****       124.7500 137.7500 108.7500 Du        
  37413 ****       124.7500 137.7500 109.0000 Du        
  37414 ****       124.7500 137.7500 109.2500 Du        
  37415 ****       124.7500 137.7500 109.5000 Du        
  37416 ****       124.7500 137.7500 109.7500 Du        
  37417 ****       124.7500 137.7500 110.0000 Du        
  37418 ****       124.7500 137.7500 110.2500 Du        
  37419 ****       124.7500 137.7500 110.5000 Du        
  37420 ****       124.7500 137.7500 110.7500 Du        
  37421 ****       124.7500 138.0000 109.0000 Du        
  37422 ****       124.7500 138.0000 109.2500 Du        
  37423 ****       124.7500 138.0000 109.5000 Du        
  37424 ****       124.7500 138.0000 109.7500 Du        
  37425 ****       124.7500 138.0000 110.0000 Du        
  37426 ****       124.7500 138.0000 110.2500 Du        
  37427 ****       124.7500 143.0000 134.7500 Du        
  37428 ****       124.7500 143.0000 135.0000 Du        
  37429 ****       124.7500 143.0000 135.2500 Du        
  37430 ****       124.7500 143.0000 135.5000 Du        
  37431 ****       124.7500 143.2500 134.0000 Du        
  37432 ****       124.7500 143.2500 134.2500 Du        
  37433 ****       124.7500 143.2500 134.5000 Du        
  37434 ****       124.7500 143.2500 134.7500 Du        
  37435 ****       124.7500 143.2500 135.0000 Du        
  37436 ****       124.7500 143.2500 135.2500 Du        
  37437 ****       124.7500 143.2500 135.5000 Du        
  37438 ****       124.7500 143.5000 133.7500 Du        
  37439 ****       124.7500 143.5000 134.0000 Du        
  37440 ****       124.7500 143.5000 134.2500 Du        
  37441 ****       124.7500 143.5000 134.5000 Du        
  37442 ****       124.7500 143.5000 134.7500 Du        
  37443 ****       124.7500 143.5000 135.0000 Du        
  37444 ****       124.7500 143.5000 135.2500 Du        
  37445 ****       124.7500 143.5000 135.5000 Du        
  37446 ****       124.7500 143.7500 133.2500 Du        
  37447 ****       124.7500 143.7500 133.5000 Du        
  37448 ****       124.7500 143.7500 133.7500 Du        
  37449 ****       124.7500 143.7500 134.0000 Du        
  37450 ****       124.7500 143.7500 134.2500 Du        
  37451 ****       124.7500 143.7500 134.5000 Du        
  37452 ****       124.7500 143.7500 134.7500 Du        
  37453 ****       124.7500 143.7500 135.0000 Du        
  37454 ****       124.7500 143.7500 135.2500 Du        
  37455 ****       124.7500 143.7500 135.5000 Du        
  37456 ****       124.7500 144.0000 133.2500 Du        
  37457 ****       124.7500 144.0000 133.5000 Du        
  37458 ****       124.7500 144.0000 133.7500 Du        
  37459 ****       124.7500 144.0000 134.0000 Du        
  37460 ****       124.7500 144.0000 134.2500 Du        
  37461 ****       124.7500 144.0000 134.5000 Du        
  37462 ****       124.7500 144.0000 134.7500 Du        
  37463 ****       124.7500 144.0000 135.0000 Du        
  37464 ****       124.7500 144.0000 135.2500 Du        
  37465 ****       124.7500 144.0000 135.5000 Du        
  37466 ****       124.7500 144.2500 133.2500 Du        
  37467 ****       124.7500 144.2500 133.7500 Du        
  37468 ****       124.7500 144.2500 134.0000 Du        
  37469 ****       124.7500 144.2500 134.2500 Du        
  37470 ****       124.7500 144.2500 134.5000 Du        
  37471 ****       124.7500 144.2500 134.7500 Du        
  37472 ****       124.7500 144.2500 135.0000 Du        
  37473 ****       124.7500 144.2500 135.2500 Du        
  37474 ****       124.7500 149.5000 110.5000 Du        
  37475 ****       124.7500 149.5000 110.7500 Du        
  37476 ****       124.7500 149.5000 111.0000 Du        
  37477 ****       124.7500 149.7500 110.5000 Du        
  37478 ****       124.7500 149.7500 110.7500 Du        
  37479 ****       124.7500 149.7500 111.0000 Du        
  37480 ****       124.7500 149.7500 111.2500 Du        
  37481 ****       124.7500 149.7500 111.5000 Du        
  37482 ****       124.7500 149.7500 123.7500 Du        
  37483 ****       124.7500 149.7500 124.0000 Du        
  37484 ****       124.7500 150.0000 110.2500 Du        
  37485 ****       124.7500 150.0000 110.5000 Du        
  37486 ****       124.7500 150.0000 110.7500 Du        
  37487 ****       124.7500 150.0000 111.0000 Du        
  37488 ****       124.7500 150.0000 111.2500 Du        
  37489 ****       124.7500 150.0000 111.5000 Du        
  37490 ****       124.7500 150.0000 111.7500 Du        
  37491 ****       124.7500 150.0000 123.5000 Du        
  37492 ****       124.7500 150.0000 123.7500 Du        
  37493 ****       124.7500 150.0000 124.0000 Du        
  37494 ****       124.7500 150.0000 124.2500 Du        
  37495 ****       124.7500 150.2500 110.5000 Du        
  37496 ****       124.7500 150.2500 110.7500 Du        
  37497 ****       124.7500 150.2500 111.0000 Du        
  37498 ****       124.7500 150.2500 111.2500 Du        
  37499 ****       124.7500 150.2500 111.5000 Du        
  37500 ****       124.7500 150.2500 111.7500 Du        
  37501 ****       124.7500 150.2500 112.0000 Du        
  37502 ****       124.7500 150.2500 123.5000 Du        
  37503 ****       124.7500 150.2500 123.7500 Du        
  37504 ****       124.7500 150.2500 124.0000 Du        
  37505 ****       124.7500 150.2500 124.2500 Du        
  37506 ****       124.7500 150.5000 110.5000 Du        
  37507 ****       124.7500 150.5000 110.7500 Du        
  37508 ****       124.7500 150.5000 111.0000 Du        
  37509 ****       124.7500 150.5000 111.2500 Du        
  37510 ****       124.7500 150.5000 111.5000 Du        
  37511 ****       124.7500 150.5000 111.7500 Du        
  37512 ****       124.7500 150.5000 123.5000 Du        
  37513 ****       124.7500 150.5000 123.7500 Du        
  37514 ****       124.7500 150.5000 124.0000 Du        
  37515 ****       124.7500 150.5000 124.2500 Du        
  37516 ****       124.7500 150.7500 110.5000 Du        
  37517 ****       124.7500 150.7500 110.7500 Du        
  37518 ****       124.7500 150.7500 111.0000 Du        
  37519 ****       124.7500 150.7500 111.2500 Du        
  37520 ****       124.7500 150.7500 111.5000 Du        
  37521 ****       124.7500 150.7500 111.7500 Du        
  37522 ****       124.7500 150.7500 112.0000 Du        
  37523 ****       124.7500 150.7500 123.2500 Du        
  37524 ****       124.7500 150.7500 123.5000 Du        
  37525 ****       124.7500 150.7500 123.7500 Du        
  37526 ****       124.7500 150.7500 124.0000 Du        
  37527 ****       124.7500 150.7500 124.2500 Du        
  37528 ****       124.7500 151.0000 110.7500 Du        
  37529 ****       124.7500 151.0000 111.0000 Du        
  37530 ****       124.7500 151.0000 111.2500 Du        
  37531 ****       124.7500 151.0000 111.5000 Du        
  37532 ****       124.7500 151.0000 111.7500 Du        
  37533 ****       124.7500 151.0000 112.0000 Du        
  37534 ****       124.7500 151.0000 123.2500 Du        
  37535 ****       124.7500 151.0000 123.5000 Du        
  37536 ****       124.7500 151.0000 123.7500 Du        
  37537 ****       124.7500 151.0000 124.0000 Du        
  37538 ****       124.7500 151.0000 124.2500 Du        
  37539 ****       124.7500 151.2500 111.0000 Du        
  37540 ****       124.7500 151.2500 111.2500 Du        
  37541 ****       124.7500 151.2500 111.5000 Du        
  37542 ****       124.7500 151.2500 111.7500 Du        
  37543 ****       124.7500 151.2500 112.0000 Du        
  37544 ****       124.7500 151.2500 123.2500 Du        
  37545 ****       124.7500 151.2500 123.5000 Du        
  37546 ****       124.7500 151.2500 123.7500 Du        
  37547 ****       124.7500 151.2500 124.0000 Du        
  37548 ****       124.7500 151.2500 124.2500 Du        
  37549 ****       124.7500 151.5000 111.2500 Du        
  37550 ****       124.7500 151.5000 111.5000 Du        
  37551 ****       124.7500 151.5000 111.7500 Du        
  37552 ****       124.7500 151.5000 123.2500 Du        
  37553 ****       124.7500 151.5000 123.5000 Du        
  37554 ****       124.7500 151.5000 123.7500 Du        
  37555 ****       124.7500 151.5000 124.0000 Du        
  37556 ****       124.7500 151.5000 124.2500 Du        
  37557 ****       124.7500 151.7500 111.5000 Du        
  37558 ****       124.7500 151.7500 111.7500 Du        
  37559 ****       124.7500 151.7500 123.5000 Du        
  37560 ****       124.7500 151.7500 123.7500 Du        
  37561 ****       124.7500 151.7500 124.0000 Du        
  37562 ****       124.7500 151.7500 124.2500 Du        
  37563 ****       124.7500 152.0000 111.5000 Du        
  37564 ****       124.7500 152.0000 111.7500 Du        
  37565 ****       124.7500 152.0000 123.5000 Du        
  37566 ****       124.7500 152.0000 123.7500 Du        
  37567 ****       124.7500 152.0000 124.0000 Du        
  37568 ****       124.7500 152.0000 124.2500 Du        
  37569 ****       124.7500 152.2500 123.7500 Du        
  37570 ****       124.7500 152.2500 124.0000 Du        
  37571 ****       124.7500 152.2500 124.2500 Du        
  37572 ****       124.7500 153.0000 124.2500 Du        
  37573 ****       124.7500 155.7500 117.0000 Du        
  37574 ****       124.7500 156.0000 116.5000 Du        
  37575 ****       124.7500 156.0000 116.7500 Du        
  37576 ****       124.7500 156.0000 117.0000 Du        
  37577 ****       124.7500 156.0000 117.2500 Du        
  37578 ****       124.7500 156.0000 147.0000 Du        
  37579 ****       124.7500 156.2500 116.2500 Du        
  37580 ****       124.7500 156.2500 116.5000 Du        
  37581 ****       124.7500 156.2500 116.7500 Du        
  37582 ****       124.7500 156.2500 117.0000 Du        
  37583 ****       124.7500 156.2500 117.2500 Du        
  37584 ****       124.7500 156.2500 146.7500 Du        
  37585 ****       124.7500 156.2500 147.0000 Du        
  37586 ****       124.7500 156.2500 147.2500 Du        
  37587 ****       124.7500 156.5000 116.2500 Du        
  37588 ****       124.7500 156.5000 116.5000 Du        
  37589 ****       124.7500 156.5000 116.7500 Du        
  37590 ****       124.7500 156.5000 117.0000 Du        
  37591 ****       124.7500 156.5000 117.2500 Du        
  37592 ****       124.7500 156.5000 146.5000 Du        
  37593 ****       124.7500 156.5000 146.7500 Du        
  37594 ****       124.7500 156.5000 147.0000 Du        
  37595 ****       124.7500 156.5000 147.2500 Du        
  37596 ****       124.7500 156.5000 147.5000 Du        
  37597 ****       124.7500 156.5000 147.7500 Du        
  37598 ****       124.7500 156.5000 148.0000 Du        
  37599 ****       124.7500 156.7500 116.5000 Du        
  37600 ****       124.7500 156.7500 116.7500 Du        
  37601 ****       124.7500 156.7500 117.0000 Du        
  37602 ****       124.7500 156.7500 146.7500 Du        
  37603 ****       124.7500 156.7500 147.0000 Du        
  37604 ****       124.7500 156.7500 147.2500 Du        
  37605 ****       124.7500 156.7500 147.5000 Du        
  37606 ****       124.7500 156.7500 147.7500 Du        
  37607 ****       124.7500 156.7500 148.0000 Du        
  37608 ****       124.7500 156.7500 148.2500 Du        
  37609 ****       124.7500 157.0000 116.5000 Du        
  37610 ****       124.7500 157.0000 116.7500 Du        
  37611 ****       124.7500 157.0000 147.7500 Du        
  37612 ****       124.7500 157.0000 148.0000 Du        
  37613 ****       124.7500 157.0000 148.2500 Du        
  37614 ****       124.7500 157.2500 148.2500 Du        
  37615 ****       124.7500 157.5000 148.7500 Du        
  37616 ****       124.7500 161.5000 115.0000 Du        
  37617 ****       124.7500 161.5000 115.2500 Du        
  37618 ****       124.7500 161.7500 115.0000 Du        
  37619 ****       124.7500 161.7500 115.2500 Du        
  37620 ****       124.7500 162.0000 115.0000 Du        
  37621 ****       124.7500 162.0000 115.2500 Du        
  37622 ****       124.7500 169.0000 113.7500 Du        
  37623 ****       124.7500 169.0000 114.0000 Du        
  37624 ****       124.7500 169.0000 114.2500 Du        
  37625 ****       124.7500 169.2500 113.5000 Du        
  37626 ****       124.7500 169.2500 113.7500 Du        
  37627 ****       124.7500 169.2500 114.0000 Du        
  37628 ****       124.7500 169.2500 114.2500 Du        
  37629 ****       124.7500 169.2500 114.5000 Du        
  37630 ****       124.7500 169.5000 113.5000 Du        
  37631 ****       124.7500 169.5000 113.7500 Du        
  37632 ****       124.7500 169.5000 114.0000 Du        
  37633 ****       124.7500 169.5000 114.2500 Du        
  37634 ****       124.7500 169.5000 114.5000 Du        
  37635 ****       124.7500 169.7500 113.7500 Du        
  37636 ****       124.7500 169.7500 114.0000 Du        
  37637 ****       124.7500 169.7500 114.2500 Du        
  37638 ****       124.7500 169.7500 114.5000 Du        
  37639 ****       124.7500 170.0000 114.0000 Du        
  37640 ****       124.7500 170.0000 114.2500 Du        
  37641 ****       124.7500 170.0000 114.5000 Du        
  37642 ****       124.7500 170.2500 114.2500 Du        
  37643 ****       124.7500 170.2500 114.5000 Du        
  37644 ****       125.0000 137.2500 109.0000 Du        
  37645 ****       125.0000 137.2500 109.2500 Du        
  37646 ****       125.0000 137.5000 108.7500 Du        
  37647 ****       125.0000 137.5000 109.0000 Du        
  37648 ****       125.0000 137.5000 109.2500 Du        
  37649 ****       125.0000 137.5000 109.5000 Du        
  37650 ****       125.0000 137.5000 109.7500 Du        
  37651 ****       125.0000 137.5000 110.0000 Du        
  37652 ****       125.0000 137.7500 108.5000 Du        
  37653 ****       125.0000 137.7500 108.7500 Du        
  37654 ****       125.0000 137.7500 109.0000 Du        
  37655 ****       125.0000 137.7500 109.2500 Du        
  37656 ****       125.0000 137.7500 109.5000 Du        
  37657 ****       125.0000 137.7500 109.7500 Du        
  37658 ****       125.0000 137.7500 110.0000 Du        
  37659 ****       125.0000 138.0000 109.0000 Du        
  37660 ****       125.0000 138.0000 109.2500 Du        
  37661 ****       125.0000 142.2500 122.2500 Du        
  37662 ****       125.0000 142.7500 122.2500 Du        
  37663 ****       125.0000 142.7500 135.7500 Du        
  37664 ****       125.0000 143.0000 134.7500 Du        
  37665 ****       125.0000 143.0000 135.0000 Du        
  37666 ****       125.0000 143.0000 135.2500 Du        
  37667 ****       125.0000 143.0000 135.5000 Du        
  37668 ****       125.0000 143.0000 135.7500 Du        
  37669 ****       125.0000 143.2500 134.0000 Du        
  37670 ****       125.0000 143.2500 134.2500 Du        
  37671 ****       125.0000 143.2500 134.5000 Du        
  37672 ****       125.0000 143.2500 134.7500 Du        
  37673 ****       125.0000 143.2500 135.0000 Du        
  37674 ****       125.0000 143.2500 135.2500 Du        
  37675 ****       125.0000 143.2500 135.5000 Du        
  37676 ****       125.0000 143.2500 135.7500 Du        
  37677 ****       125.0000 143.5000 133.7500 Du        
  37678 ****       125.0000 143.5000 134.0000 Du        
  37679 ****       125.0000 143.5000 134.2500 Du        
  37680 ****       125.0000 143.5000 134.5000 Du        
  37681 ****       125.0000 143.5000 134.7500 Du        
  37682 ****       125.0000 143.5000 135.0000 Du        
  37683 ****       125.0000 143.5000 135.2500 Du        
  37684 ****       125.0000 143.5000 135.5000 Du        
  37685 ****       125.0000 143.5000 135.7500 Du        
  37686 ****       125.0000 143.7500 133.2500 Du        
  37687 ****       125.0000 143.7500 133.5000 Du        
  37688 ****       125.0000 143.7500 133.7500 Du        
  37689 ****       125.0000 143.7500 134.0000 Du        
  37690 ****       125.0000 143.7500 134.2500 Du        
  37691 ****       125.0000 143.7500 134.5000 Du        
  37692 ****       125.0000 143.7500 134.7500 Du        
  37693 ****       125.0000 143.7500 135.0000 Du        
  37694 ****       125.0000 143.7500 135.2500 Du        
  37695 ****       125.0000 143.7500 135.5000 Du        
  37696 ****       125.0000 143.7500 135.7500 Du        
  37697 ****       125.0000 144.0000 133.0000 Du        
  37698 ****       125.0000 144.0000 133.2500 Du        
  37699 ****       125.0000 144.0000 133.5000 Du        
  37700 ****       125.0000 144.0000 133.7500 Du        
  37701 ****       125.0000 144.0000 134.0000 Du        
  37702 ****       125.0000 144.0000 134.2500 Du        
  37703 ****       125.0000 144.0000 134.5000 Du        
  37704 ****       125.0000 144.0000 134.7500 Du        
  37705 ****       125.0000 144.0000 135.0000 Du        
  37706 ****       125.0000 144.0000 135.2500 Du        
  37707 ****       125.0000 144.0000 135.5000 Du        
  37708 ****       125.0000 144.2500 133.0000 Du        
  37709 ****       125.0000 144.2500 133.2500 Du        
  37710 ****       125.0000 144.2500 133.5000 Du        
  37711 ****       125.0000 144.2500 133.7500 Du        
  37712 ****       125.0000 144.2500 134.0000 Du        
  37713 ****       125.0000 144.2500 134.2500 Du        
  37714 ****       125.0000 144.2500 134.5000 Du        
  37715 ****       125.0000 144.2500 134.7500 Du        
  37716 ****       125.0000 144.2500 135.0000 Du        
  37717 ****       125.0000 144.2500 135.2500 Du        
  37718 ****       125.0000 144.2500 135.5000 Du        
  37719 ****       125.0000 144.5000 134.2500 Du        
  37720 ****       125.0000 144.5000 135.0000 Du        
  37721 ****       125.0000 149.5000 110.5000 Du        
  37722 ****       125.0000 149.5000 110.7500 Du        
  37723 ****       125.0000 149.5000 111.0000 Du        
  37724 ****       125.0000 149.7500 110.2500 Du        
  37725 ****       125.0000 149.7500 110.5000 Du        
  37726 ****       125.0000 149.7500 110.7500 Du        
  37727 ****       125.0000 149.7500 111.0000 Du        
  37728 ****       125.0000 149.7500 111.2500 Du        
  37729 ****       125.0000 149.7500 111.5000 Du        
  37730 ****       125.0000 149.7500 123.7500 Du        
  37731 ****       125.0000 149.7500 124.0000 Du        
  37732 ****       125.0000 150.0000 110.2500 Du        
  37733 ****       125.0000 150.0000 110.5000 Du        
  37734 ****       125.0000 150.0000 110.7500 Du        
  37735 ****       125.0000 150.0000 111.0000 Du        
  37736 ****       125.0000 150.0000 111.2500 Du        
  37737 ****       125.0000 150.0000 111.5000 Du        
  37738 ****       125.0000 150.0000 111.7500 Du        
  37739 ****       125.0000 150.0000 123.7500 Du        
  37740 ****       125.0000 150.0000 124.0000 Du        
  37741 ****       125.0000 150.2500 110.5000 Du        
  37742 ****       125.0000 150.2500 110.7500 Du        
  37743 ****       125.0000 150.2500 111.0000 Du        
  37744 ****       125.0000 150.2500 111.2500 Du        
  37745 ****       125.0000 150.2500 111.5000 Du        
  37746 ****       125.0000 150.2500 111.7500 Du        
  37747 ****       125.0000 150.2500 112.0000 Du        
  37748 ****       125.0000 150.2500 123.7500 Du        
  37749 ****       125.0000 150.2500 124.0000 Du        
  37750 ****       125.0000 150.5000 110.5000 Du        
  37751 ****       125.0000 150.5000 110.7500 Du        
  37752 ****       125.0000 150.5000 111.0000 Du        
  37753 ****       125.0000 150.5000 111.2500 Du        
  37754 ****       125.0000 150.5000 111.5000 Du        
  37755 ****       125.0000 150.5000 111.7500 Du        
  37756 ****       125.0000 150.5000 112.0000 Du        
  37757 ****       125.0000 150.5000 123.7500 Du        
  37758 ****       125.0000 150.5000 124.0000 Du        
  37759 ****       125.0000 150.7500 110.7500 Du        
  37760 ****       125.0000 150.7500 111.0000 Du        
  37761 ****       125.0000 150.7500 111.2500 Du        
  37762 ****       125.0000 150.7500 111.5000 Du        
  37763 ****       125.0000 150.7500 111.7500 Du        
  37764 ****       125.0000 150.7500 112.0000 Du        
  37765 ****       125.0000 150.7500 123.7500 Du        
  37766 ****       125.0000 150.7500 124.0000 Du        
  37767 ****       125.0000 151.0000 110.7500 Du        
  37768 ****       125.0000 151.0000 111.0000 Du        
  37769 ****       125.0000 151.0000 111.2500 Du        
  37770 ****       125.0000 151.0000 111.5000 Du        
  37771 ****       125.0000 151.0000 111.7500 Du        
  37772 ****       125.0000 151.0000 112.0000 Du        
  37773 ****       125.0000 151.0000 123.7500 Du        
  37774 ****       125.0000 151.0000 124.0000 Du        
  37775 ****       125.0000 151.2500 111.0000 Du        
  37776 ****       125.0000 151.2500 111.2500 Du        
  37777 ****       125.0000 151.2500 111.5000 Du        
  37778 ****       125.0000 151.2500 111.7500 Du        
  37779 ****       125.0000 151.2500 112.0000 Du        
  37780 ****       125.0000 151.2500 124.0000 Du        
  37781 ****       125.0000 151.5000 111.2500 Du        
  37782 ****       125.0000 151.5000 111.5000 Du        
  37783 ****       125.0000 151.5000 111.7500 Du        
  37784 ****       125.0000 151.5000 112.0000 Du        
  37785 ****       125.0000 151.7500 111.2500 Du        
  37786 ****       125.0000 151.7500 111.5000 Du        
  37787 ****       125.0000 151.7500 111.7500 Du        
  37788 ****       125.0000 151.7500 112.0000 Du        
  37789 ****       125.0000 152.0000 111.5000 Du        
  37790 ****       125.0000 152.0000 111.7500 Du        
  37791 ****       125.0000 152.0000 112.0000 Du        
  37792 ****       125.0000 152.0000 123.7500 Du        
  37793 ****       125.0000 152.0000 124.0000 Du        
  37794 ****       125.0000 152.2500 111.7500 Du        
  37795 ****       125.0000 152.2500 112.0000 Du        
  37796 ****       125.0000 152.2500 124.0000 Du        
  37797 ****       125.0000 155.7500 116.2500 Du        
  37798 ****       125.0000 155.7500 116.5000 Du        
  37799 ****       125.0000 155.7500 116.7500 Du        
  37800 ****       125.0000 155.7500 117.0000 Du        
  37801 ****       125.0000 156.0000 116.0000 Du        
  37802 ****       125.0000 156.0000 116.2500 Du        
  37803 ****       125.0000 156.0000 116.5000 Du        
  37804 ****       125.0000 156.0000 116.7500 Du        
  37805 ****       125.0000 156.0000 117.0000 Du        
  37806 ****       125.0000 156.0000 117.2500 Du        
  37807 ****       125.0000 156.2500 116.0000 Du        
  37808 ****       125.0000 156.2500 116.2500 Du        
  37809 ****       125.0000 156.2500 116.5000 Du        
  37810 ****       125.0000 156.2500 116.7500 Du        
  37811 ****       125.0000 156.2500 117.0000 Du        
  37812 ****       125.0000 156.2500 117.2500 Du        
  37813 ****       125.0000 156.2500 147.0000 Du        
  37814 ****       125.0000 156.2500 147.2500 Du        
  37815 ****       125.0000 156.5000 116.2500 Du        
  37816 ****       125.0000 156.5000 116.5000 Du        
  37817 ****       125.0000 156.5000 116.7500 Du        
  37818 ****       125.0000 156.5000 117.0000 Du        
  37819 ****       125.0000 156.5000 146.7500 Du        
  37820 ****       125.0000 156.5000 147.0000 Du        
  37821 ****       125.0000 156.5000 147.2500 Du        
  37822 ****       125.0000 156.5000 147.5000 Du        
  37823 ****       125.0000 156.5000 147.7500 Du        
  37824 ****       125.0000 156.7500 116.2500 Du        
  37825 ****       125.0000 156.7500 116.5000 Du        
  37826 ****       125.0000 156.7500 116.7500 Du        
  37827 ****       125.0000 156.7500 117.0000 Du        
  37828 ****       125.0000 156.7500 146.7500 Du        
  37829 ****       125.0000 156.7500 147.0000 Du        
  37830 ****       125.0000 156.7500 147.2500 Du        
  37831 ****       125.0000 156.7500 147.5000 Du        
  37832 ****       125.0000 156.7500 147.7500 Du        
  37833 ****       125.0000 157.0000 116.5000 Du        
  37834 ****       125.0000 157.0000 116.7500 Du        
  37835 ****       125.0000 161.0000 115.5000 Du        
  37836 ****       125.0000 161.2500 115.2500 Du        
  37837 ****       125.0000 161.2500 115.5000 Du        
  37838 ****       125.0000 161.5000 115.0000 Du        
  37839 ****       125.0000 161.5000 115.2500 Du        
  37840 ****       125.0000 161.5000 115.5000 Du        
  37841 ****       125.0000 161.7500 114.7500 Du        
  37842 ****       125.0000 161.7500 115.0000 Du        
  37843 ****       125.0000 161.7500 115.2500 Du        
  37844 ****       125.0000 161.7500 115.5000 Du        
  37845 ****       125.0000 162.0000 114.7500 Du        
  37846 ****       125.0000 162.0000 115.0000 Du        
  37847 ****       125.0000 162.0000 115.2500 Du        
  37848 ****       125.0000 162.2500 114.7500 Du        
  37849 ****       125.0000 162.2500 115.0000 Du        
  37850 ****       125.0000 162.2500 115.2500 Du        
  37851 ****       125.0000 162.5000 114.7500 Du        
  37852 ****       125.0000 162.5000 115.0000 Du        
  37853 ****       125.0000 169.0000 113.7500 Du        
  37854 ****       125.0000 169.0000 114.0000 Du        
  37855 ****       125.0000 169.0000 114.2500 Du        
  37856 ****       125.0000 169.2500 113.5000 Du        
  37857 ****       125.0000 169.2500 113.7500 Du        
  37858 ****       125.0000 169.2500 114.0000 Du        
  37859 ****       125.0000 169.2500 114.2500 Du        
  37860 ****       125.0000 169.5000 113.5000 Du        
  37861 ****       125.0000 169.5000 113.7500 Du        
  37862 ****       125.0000 169.5000 114.0000 Du        
  37863 ****       125.0000 169.5000 114.2500 Du        
  37864 ****       125.0000 169.5000 114.5000 Du        
  37865 ****       125.0000 169.7500 113.5000 Du        
  37866 ****       125.0000 169.7500 113.7500 Du        
  37867 ****       125.0000 169.7500 114.0000 Du        
  37868 ****       125.0000 169.7500 114.2500 Du        
  37869 ****       125.0000 169.7500 114.5000 Du        
  37870 ****       125.0000 170.0000 113.7500 Du        
  37871 ****       125.0000 170.0000 114.0000 Du        
  37872 ****       125.0000 170.0000 114.2500 Du        
  37873 ****       125.0000 170.0000 114.5000 Du        
  37874 ****       125.2500 137.7500 108.7500 Du        
  37875 ****       125.2500 137.7500 109.0000 Du        
  37876 ****       125.2500 137.7500 109.2500 Du        
  37877 ****       125.2500 141.7500 122.0000 Du        
  37878 ****       125.2500 142.0000 122.0000 Du        
  37879 ****       125.2500 142.0000 122.2500 Du        
  37880 ****       125.2500 142.2500 122.2500 Du        
  37881 ****       125.2500 142.5000 122.2500 Du        
  37882 ****       125.2500 142.7500 122.2500 Du        
  37883 ****       125.2500 142.7500 135.5000 Du        
  37884 ****       125.2500 142.7500 135.7500 Du        
  37885 ****       125.2500 142.7500 136.0000 Du        
  37886 ****       125.2500 143.0000 122.0000 Du        
  37887 ****       125.2500 143.0000 122.2500 Du        
  37888 ****       125.2500 143.0000 134.7500 Du        
  37889 ****       125.2500 143.0000 135.0000 Du        
  37890 ****       125.2500 143.0000 135.2500 Du        
  37891 ****       125.2500 143.0000 135.5000 Du        
  37892 ****       125.2500 143.0000 135.7500 Du        
  37893 ****       125.2500 143.0000 136.0000 Du        
  37894 ****       125.2500 143.2500 122.2500 Du        
  37895 ****       125.2500 143.2500 134.0000 Du        
  37896 ****       125.2500 143.2500 134.2500 Du        
  37897 ****       125.2500 143.2500 134.5000 Du        
  37898 ****       125.2500 143.2500 134.7500 Du        
  37899 ****       125.2500 143.2500 135.0000 Du        
  37900 ****       125.2500 143.2500 135.2500 Du        
  37901 ****       125.2500 143.2500 135.5000 Du        
  37902 ****       125.2500 143.2500 135.7500 Du        
  37903 ****       125.2500 143.2500 136.0000 Du        
  37904 ****       125.2500 143.5000 122.2500 Du        
  37905 ****       125.2500 143.5000 133.2500 Du        
  37906 ****       125.2500 143.5000 133.5000 Du        
  37907 ****       125.2500 143.5000 133.7500 Du        
  37908 ****       125.2500 143.5000 134.0000 Du        
  37909 ****       125.2500 143.5000 134.2500 Du        
  37910 ****       125.2500 143.5000 134.5000 Du        
  37911 ****       125.2500 143.5000 134.7500 Du        
  37912 ****       125.2500 143.5000 135.0000 Du        
  37913 ****       125.2500 143.5000 135.2500 Du        
  37914 ****       125.2500 143.5000 135.5000 Du        
  37915 ****       125.2500 143.5000 135.7500 Du        
  37916 ****       125.2500 143.5000 136.0000 Du        
  37917 ****       125.2500 143.7500 122.2500 Du        
  37918 ****       125.2500 143.7500 133.0000 Du        
  37919 ****       125.2500 143.7500 133.2500 Du        
  37920 ****       125.2500 143.7500 133.5000 Du        
  37921 ****       125.2500 143.7500 133.7500 Du        
  37922 ****       125.2500 143.7500 134.0000 Du        
  37923 ****       125.2500 143.7500 134.2500 Du        
  37924 ****       125.2500 143.7500 134.5000 Du        
  37925 ****       125.2500 143.7500 134.7500 Du        
  37926 ****       125.2500 143.7500 135.0000 Du        
  37927 ****       125.2500 143.7500 135.2500 Du        
  37928 ****       125.2500 143.7500 135.5000 Du        
  37929 ****       125.2500 143.7500 135.7500 Du        
  37930 ****       125.2500 144.0000 133.0000 Du        
  37931 ****       125.2500 144.0000 133.2500 Du        
  37932 ****       125.2500 144.0000 133.5000 Du        
  37933 ****       125.2500 144.0000 133.7500 Du        
  37934 ****       125.2500 144.0000 134.0000 Du        
  37935 ****       125.2500 144.0000 134.2500 Du        
  37936 ****       125.2500 144.0000 134.5000 Du        
  37937 ****       125.2500 144.0000 134.7500 Du        
  37938 ****       125.2500 144.0000 135.0000 Du        
  37939 ****       125.2500 144.0000 135.2500 Du        
  37940 ****       125.2500 144.0000 135.5000 Du        
  37941 ****       125.2500 144.2500 133.0000 Du        
  37942 ****       125.2500 144.2500 133.2500 Du        
  37943 ****       125.2500 144.2500 133.5000 Du        
  37944 ****       125.2500 144.2500 133.7500 Du        
  37945 ****       125.2500 144.2500 134.0000 Du        
  37946 ****       125.2500 144.2500 134.2500 Du        
  37947 ****       125.2500 144.2500 134.5000 Du        
  37948 ****       125.2500 144.2500 134.7500 Du        
  37949 ****       125.2500 144.2500 135.0000 Du        
  37950 ****       125.2500 144.2500 135.2500 Du        
  37951 ****       125.2500 144.5000 133.2500 Du        
  37952 ****       125.2500 144.5000 134.0000 Du        
  37953 ****       125.2500 144.5000 134.2500 Du        
  37954 ****       125.2500 144.5000 134.7500 Du        
  37955 ****       125.2500 149.2500 110.5000 Du        
  37956 ****       125.2500 149.5000 110.5000 Du        
  37957 ****       125.2500 149.5000 110.7500 Du        
  37958 ****       125.2500 149.5000 111.0000 Du        
  37959 ****       125.2500 149.7500 110.2500 Du        
  37960 ****       125.2500 149.7500 110.5000 Du        
  37961 ****       125.2500 149.7500 110.7500 Du        
  37962 ****       125.2500 149.7500 111.0000 Du        
  37963 ****       125.2500 149.7500 111.2500 Du        
  37964 ****       125.2500 150.0000 110.2500 Du        
  37965 ****       125.2500 150.0000 110.5000 Du        
  37966 ****       125.2500 150.0000 110.7500 Du        
  37967 ****       125.2500 150.0000 111.0000 Du        
  37968 ****       125.2500 150.0000 111.2500 Du        
  37969 ****       125.2500 150.0000 111.5000 Du        
  37970 ****       125.2500 150.0000 111.7500 Du        
  37971 ****       125.2500 150.2500 110.5000 Du        
  37972 ****       125.2500 150.2500 110.7500 Du        
  37973 ****       125.2500 150.2500 111.0000 Du        
  37974 ****       125.2500 150.2500 111.2500 Du        
  37975 ****       125.2500 150.2500 111.5000 Du        
  37976 ****       125.2500 150.2500 111.7500 Du        
  37977 ****       125.2500 150.2500 112.0000 Du        
  37978 ****       125.2500 150.5000 110.5000 Du        
  37979 ****       125.2500 150.5000 110.7500 Du        
  37980 ****       125.2500 150.5000 111.0000 Du        
  37981 ****       125.2500 150.5000 111.2500 Du        
  37982 ****       125.2500 150.5000 111.5000 Du        
  37983 ****       125.2500 150.5000 111.7500 Du        
  37984 ****       125.2500 150.5000 112.0000 Du        
  37985 ****       125.2500 150.7500 110.7500 Du        
  37986 ****       125.2500 150.7500 111.0000 Du        
  37987 ****       125.2500 150.7500 111.2500 Du        
  37988 ****       125.2500 150.7500 111.5000 Du        
  37989 ****       125.2500 150.7500 111.7500 Du        
  37990 ****       125.2500 150.7500 112.0000 Du        
  37991 ****       125.2500 151.0000 110.7500 Du        
  37992 ****       125.2500 151.0000 111.0000 Du        
  37993 ****       125.2500 151.0000 111.2500 Du        
  37994 ****       125.2500 151.0000 111.5000 Du        
  37995 ****       125.2500 151.0000 111.7500 Du        
  37996 ****       125.2500 151.0000 112.0000 Du        
  37997 ****       125.2500 151.2500 111.0000 Du        
  37998 ****       125.2500 151.2500 111.2500 Du        
  37999 ****       125.2500 151.2500 111.5000 Du        
  38000 ****       125.2500 151.2500 111.7500 Du        
  38001 ****       125.2500 151.2500 112.0000 Du        
  38002 ****       125.2500 151.2500 112.2500 Du        
  38003 ****       125.2500 151.5000 111.2500 Du        
  38004 ****       125.2500 151.5000 111.5000 Du        
  38005 ****       125.2500 151.5000 111.7500 Du        
  38006 ****       125.2500 151.5000 112.0000 Du        
  38007 ****       125.2500 151.7500 111.5000 Du        
  38008 ****       125.2500 151.7500 111.7500 Du        
  38009 ****       125.2500 151.7500 112.0000 Du        
  38010 ****       125.2500 152.0000 111.7500 Du        
  38011 ****       125.2500 152.0000 112.0000 Du        
  38012 ****       125.2500 152.2500 111.7500 Du        
  38013 ****       125.2500 152.2500 112.0000 Du        
  38014 ****       125.2500 155.5000 116.5000 Du        
  38015 ****       125.2500 155.5000 116.7500 Du        
  38016 ****       125.2500 155.5000 134.0000 Du        
  38017 ****       125.2500 155.7500 115.7500 Du        
  38018 ****       125.2500 155.7500 116.0000 Du        
  38019 ****       125.2500 155.7500 116.2500 Du        
  38020 ****       125.2500 155.7500 116.5000 Du        
  38021 ****       125.2500 155.7500 116.7500 Du        
  38022 ****       125.2500 155.7500 117.0000 Du        
  38023 ****       125.2500 155.7500 134.0000 Du        
  38024 ****       125.2500 156.0000 115.7500 Du        
  38025 ****       125.2500 156.0000 116.0000 Du        
  38026 ****       125.2500 156.0000 116.2500 Du        
  38027 ****       125.2500 156.0000 116.5000 Du        
  38028 ****       125.2500 156.0000 116.7500 Du        
  38029 ****       125.2500 156.0000 117.0000 Du        
  38030 ****       125.2500 156.0000 117.2500 Du        
  38031 ****       125.2500 156.0000 133.7500 Du        
  38032 ****       125.2500 156.0000 134.0000 Du        
  38033 ****       125.2500 156.2500 115.7500 Du        
  38034 ****       125.2500 156.2500 116.0000 Du        
  38035 ****       125.2500 156.2500 116.2500 Du        
  38036 ****       125.2500 156.2500 116.5000 Du        
  38037 ****       125.2500 156.2500 116.7500 Du        
  38038 ****       125.2500 156.2500 117.0000 Du        
  38039 ****       125.2500 156.5000 116.0000 Du        
  38040 ****       125.2500 156.5000 116.2500 Du        
  38041 ****       125.2500 156.5000 116.5000 Du        
  38042 ****       125.2500 156.5000 116.7500 Du        
  38043 ****       125.2500 156.5000 117.0000 Du        
  38044 ****       125.2500 156.7500 116.0000 Du        
  38045 ****       125.2500 156.7500 116.2500 Du        
  38046 ****       125.2500 156.7500 116.5000 Du        
  38047 ****       125.2500 156.7500 116.7500 Du        
  38048 ****       125.2500 157.0000 116.5000 Du        
  38049 ****       125.2500 161.0000 115.2500 Du        
  38050 ****       125.2500 161.0000 115.5000 Du        
  38051 ****       125.2500 161.2500 115.0000 Du        
  38052 ****       125.2500 161.2500 115.2500 Du        
  38053 ****       125.2500 161.2500 115.5000 Du        
  38054 ****       125.2500 161.5000 114.7500 Du        
  38055 ****       125.2500 161.5000 115.0000 Du        
  38056 ****       125.2500 161.5000 115.2500 Du        
  38057 ****       125.2500 161.5000 115.5000 Du        
  38058 ****       125.2500 161.7500 114.5000 Du        
  38059 ****       125.2500 161.7500 114.7500 Du        
  38060 ****       125.2500 161.7500 115.0000 Du        
  38061 ****       125.2500 161.7500 115.2500 Du        
  38062 ****       125.2500 161.7500 115.5000 Du        
  38063 ****       125.2500 162.0000 114.5000 Du        
  38064 ****       125.2500 162.0000 114.7500 Du        
  38065 ****       125.2500 162.0000 115.0000 Du        
  38066 ****       125.2500 162.0000 115.2500 Du        
  38067 ****       125.2500 162.0000 115.5000 Du        
  38068 ****       125.2500 162.2500 114.5000 Du        
  38069 ****       125.2500 162.2500 114.7500 Du        
  38070 ****       125.2500 162.2500 115.0000 Du        
  38071 ****       125.2500 162.2500 115.2500 Du        
  38072 ****       125.2500 162.2500 115.5000 Du        
  38073 ****       125.2500 162.5000 114.5000 Du        
  38074 ****       125.2500 162.5000 114.7500 Du        
  38075 ****       125.2500 162.5000 115.0000 Du        
  38076 ****       125.2500 162.5000 115.2500 Du        
  38077 ****       125.2500 169.2500 113.5000 Du        
  38078 ****       125.2500 169.2500 113.7500 Du        
  38079 ****       125.2500 169.2500 114.0000 Du        
  38080 ****       125.2500 169.2500 114.2500 Du        
  38081 ****       125.2500 169.5000 113.5000 Du        
  38082 ****       125.2500 169.5000 113.7500 Du        
  38083 ****       125.2500 169.5000 114.0000 Du        
  38084 ****       125.2500 169.5000 114.2500 Du        
  38085 ****       125.2500 169.7500 113.5000 Du        
  38086 ****       125.2500 169.7500 113.7500 Du        
  38087 ****       125.2500 169.7500 114.0000 Du        
  38088 ****       125.5000 142.0000 122.0000 Du        
  38089 ****       125.5000 142.0000 122.2500 Du        
  38090 ****       125.5000 142.2500 122.2500 Du        
  38091 ****       125.5000 142.5000 122.2500 Du        
  38092 ****       125.5000 142.5000 136.0000 Du        
  38093 ****       125.5000 142.5000 136.2500 Du        
  38094 ****       125.5000 142.7500 122.2500 Du        
  38095 ****       125.5000 142.7500 135.5000 Du        
  38096 ****       125.5000 142.7500 135.7500 Du        
  38097 ****       125.5000 142.7500 136.0000 Du        
  38098 ****       125.5000 142.7500 136.2500 Du        
  38099 ****       125.5000 143.0000 122.2500 Du        
  38100 ****       125.5000 143.0000 135.0000 Du        
  38101 ****       125.5000 143.0000 135.2500 Du        
  38102 ****       125.5000 143.0000 135.5000 Du        
  38103 ****       125.5000 143.0000 135.7500 Du        
  38104 ****       125.5000 143.0000 136.0000 Du        
  38105 ****       125.5000 143.0000 136.2500 Du        
  38106 ****       125.5000 143.2500 122.2500 Du        
  38107 ****       125.5000 143.2500 134.2500 Du        
  38108 ****       125.5000 143.2500 134.5000 Du        
  38109 ****       125.5000 143.2500 134.7500 Du        
  38110 ****       125.5000 143.2500 135.0000 Du        
  38111 ****       125.5000 143.2500 135.2500 Du        
  38112 ****       125.5000 143.2500 135.5000 Du        
  38113 ****       125.5000 143.2500 135.7500 Du        
  38114 ****       125.5000 143.2500 136.0000 Du        
  38115 ****       125.5000 143.2500 136.2500 Du        
  38116 ****       125.5000 143.5000 122.0000 Du        
  38117 ****       125.5000 143.5000 122.2500 Du        
  38118 ****       125.5000 143.5000 122.5000 Du        
  38119 ****       125.5000 143.5000 133.2500 Du        
  38120 ****       125.5000 143.5000 133.5000 Du        
  38121 ****       125.5000 143.5000 133.7500 Du        
  38122 ****       125.5000 143.5000 134.0000 Du        
  38123 ****       125.5000 143.5000 134.2500 Du        
  38124 ****       125.5000 143.5000 134.5000 Du        
  38125 ****       125.5000 143.5000 134.7500 Du        
  38126 ****       125.5000 143.5000 135.0000 Du        
  38127 ****       125.5000 143.5000 135.2500 Du        
  38128 ****       125.5000 143.5000 135.5000 Du        
  38129 ****       125.5000 143.5000 135.7500 Du        
  38130 ****       125.5000 143.5000 136.0000 Du        
  38131 ****       125.5000 143.7500 122.0000 Du        
  38132 ****       125.5000 143.7500 122.2500 Du        
  38133 ****       125.5000 143.7500 122.5000 Du        
  38134 ****       125.5000 143.7500 133.2500 Du        
  38135 ****       125.5000 143.7500 133.5000 Du        
  38136 ****       125.5000 143.7500 133.7500 Du        
  38137 ****       125.5000 143.7500 134.0000 Du        
  38138 ****       125.5000 143.7500 134.2500 Du        
  38139 ****       125.5000 143.7500 134.5000 Du        
  38140 ****       125.5000 143.7500 134.7500 Du        
  38141 ****       125.5000 143.7500 135.0000 Du        
  38142 ****       125.5000 143.7500 135.2500 Du        
  38143 ****       125.5000 143.7500 135.5000 Du        
  38144 ****       125.5000 143.7500 135.7500 Du        
  38145 ****       125.5000 144.0000 122.0000 Du        
  38146 ****       125.5000 144.0000 122.2500 Du        
  38147 ****       125.5000 144.0000 122.5000 Du        
  38148 ****       125.5000 144.0000 122.7500 Du        
  38149 ****       125.5000 144.0000 133.2500 Du        
  38150 ****       125.5000 144.0000 133.5000 Du        
  38151 ****       125.5000 144.0000 133.7500 Du        
  38152 ****       125.5000 144.0000 134.0000 Du        
  38153 ****       125.5000 144.0000 134.2500 Du        
  38154 ****       125.5000 144.0000 134.5000 Du        
  38155 ****       125.5000 144.0000 134.7500 Du        
  38156 ****       125.5000 144.0000 135.0000 Du        
  38157 ****       125.5000 144.0000 135.2500 Du        
  38158 ****       125.5000 144.0000 135.5000 Du        
  38159 ****       125.5000 144.2500 122.0000 Du        
  38160 ****       125.5000 144.2500 122.2500 Du        
  38161 ****       125.5000 144.2500 122.5000 Du        
  38162 ****       125.5000 144.2500 122.7500 Du        
  38163 ****       125.5000 144.2500 133.2500 Du        
  38164 ****       125.5000 144.2500 133.5000 Du        
  38165 ****       125.5000 144.2500 133.7500 Du        
  38166 ****       125.5000 144.2500 134.0000 Du        
  38167 ****       125.5000 144.2500 134.2500 Du        
  38168 ****       125.5000 144.2500 134.5000 Du        
  38169 ****       125.5000 144.2500 134.7500 Du        
  38170 ****       125.5000 144.2500 135.0000 Du        
  38171 ****       125.5000 144.5000 122.0000 Du        
  38172 ****       125.5000 144.5000 122.2500 Du        
  38173 ****       125.5000 144.5000 122.5000 Du        
  38174 ****       125.5000 144.5000 122.7500 Du        
  38175 ****       125.5000 144.7500 122.0000 Du        
  38176 ****       125.5000 144.7500 122.2500 Du        
  38177 ****       125.5000 144.7500 122.5000 Du        
  38178 ****       125.5000 149.2500 110.0000 Du        
  38179 ****       125.5000 149.2500 110.2500 Du        
  38180 ****       125.5000 149.2500 110.5000 Du        
  38181 ****       125.5000 149.5000 110.5000 Du        
  38182 ****       125.5000 149.7500 110.5000 Du        
  38183 ****       125.5000 149.7500 110.7500 Du        
  38184 ****       125.5000 149.7500 111.0000 Du        
  38185 ****       125.5000 150.0000 110.5000 Du        
  38186 ****       125.5000 150.0000 110.7500 Du        
  38187 ****       125.5000 150.0000 111.0000 Du        
  38188 ****       125.5000 150.0000 111.2500 Du        
  38189 ****       125.5000 150.2500 110.5000 Du        
  38190 ****       125.5000 150.2500 110.7500 Du        
  38191 ****       125.5000 150.2500 111.0000 Du        
  38192 ****       125.5000 150.2500 111.2500 Du        
  38193 ****       125.5000 150.2500 111.5000 Du        
  38194 ****       125.5000 150.5000 110.7500 Du        
  38195 ****       125.5000 150.5000 111.0000 Du        
  38196 ****       125.5000 150.5000 111.2500 Du        
  38197 ****       125.5000 150.5000 111.5000 Du        
  38198 ****       125.5000 150.5000 111.7500 Du        
  38199 ****       125.5000 150.7500 110.7500 Du        
  38200 ****       125.5000 150.7500 111.0000 Du        
  38201 ****       125.5000 150.7500 111.2500 Du        
  38202 ****       125.5000 150.7500 111.5000 Du        
  38203 ****       125.5000 150.7500 111.7500 Du        
  38204 ****       125.5000 150.7500 112.0000 Du        
  38205 ****       125.5000 151.0000 111.0000 Du        
  38206 ****       125.5000 151.0000 111.2500 Du        
  38207 ****       125.5000 151.0000 111.5000 Du        
  38208 ****       125.5000 151.0000 111.7500 Du        
  38209 ****       125.5000 151.0000 112.0000 Du        
  38210 ****       125.5000 151.2500 111.0000 Du        
  38211 ****       125.5000 151.2500 111.2500 Du        
  38212 ****       125.5000 151.2500 111.5000 Du        
  38213 ****       125.5000 151.2500 111.7500 Du        
  38214 ****       125.5000 151.2500 112.0000 Du        
  38215 ****       125.5000 151.2500 112.2500 Du        
  38216 ****       125.5000 151.5000 111.5000 Du        
  38217 ****       125.5000 151.5000 111.7500 Du        
  38218 ****       125.5000 151.5000 112.0000 Du        
  38219 ****       125.5000 151.7500 111.5000 Du        
  38220 ****       125.5000 151.7500 111.7500 Du        
  38221 ****       125.5000 151.7500 112.0000 Du        
  38222 ****       125.5000 151.7500 112.2500 Du        
  38223 ****       125.5000 152.0000 111.7500 Du        
  38224 ****       125.5000 152.0000 112.0000 Du        
  38225 ****       125.5000 152.0000 112.2500 Du        
  38226 ****       125.5000 152.2500 112.0000 Du        
  38227 ****       125.5000 152.2500 112.2500 Du        
  38228 ****       125.5000 155.0000 126.2500 Du        
  38229 ****       125.5000 155.2500 115.7500 Du        
  38230 ****       125.5000 155.2500 116.0000 Du        
  38231 ****       125.5000 155.2500 116.2500 Du        
  38232 ****       125.5000 155.2500 116.5000 Du        
  38233 ****       125.5000 155.2500 116.7500 Du        
  38234 ****       125.5000 155.2500 126.2500 Du        
  38235 ****       125.5000 155.5000 115.5000 Du        
  38236 ****       125.5000 155.5000 115.7500 Du        
  38237 ****       125.5000 155.5000 116.0000 Du        
  38238 ****       125.5000 155.5000 116.2500 Du        
  38239 ****       125.5000 155.5000 116.5000 Du        
  38240 ****       125.5000 155.5000 116.7500 Du        
  38241 ****       125.5000 155.5000 117.0000 Du        
  38242 ****       125.5000 155.5000 133.7500 Du        
  38243 ****       125.5000 155.5000 134.0000 Du        
  38244 ****       125.5000 155.7500 115.2500 Du        
  38245 ****       125.5000 155.7500 115.5000 Du        
  38246 ****       125.5000 155.7500 115.7500 Du        
  38247 ****       125.5000 155.7500 116.0000 Du        
  38248 ****       125.5000 155.7500 116.2500 Du        
  38249 ****       125.5000 155.7500 116.5000 Du        
  38250 ****       125.5000 155.7500 116.7500 Du        
  38251 ****       125.5000 155.7500 117.0000 Du        
  38252 ****       125.5000 155.7500 133.7500 Du        
  38253 ****       125.5000 155.7500 134.0000 Du        
  38254 ****       125.5000 156.0000 115.5000 Du        
  38255 ****       125.5000 156.0000 115.7500 Du        
  38256 ****       125.5000 156.0000 116.0000 Du        
  38257 ****       125.5000 156.0000 116.2500 Du        
  38258 ****       125.5000 156.0000 116.5000 Du        
  38259 ****       125.5000 156.0000 116.7500 Du        
  38260 ****       125.5000 156.0000 117.0000 Du        
  38261 ****       125.5000 156.0000 133.5000 Du        
  38262 ****       125.5000 156.0000 133.7500 Du        
  38263 ****       125.5000 156.0000 134.0000 Du        
  38264 ****       125.5000 156.2500 115.5000 Du        
  38265 ****       125.5000 156.2500 115.7500 Du        
  38266 ****       125.5000 156.2500 116.0000 Du        
  38267 ****       125.5000 156.2500 116.2500 Du        
  38268 ****       125.5000 156.2500 116.5000 Du        
  38269 ****       125.5000 156.2500 116.7500 Du        
  38270 ****       125.5000 156.2500 117.0000 Du        
  38271 ****       125.5000 156.2500 133.7500 Du        
  38272 ****       125.5000 156.5000 116.0000 Du        
  38273 ****       125.5000 156.5000 116.2500 Du        
  38274 ****       125.5000 156.5000 116.5000 Du        
  38275 ****       125.5000 156.5000 116.7500 Du        
  38276 ****       125.5000 156.5000 117.0000 Du        
  38277 ****       125.5000 156.7500 115.7500 Du        
  38278 ****       125.5000 156.7500 116.0000 Du        
  38279 ****       125.5000 156.7500 116.2500 Du        
  38280 ****       125.5000 156.7500 116.5000 Du        
  38281 ****       125.5000 156.7500 116.7500 Du        
  38282 ****       125.5000 157.0000 116.0000 Du        
  38283 ****       125.5000 157.0000 116.2500 Du        
  38284 ****       125.5000 157.0000 116.5000 Du        
  38285 ****       125.5000 161.0000 115.0000 Du        
  38286 ****       125.5000 161.2500 115.0000 Du        
  38287 ****       125.5000 161.2500 115.2500 Du        
  38288 ****       125.5000 161.2500 115.5000 Du        
  38289 ****       125.5000 161.5000 114.7500 Du        
  38290 ****       125.5000 161.5000 115.0000 Du        
  38291 ****       125.5000 161.5000 115.2500 Du        
  38292 ****       125.5000 161.5000 115.5000 Du        
  38293 ****       125.5000 161.7500 114.5000 Du        
  38294 ****       125.5000 161.7500 114.7500 Du        
  38295 ****       125.5000 161.7500 115.0000 Du        
  38296 ****       125.5000 161.7500 115.2500 Du        
  38297 ****       125.5000 161.7500 115.5000 Du        
  38298 ****       125.5000 162.0000 114.5000 Du        
  38299 ****       125.5000 162.0000 114.7500 Du        
  38300 ****       125.5000 162.0000 115.0000 Du        
  38301 ****       125.5000 162.0000 115.2500 Du        
  38302 ****       125.5000 162.0000 115.5000 Du        
  38303 ****       125.5000 162.2500 114.5000 Du        
  38304 ****       125.5000 162.2500 114.7500 Du        
  38305 ****       125.5000 162.2500 115.0000 Du        
  38306 ****       125.5000 162.2500 115.2500 Du        
  38307 ****       125.5000 162.2500 115.5000 Du        
  38308 ****       125.5000 162.5000 114.5000 Du        
  38309 ****       125.5000 162.5000 114.7500 Du        
  38310 ****       125.5000 162.5000 115.0000 Du        
  38311 ****       125.5000 162.5000 115.2500 Du        
  38312 ****       125.7500 142.2500 136.2500 Du        
  38313 ****       125.7500 142.2500 136.5000 Du        
  38314 ****       125.7500 142.2500 136.7500 Du        
  38315 ****       125.7500 142.5000 122.2500 Du        
  38316 ****       125.7500 142.5000 136.0000 Du        
  38317 ****       125.7500 142.5000 136.2500 Du        
  38318 ****       125.7500 142.5000 136.5000 Du        
  38319 ****       125.7500 142.5000 136.7500 Du        
  38320 ****       125.7500 142.7500 135.5000 Du        
  38321 ****       125.7500 142.7500 135.7500 Du        
  38322 ****       125.7500 142.7500 136.0000 Du        
  38323 ****       125.7500 142.7500 136.2500 Du        
  38324 ****       125.7500 142.7500 136.5000 Du        
  38325 ****       125.7500 143.0000 135.2500 Du        
  38326 ****       125.7500 143.0000 135.5000 Du        
  38327 ****       125.7500 143.0000 135.7500 Du        
  38328 ****       125.7500 143.0000 136.0000 Du        
  38329 ****       125.7500 143.0000 136.2500 Du        
  38330 ****       125.7500 143.0000 136.5000 Du        
  38331 ****       125.7500 143.2500 122.2500 Du        
  38332 ****       125.7500 143.2500 134.7500 Du        
  38333 ****       125.7500 143.2500 135.0000 Du        
  38334 ****       125.7500 143.2500 135.2500 Du        
  38335 ****       125.7500 143.2500 135.5000 Du        
  38336 ****       125.7500 143.2500 135.7500 Du        
  38337 ****       125.7500 143.2500 136.0000 Du        
  38338 ****       125.7500 143.2500 136.2500 Du        
  38339 ****       125.7500 143.5000 122.0000 Du        
  38340 ****       125.7500 143.5000 122.2500 Du        
  38341 ****       125.7500 143.5000 122.5000 Du        
  38342 ****       125.7500 143.5000 133.5000 Du        
  38343 ****       125.7500 143.5000 133.7500 Du        
  38344 ****       125.7500 143.5000 134.0000 Du        
  38345 ****       125.7500 143.5000 134.2500 Du        
  38346 ****       125.7500 143.5000 134.5000 Du        
  38347 ****       125.7500 143.5000 134.7500 Du        
  38348 ****       125.7500 143.5000 135.0000 Du        
  38349 ****       125.7500 143.5000 135.2500 Du        
  38350 ****       125.7500 143.5000 135.5000 Du        
  38351 ****       125.7500 143.5000 135.7500 Du        
  38352 ****       125.7500 143.7500 122.0000 Du        
  38353 ****       125.7500 143.7500 122.2500 Du        
  38354 ****       125.7500 143.7500 122.5000 Du        
  38355 ****       125.7500 143.7500 133.2500 Du        
  38356 ****       125.7500 143.7500 133.5000 Du        
  38357 ****       125.7500 143.7500 133.7500 Du        
  38358 ****       125.7500 143.7500 134.0000 Du        
  38359 ****       125.7500 143.7500 134.2500 Du        
  38360 ****       125.7500 143.7500 134.5000 Du        
  38361 ****       125.7500 143.7500 134.7500 Du        
  38362 ****       125.7500 143.7500 135.0000 Du        
  38363 ****       125.7500 143.7500 135.2500 Du        
  38364 ****       125.7500 143.7500 135.5000 Du        
  38365 ****       125.7500 144.0000 122.0000 Du        
  38366 ****       125.7500 144.0000 122.2500 Du        
  38367 ****       125.7500 144.0000 122.5000 Du        
  38368 ****       125.7500 144.0000 122.7500 Du        
  38369 ****       125.7500 144.0000 133.2500 Du        
  38370 ****       125.7500 144.0000 133.5000 Du        
  38371 ****       125.7500 144.0000 133.7500 Du        
  38372 ****       125.7500 144.0000 134.0000 Du        
  38373 ****       125.7500 144.0000 134.2500 Du        
  38374 ****       125.7500 144.0000 134.5000 Du        
  38375 ****       125.7500 144.0000 134.7500 Du        
  38376 ****       125.7500 144.0000 135.0000 Du        
  38377 ****       125.7500 144.2500 122.0000 Du        
  38378 ****       125.7500 144.2500 122.2500 Du        
  38379 ****       125.7500 144.2500 122.5000 Du        
  38380 ****       125.7500 144.2500 122.7500 Du        
  38381 ****       125.7500 144.2500 133.2500 Du        
  38382 ****       125.7500 144.2500 133.5000 Du        
  38383 ****       125.7500 144.2500 133.7500 Du        
  38384 ****       125.7500 144.2500 134.0000 Du        
  38385 ****       125.7500 144.2500 134.2500 Du        
  38386 ****       125.7500 144.2500 134.5000 Du        
  38387 ****       125.7500 144.2500 134.7500 Du        
  38388 ****       125.7500 144.5000 121.7500 Du        
  38389 ****       125.7500 144.5000 122.0000 Du        
  38390 ****       125.7500 144.5000 122.2500 Du        
  38391 ****       125.7500 144.5000 122.5000 Du        
  38392 ****       125.7500 144.5000 122.7500 Du        
  38393 ****       125.7500 144.5000 123.0000 Du        
  38394 ****       125.7500 144.7500 121.7500 Du        
  38395 ****       125.7500 144.7500 122.0000 Du        
  38396 ****       125.7500 144.7500 122.2500 Du        
  38397 ****       125.7500 144.7500 122.5000 Du        
  38398 ****       125.7500 144.7500 122.7500 Du        
  38399 ****       125.7500 144.7500 123.0000 Du        
  38400 ****       125.7500 145.0000 122.0000 Du        
  38401 ****       125.7500 145.0000 122.2500 Du        
  38402 ****       125.7500 145.0000 122.5000 Du        
  38403 ****       125.7500 145.0000 122.7500 Du        
  38404 ****       125.7500 145.0000 123.0000 Du        
  38405 ****       125.7500 145.2500 122.2500 Du        
  38406 ****       125.7500 145.2500 122.5000 Du        
  38407 ****       125.7500 145.2500 122.7500 Du        
  38408 ****       125.7500 145.2500 123.0000 Du        
  38409 ****       125.7500 149.7500 110.5000 Du        
  38410 ****       125.7500 150.0000 110.5000 Du        
  38411 ****       125.7500 150.0000 110.7500 Du        
  38412 ****       125.7500 150.2500 110.5000 Du        
  38413 ****       125.7500 150.2500 110.7500 Du        
  38414 ****       125.7500 150.2500 111.0000 Du        
  38415 ****       125.7500 150.5000 111.0000 Du        
  38416 ****       125.7500 150.5000 111.2500 Du        
  38417 ****       125.7500 150.5000 111.5000 Du        
  38418 ****       125.7500 150.7500 111.0000 Du        
  38419 ****       125.7500 150.7500 111.2500 Du        
  38420 ****       125.7500 150.7500 111.5000 Du        
  38421 ****       125.7500 150.7500 111.7500 Du        
  38422 ****       125.7500 151.0000 111.0000 Du        
  38423 ****       125.7500 151.0000 111.2500 Du        
  38424 ****       125.7500 151.0000 111.5000 Du        
  38425 ****       125.7500 151.0000 111.7500 Du        
  38426 ****       125.7500 151.0000 112.0000 Du        
  38427 ****       125.7500 151.2500 111.0000 Du        
  38428 ****       125.7500 151.2500 111.2500 Du        
  38429 ****       125.7500 151.2500 111.5000 Du        
  38430 ****       125.7500 151.2500 111.7500 Du        
  38431 ****       125.7500 151.2500 112.0000 Du        
  38432 ****       125.7500 151.2500 112.2500 Du        
  38433 ****       125.7500 151.5000 111.5000 Du        
  38434 ****       125.7500 151.5000 111.7500 Du        
  38435 ****       125.7500 151.5000 112.0000 Du        
  38436 ****       125.7500 151.5000 112.2500 Du        
  38437 ****       125.7500 151.7500 111.5000 Du        
  38438 ****       125.7500 151.7500 111.7500 Du        
  38439 ****       125.7500 151.7500 112.0000 Du        
  38440 ****       125.7500 151.7500 112.2500 Du        
  38441 ****       125.7500 152.0000 111.5000 Du        
  38442 ****       125.7500 152.0000 111.7500 Du        
  38443 ****       125.7500 152.0000 112.0000 Du        
  38444 ****       125.7500 152.0000 112.2500 Du        
  38445 ****       125.7500 152.2500 111.7500 Du        
  38446 ****       125.7500 152.2500 112.0000 Du        
  38447 ****       125.7500 152.2500 112.2500 Du        
  38448 ****       125.7500 152.2500 112.5000 Du        
  38449 ****       125.7500 152.5000 112.0000 Du        
  38450 ****       125.7500 152.5000 112.2500 Du        
  38451 ****       125.7500 152.5000 112.5000 Du        
  38452 ****       125.7500 152.7500 112.2500 Du        
  38453 ****       125.7500 152.7500 112.5000 Du        
  38454 ****       125.7500 153.0000 112.2500 Du        
  38455 ****       125.7500 153.0000 112.5000 Du        
  38456 ****       125.7500 155.0000 126.0000 Du        
  38457 ****       125.7500 155.0000 126.2500 Du        
  38458 ****       125.7500 155.0000 126.5000 Du        
  38459 ****       125.7500 155.2500 114.7500 Du        
  38460 ****       125.7500 155.2500 115.5000 Du        
  38461 ****       125.7500 155.2500 115.7500 Du        
  38462 ****       125.7500 155.2500 116.0000 Du        
  38463 ****       125.7500 155.2500 116.2500 Du        
  38464 ****       125.7500 155.2500 116.5000 Du        
  38465 ****       125.7500 155.2500 116.7500 Du        
  38466 ****       125.7500 155.2500 126.2500 Du        
  38467 ****       125.7500 155.2500 126.5000 Du        
  38468 ****       125.7500 155.5000 115.2500 Du        
  38469 ****       125.7500 155.5000 115.5000 Du        
  38470 ****       125.7500 155.5000 115.7500 Du        
  38471 ****       125.7500 155.5000 116.0000 Du        
  38472 ****       125.7500 155.5000 116.2500 Du        
  38473 ****       125.7500 155.5000 116.5000 Du        
  38474 ****       125.7500 155.5000 116.7500 Du        
  38475 ****       125.7500 155.5000 126.2500 Du        
  38476 ****       125.7500 155.5000 133.5000 Du        
  38477 ****       125.7500 155.5000 133.7500 Du        
  38478 ****       125.7500 155.5000 134.0000 Du        
  38479 ****       125.7500 155.7500 115.0000 Du        
  38480 ****       125.7500 155.7500 115.2500 Du        
  38481 ****       125.7500 155.7500 115.5000 Du        
  38482 ****       125.7500 155.7500 115.7500 Du        
  38483 ****       125.7500 155.7500 116.0000 Du        
  38484 ****       125.7500 155.7500 116.2500 Du        
  38485 ****       125.7500 155.7500 116.5000 Du        
  38486 ****       125.7500 155.7500 116.7500 Du        
  38487 ****       125.7500 155.7500 117.0000 Du        
  38488 ****       125.7500 155.7500 126.2500 Du        
  38489 ****       125.7500 155.7500 126.5000 Du        
  38490 ****       125.7500 155.7500 133.2500 Du        
  38491 ****       125.7500 155.7500 133.5000 Du        
  38492 ****       125.7500 155.7500 133.7500 Du        
  38493 ****       125.7500 155.7500 134.0000 Du        
  38494 ****       125.7500 155.7500 134.2500 Du        
  38495 ****       125.7500 156.0000 115.2500 Du        
  38496 ****       125.7500 156.0000 115.5000 Du        
  38497 ****       125.7500 156.0000 115.7500 Du        
  38498 ****       125.7500 156.0000 116.0000 Du        
  38499 ****       125.7500 156.0000 116.2500 Du        
  38500 ****       125.7500 156.0000 116.5000 Du        
  38501 ****       125.7500 156.0000 116.7500 Du        
  38502 ****       125.7500 156.0000 117.0000 Du        
  38503 ****       125.7500 156.0000 126.2500 Du        
  38504 ****       125.7500 156.0000 126.5000 Du        
  38505 ****       125.7500 156.0000 133.2500 Du        
  38506 ****       125.7500 156.0000 133.5000 Du        
  38507 ****       125.7500 156.0000 133.7500 Du        
  38508 ****       125.7500 156.0000 134.0000 Du        
  38509 ****       125.7500 156.0000 134.2500 Du        
  38510 ****       125.7500 156.2500 115.5000 Du        
  38511 ****       125.7500 156.2500 115.7500 Du        
  38512 ****       125.7500 156.2500 116.0000 Du        
  38513 ****       125.7500 156.2500 116.2500 Du        
  38514 ****       125.7500 156.2500 116.5000 Du        
  38515 ****       125.7500 156.2500 116.7500 Du        
  38516 ****       125.7500 156.2500 117.0000 Du        
  38517 ****       125.7500 156.2500 126.5000 Du        
  38518 ****       125.7500 156.2500 133.2500 Du        
  38519 ****       125.7500 156.2500 133.5000 Du        
  38520 ****       125.7500 156.2500 133.7500 Du        
  38521 ****       125.7500 156.2500 134.0000 Du        
  38522 ****       125.7500 156.5000 115.7500 Du        
  38523 ****       125.7500 156.5000 116.0000 Du        
  38524 ****       125.7500 156.5000 116.2500 Du        
  38525 ****       125.7500 156.5000 116.5000 Du        
  38526 ****       125.7500 156.5000 116.7500 Du        
  38527 ****       125.7500 156.5000 126.2500 Du        
  38528 ****       125.7500 156.5000 126.5000 Du        
  38529 ****       125.7500 156.5000 126.7500 Du        
  38530 ****       125.7500 156.7500 115.7500 Du        
  38531 ****       125.7500 156.7500 116.0000 Du        
  38532 ****       125.7500 156.7500 116.2500 Du        
  38533 ****       125.7500 156.7500 116.5000 Du        
  38534 ****       125.7500 156.7500 116.7500 Du        
  38535 ****       125.7500 156.7500 126.5000 Du        
  38536 ****       125.7500 157.0000 115.7500 Du        
  38537 ****       125.7500 157.0000 116.0000 Du        
  38538 ****       125.7500 157.0000 116.2500 Du        
  38539 ****       125.7500 157.0000 116.5000 Du        
  38540 ****       125.7500 157.0000 126.5000 Du        
  38541 ****       125.7500 157.2500 116.0000 Du        
  38542 ****       125.7500 157.2500 116.2500 Du        
  38543 ****       125.7500 161.0000 115.0000 Du        
  38544 ****       125.7500 161.2500 114.7500 Du        
  38545 ****       125.7500 161.2500 115.0000 Du        
  38546 ****       125.7500 161.5000 114.7500 Du        
  38547 ****       125.7500 161.5000 115.0000 Du        
  38548 ****       125.7500 161.5000 115.2500 Du        
  38549 ****       125.7500 161.7500 114.5000 Du        
  38550 ****       125.7500 161.7500 114.7500 Du        
  38551 ****       125.7500 161.7500 115.0000 Du        
  38552 ****       125.7500 161.7500 115.2500 Du        
  38553 ****       125.7500 162.0000 114.5000 Du        
  38554 ****       125.7500 162.0000 114.7500 Du        
  38555 ****       125.7500 162.0000 115.0000 Du        
  38556 ****       125.7500 162.0000 115.2500 Du        
  38557 ****       125.7500 162.2500 114.5000 Du        
  38558 ****       125.7500 162.2500 114.7500 Du        
  38559 ****       125.7500 162.2500 115.0000 Du        
  38560 ****       125.7500 162.2500 115.2500 Du        
  38561 ****       125.7500 162.5000 114.5000 Du        
  38562 ****       125.7500 162.5000 114.7500 Du        
  38563 ****       125.7500 162.5000 115.0000 Du        
  38564 ****       126.0000 142.0000 136.5000 Du        
  38565 ****       126.0000 142.0000 136.7500 Du        
  38566 ****       126.0000 142.0000 137.0000 Du        
  38567 ****       126.0000 142.2500 136.2500 Du        
  38568 ****       126.0000 142.2500 136.5000 Du        
  38569 ****       126.0000 142.2500 136.7500 Du        
  38570 ****       126.0000 142.2500 137.0000 Du        
  38571 ****       126.0000 142.5000 136.0000 Du        
  38572 ****       126.0000 142.5000 136.2500 Du        
  38573 ****       126.0000 142.5000 136.5000 Du        
  38574 ****       126.0000 142.5000 136.7500 Du        
  38575 ****       126.0000 142.7500 135.7500 Du        
  38576 ****       126.0000 142.7500 136.0000 Du        
  38577 ****       126.0000 142.7500 136.2500 Du        
  38578 ****       126.0000 142.7500 136.5000 Du        
  38579 ****       126.0000 142.7500 136.7500 Du        
  38580 ****       126.0000 143.0000 135.2500 Du        
  38581 ****       126.0000 143.0000 135.5000 Du        
  38582 ****       126.0000 143.0000 135.7500 Du        
  38583 ****       126.0000 143.0000 136.0000 Du        
  38584 ****       126.0000 143.0000 136.2500 Du        
  38585 ****       126.0000 143.0000 136.5000 Du        
  38586 ****       126.0000 143.2500 135.0000 Du        
  38587 ****       126.0000 143.2500 135.2500 Du        
  38588 ****       126.0000 143.2500 135.5000 Du        
  38589 ****       126.0000 143.2500 135.7500 Du        
  38590 ****       126.0000 143.2500 136.0000 Du        
  38591 ****       126.0000 143.5000 133.7500 Du        
  38592 ****       126.0000 143.5000 134.0000 Du        
  38593 ****       126.0000 143.5000 134.2500 Du        
  38594 ****       126.0000 143.5000 134.5000 Du        
  38595 ****       126.0000 143.5000 134.7500 Du        
  38596 ****       126.0000 143.5000 135.0000 Du        
  38597 ****       126.0000 143.5000 135.2500 Du        
  38598 ****       126.0000 143.7500 122.2500 Du        
  38599 ****       126.0000 143.7500 133.5000 Du        
  38600 ****       126.0000 143.7500 133.7500 Du        
  38601 ****       126.0000 143.7500 134.0000 Du        
  38602 ****       126.0000 143.7500 134.2500 Du        
  38603 ****       126.0000 143.7500 134.5000 Du        
  38604 ****       126.0000 143.7500 134.7500 Du        
  38605 ****       126.0000 143.7500 135.0000 Du        
  38606 ****       126.0000 144.0000 122.0000 Du        
  38607 ****       126.0000 144.0000 122.2500 Du        
  38608 ****       126.0000 144.0000 122.5000 Du        
  38609 ****       126.0000 144.0000 133.5000 Du        
  38610 ****       126.0000 144.0000 133.7500 Du        
  38611 ****       126.0000 144.0000 134.0000 Du        
  38612 ****       126.0000 144.0000 134.2500 Du        
  38613 ****       126.0000 144.0000 134.5000 Du        
  38614 ****       126.0000 144.0000 134.7500 Du        
  38615 ****       126.0000 144.2500 121.7500 Du        
  38616 ****       126.0000 144.2500 122.0000 Du        
  38617 ****       126.0000 144.2500 122.2500 Du        
  38618 ****       126.0000 144.2500 122.5000 Du        
  38619 ****       126.0000 144.2500 122.7500 Du        
  38620 ****       126.0000 144.2500 133.5000 Du        
  38621 ****       126.0000 144.2500 133.7500 Du        
  38622 ****       126.0000 144.2500 134.0000 Du        
  38623 ****       126.0000 144.2500 134.2500 Du        
  38624 ****       126.0000 144.2500 134.5000 Du        
  38625 ****       126.0000 144.5000 121.7500 Du        
  38626 ****       126.0000 144.5000 122.0000 Du        
  38627 ****       126.0000 144.5000 122.2500 Du        
  38628 ****       126.0000 144.5000 122.5000 Du        
  38629 ****       126.0000 144.5000 122.7500 Du        
  38630 ****       126.0000 144.5000 123.0000 Du        
  38631 ****       126.0000 144.5000 134.0000 Du        
  38632 ****       126.0000 144.7500 121.7500 Du        
  38633 ****       126.0000 144.7500 122.0000 Du        
  38634 ****       126.0000 144.7500 122.2500 Du        
  38635 ****       126.0000 144.7500 122.5000 Du        
  38636 ****       126.0000 144.7500 122.7500 Du        
  38637 ****       126.0000 144.7500 123.0000 Du        
  38638 ****       126.0000 145.0000 121.7500 Du        
  38639 ****       126.0000 145.0000 122.0000 Du        
  38640 ****       126.0000 145.0000 122.2500 Du        
  38641 ****       126.0000 145.0000 122.5000 Du        
  38642 ****       126.0000 145.0000 122.7500 Du        
  38643 ****       126.0000 145.0000 123.0000 Du        
  38644 ****       126.0000 145.0000 123.2500 Du        
  38645 ****       126.0000 145.2500 121.5000 Du        
  38646 ****       126.0000 145.2500 121.7500 Du        
  38647 ****       126.0000 145.2500 122.0000 Du        
  38648 ****       126.0000 145.2500 122.2500 Du        
  38649 ****       126.0000 145.2500 122.5000 Du        
  38650 ****       126.0000 145.2500 122.7500 Du        
  38651 ****       126.0000 145.2500 123.0000 Du        
  38652 ****       126.0000 145.2500 123.2500 Du        
  38653 ****       126.0000 145.5000 121.5000 Du        
  38654 ****       126.0000 145.5000 121.7500 Du        
  38655 ****       126.0000 145.5000 122.0000 Du        
  38656 ****       126.0000 145.5000 122.2500 Du        
  38657 ****       126.0000 145.5000 122.5000 Du        
  38658 ****       126.0000 145.5000 122.7500 Du        
  38659 ****       126.0000 145.5000 123.0000 Du        
  38660 ****       126.0000 145.5000 123.2500 Du        
  38661 ****       126.0000 145.7500 122.0000 Du        
  38662 ****       126.0000 145.7500 122.5000 Du        
  38663 ****       126.0000 145.7500 122.7500 Du        
  38664 ****       126.0000 145.7500 123.0000 Du        
  38665 ****       126.0000 151.0000 111.2500 Du        
  38666 ****       126.0000 151.0000 111.5000 Du        
  38667 ****       126.0000 151.0000 111.7500 Du        
  38668 ****       126.0000 151.2500 111.2500 Du        
  38669 ****       126.0000 151.2500 111.5000 Du        
  38670 ****       126.0000 151.2500 111.7500 Du        
  38671 ****       126.0000 151.2500 112.0000 Du        
  38672 ****       126.0000 151.5000 111.5000 Du        
  38673 ****       126.0000 151.5000 111.7500 Du        
  38674 ****       126.0000 151.5000 112.0000 Du        
  38675 ****       126.0000 151.5000 112.2500 Du        
  38676 ****       126.0000 151.7500 111.5000 Du        
  38677 ****       126.0000 151.7500 111.7500 Du        
  38678 ****       126.0000 151.7500 112.0000 Du        
  38679 ****       126.0000 151.7500 112.2500 Du        
  38680 ****       126.0000 152.0000 111.5000 Du        
  38681 ****       126.0000 152.0000 111.7500 Du        
  38682 ****       126.0000 152.0000 112.0000 Du        
  38683 ****       126.0000 152.0000 112.2500 Du        
  38684 ****       126.0000 152.0000 112.5000 Du        
  38685 ****       126.0000 152.2500 111.7500 Du        
  38686 ****       126.0000 152.2500 112.0000 Du        
  38687 ****       126.0000 152.2500 112.2500 Du        
  38688 ****       126.0000 152.2500 112.5000 Du        
  38689 ****       126.0000 152.5000 112.0000 Du        
  38690 ****       126.0000 152.5000 112.2500 Du        
  38691 ****       126.0000 152.5000 112.5000 Du        
  38692 ****       126.0000 152.7500 112.0000 Du        
  38693 ****       126.0000 152.7500 112.2500 Du        
  38694 ****       126.0000 152.7500 112.5000 Du        
  38695 ****       126.0000 153.0000 112.2500 Du        
  38696 ****       126.0000 153.0000 112.5000 Du        
  38697 ****       126.0000 153.0000 112.7500 Du        
  38698 ****       126.0000 153.2500 112.5000 Du        
  38699 ****       126.0000 153.2500 112.7500 Du        
  38700 ****       126.0000 154.7500 126.2500 Du        
  38701 ****       126.0000 155.0000 126.0000 Du        
  38702 ****       126.0000 155.0000 126.2500 Du        
  38703 ****       126.0000 155.0000 126.5000 Du        
  38704 ****       126.0000 155.0000 126.7500 Du        
  38705 ****       126.0000 155.2500 115.0000 Du        
  38706 ****       126.0000 155.2500 115.5000 Du        
  38707 ****       126.0000 155.2500 115.7500 Du        
  38708 ****       126.0000 155.2500 116.5000 Du        
  38709 ****       126.0000 155.2500 126.0000 Du        
  38710 ****       126.0000 155.2500 126.2500 Du        
  38711 ****       126.0000 155.2500 126.5000 Du        
  38712 ****       126.0000 155.2500 126.7500 Du        
  38713 ****       126.0000 155.2500 133.0000 Du        
  38714 ****       126.0000 155.2500 133.2500 Du        
  38715 ****       126.0000 155.2500 133.7500 Du        
  38716 ****       126.0000 155.2500 134.0000 Du        
  38717 ****       126.0000 155.5000 115.2500 Du        
  38718 ****       126.0000 155.5000 115.5000 Du        
  38719 ****       126.0000 155.5000 115.7500 Du        
  38720 ****       126.0000 155.5000 116.0000 Du        
  38721 ****       126.0000 155.5000 116.2500 Du        
  38722 ****       126.0000 155.5000 116.5000 Du        
  38723 ****       126.0000 155.5000 116.7500 Du        
  38724 ****       126.0000 155.5000 126.0000 Du        
  38725 ****       126.0000 155.5000 126.2500 Du        
  38726 ****       126.0000 155.5000 126.5000 Du        
  38727 ****       126.0000 155.5000 133.0000 Du        
  38728 ****       126.0000 155.5000 133.2500 Du        
  38729 ****       126.0000 155.5000 133.5000 Du        
  38730 ****       126.0000 155.5000 133.7500 Du        
  38731 ****       126.0000 155.5000 134.0000 Du        
  38732 ****       126.0000 155.5000 134.2500 Du        
  38733 ****       126.0000 155.7500 115.0000 Du        
  38734 ****       126.0000 155.7500 115.2500 Du        
  38735 ****       126.0000 155.7500 115.5000 Du        
  38736 ****       126.0000 155.7500 115.7500 Du        
  38737 ****       126.0000 155.7500 116.0000 Du        
  38738 ****       126.0000 155.7500 116.2500 Du        
  38739 ****       126.0000 155.7500 116.5000 Du        
  38740 ****       126.0000 155.7500 116.7500 Du        
  38741 ****       126.0000 155.7500 117.0000 Du        
  38742 ****       126.0000 155.7500 126.0000 Du        
  38743 ****       126.0000 155.7500 126.2500 Du        
  38744 ****       126.0000 155.7500 126.5000 Du        
  38745 ****       126.0000 155.7500 126.7500 Du        
  38746 ****       126.0000 155.7500 132.7500 Du        
  38747 ****       126.0000 155.7500 133.0000 Du        
  38748 ****       126.0000 155.7500 133.2500 Du        
  38749 ****       126.0000 155.7500 133.5000 Du        
  38750 ****       126.0000 155.7500 133.7500 Du        
  38751 ****       126.0000 155.7500 134.0000 Du        
  38752 ****       126.0000 155.7500 134.2500 Du        
  38753 ****       126.0000 156.0000 115.2500 Du        
  38754 ****       126.0000 156.0000 115.5000 Du        
  38755 ****       126.0000 156.0000 115.7500 Du        
  38756 ****       126.0000 156.0000 116.0000 Du        
  38757 ****       126.0000 156.0000 116.2500 Du        
  38758 ****       126.0000 156.0000 116.5000 Du        
  38759 ****       126.0000 156.0000 116.7500 Du        
  38760 ****       126.0000 156.0000 117.0000 Du        
  38761 ****       126.0000 156.0000 126.2500 Du        
  38762 ****       126.0000 156.0000 126.5000 Du        
  38763 ****       126.0000 156.0000 126.7500 Du        
  38764 ****       126.0000 156.0000 132.7500 Du        
  38765 ****       126.0000 156.0000 133.0000 Du        
  38766 ****       126.0000 156.0000 133.2500 Du        
  38767 ****       126.0000 156.0000 133.5000 Du        
  38768 ****       126.0000 156.0000 133.7500 Du        
  38769 ****       126.0000 156.0000 134.0000 Du        
  38770 ****       126.0000 156.0000 134.2500 Du        
  38771 ****       126.0000 156.2500 115.2500 Du        
  38772 ****       126.0000 156.2500 115.5000 Du        
  38773 ****       126.0000 156.2500 115.7500 Du        
  38774 ****       126.0000 156.2500 116.0000 Du        
  38775 ****       126.0000 156.2500 116.2500 Du        
  38776 ****       126.0000 156.2500 116.5000 Du        
  38777 ****       126.0000 156.2500 116.7500 Du        
  38778 ****       126.0000 156.2500 117.0000 Du        
  38779 ****       126.0000 156.2500 126.2500 Du        
  38780 ****       126.0000 156.2500 126.5000 Du        
  38781 ****       126.0000 156.2500 126.7500 Du        
  38782 ****       126.0000 156.2500 133.0000 Du        
  38783 ****       126.0000 156.2500 133.2500 Du        
  38784 ****       126.0000 156.2500 133.5000 Du        
  38785 ****       126.0000 156.2500 133.7500 Du        
  38786 ****       126.0000 156.2500 134.0000 Du        
  38787 ****       126.0000 156.2500 134.2500 Du        
  38788 ****       126.0000 156.5000 115.7500 Du        
  38789 ****       126.0000 156.5000 116.0000 Du        
  38790 ****       126.0000 156.5000 116.2500 Du        
  38791 ****       126.0000 156.5000 116.5000 Du        
  38792 ****       126.0000 156.5000 116.7500 Du        
  38793 ****       126.0000 156.5000 126.2500 Du        
  38794 ****       126.0000 156.5000 126.5000 Du        
  38795 ****       126.0000 156.5000 126.7500 Du        
  38796 ****       126.0000 156.5000 133.0000 Du        
  38797 ****       126.0000 156.5000 133.2500 Du        
  38798 ****       126.0000 156.5000 133.5000 Du        
  38799 ****       126.0000 156.5000 133.7500 Du        
  38800 ****       126.0000 156.5000 134.0000 Du        
  38801 ****       126.0000 156.7500 115.7500 Du        
  38802 ****       126.0000 156.7500 116.0000 Du        
  38803 ****       126.0000 156.7500 116.2500 Du        
  38804 ****       126.0000 156.7500 116.5000 Du        
  38805 ****       126.0000 156.7500 116.7500 Du        
  38806 ****       126.0000 156.7500 126.2500 Du        
  38807 ****       126.0000 156.7500 126.5000 Du        
  38808 ****       126.0000 156.7500 126.7500 Du        
  38809 ****       126.0000 157.0000 115.7500 Du        
  38810 ****       126.0000 157.0000 116.0000 Du        
  38811 ****       126.0000 157.0000 116.2500 Du        
  38812 ****       126.0000 157.0000 116.5000 Du        
  38813 ****       126.0000 157.0000 126.2500 Du        
  38814 ****       126.0000 157.0000 126.5000 Du        
  38815 ****       126.0000 157.2500 116.0000 Du        
  38816 ****       126.0000 157.2500 116.2500 Du        
  38817 ****       126.0000 161.2500 114.7500 Du        
  38818 ****       126.0000 161.5000 114.5000 Du        
  38819 ****       126.0000 161.5000 114.7500 Du        
  38820 ****       126.0000 161.5000 115.0000 Du        
  38821 ****       126.0000 161.7500 114.5000 Du        
  38822 ****       126.0000 161.7500 114.7500 Du        
  38823 ****       126.0000 161.7500 115.0000 Du        
  38824 ****       126.0000 162.0000 114.2500 Du        
  38825 ****       126.0000 162.0000 114.5000 Du        
  38826 ****       126.0000 162.0000 114.7500 Du        
  38827 ****       126.0000 162.0000 115.0000 Du        
  38828 ****       126.0000 162.2500 114.5000 Du        
  38829 ****       126.0000 162.2500 114.7500 Du        
  38830 ****       126.0000 162.2500 115.0000 Du        
  38831 ****       126.0000 162.5000 114.5000 Du        
  38832 ****       126.2500 141.7500 136.7500 Du        
  38833 ****       126.2500 142.0000 136.5000 Du        
  38834 ****       126.2500 142.0000 136.7500 Du        
  38835 ****       126.2500 142.0000 137.0000 Du        
  38836 ****       126.2500 142.2500 136.2500 Du        
  38837 ****       126.2500 142.2500 136.5000 Du        
  38838 ****       126.2500 142.2500 136.7500 Du        
  38839 ****       126.2500 142.2500 137.0000 Du        
  38840 ****       126.2500 142.5000 136.0000 Du        
  38841 ****       126.2500 142.5000 136.2500 Du        
  38842 ****       126.2500 142.5000 136.5000 Du        
  38843 ****       126.2500 142.5000 136.7500 Du        
  38844 ****       126.2500 142.7500 135.7500 Du        
  38845 ****       126.2500 142.7500 136.0000 Du        
  38846 ****       126.2500 142.7500 136.2500 Du        
  38847 ****       126.2500 142.7500 136.5000 Du        
  38848 ****       126.2500 142.7500 136.7500 Du        
  38849 ****       126.2500 143.0000 135.5000 Du        
  38850 ****       126.2500 143.0000 135.7500 Du        
  38851 ****       126.2500 143.0000 136.0000 Du        
  38852 ****       126.2500 143.0000 136.2500 Du        
  38853 ****       126.2500 143.7500 133.7500 Du        
  38854 ****       126.2500 143.7500 134.0000 Du        
  38855 ****       126.2500 143.7500 134.2500 Du        
  38856 ****       126.2500 144.0000 133.5000 Du        
  38857 ****       126.2500 144.0000 133.7500 Du        
  38858 ****       126.2500 144.0000 134.0000 Du        
  38859 ****       126.2500 144.0000 134.2500 Du        
  38860 ****       126.2500 144.2500 121.7500 Du        
  38861 ****       126.2500 144.2500 122.0000 Du        
  38862 ****       126.2500 144.2500 122.2500 Du        
  38863 ****       126.2500 144.2500 133.5000 Du        
  38864 ****       126.2500 144.2500 133.7500 Du        
  38865 ****       126.2500 144.2500 134.0000 Du        
  38866 ****       126.2500 144.5000 121.7500 Du        
  38867 ****       126.2500 144.5000 122.0000 Du        
  38868 ****       126.2500 144.5000 122.2500 Du        
  38869 ****       126.2500 144.5000 122.5000 Du        
  38870 ****       126.2500 144.5000 122.7500 Du        
  38871 ****       126.2500 144.5000 123.0000 Du        
  38872 ****       126.2500 144.7500 121.7500 Du        
  38873 ****       126.2500 144.7500 122.0000 Du        
  38874 ****       126.2500 144.7500 122.2500 Du        
  38875 ****       126.2500 144.7500 122.5000 Du        
  38876 ****       126.2500 144.7500 122.7500 Du        
  38877 ****       126.2500 144.7500 123.0000 Du        
  38878 ****       126.2500 145.0000 121.5000 Du        
  38879 ****       126.2500 145.0000 121.7500 Du        
  38880 ****       126.2500 145.0000 122.0000 Du        
  38881 ****       126.2500 145.0000 122.2500 Du        
  38882 ****       126.2500 145.0000 122.5000 Du        
  38883 ****       126.2500 145.0000 122.7500 Du        
  38884 ****       126.2500 145.0000 123.0000 Du        
  38885 ****       126.2500 145.0000 123.2500 Du        
  38886 ****       126.2500 145.2500 121.2500 Du        
  38887 ****       126.2500 145.2500 121.5000 Du        
  38888 ****       126.2500 145.2500 121.7500 Du        
  38889 ****       126.2500 145.2500 122.0000 Du        
  38890 ****       126.2500 145.2500 122.2500 Du        
  38891 ****       126.2500 145.2500 122.5000 Du        
  38892 ****       126.2500 145.2500 122.7500 Du        
  38893 ****       126.2500 145.2500 123.0000 Du        
  38894 ****       126.2500 145.2500 123.2500 Du        
  38895 ****       126.2500 145.5000 121.0000 Du        
  38896 ****       126.2500 145.5000 121.2500 Du        
  38897 ****       126.2500 145.5000 121.5000 Du        
  38898 ****       126.2500 145.5000 121.7500 Du        
  38899 ****       126.2500 145.5000 122.0000 Du        
  38900 ****       126.2500 145.5000 122.2500 Du        
  38901 ****       126.2500 145.5000 122.5000 Du        
  38902 ****       126.2500 145.5000 122.7500 Du        
  38903 ****       126.2500 145.5000 123.0000 Du        
  38904 ****       126.2500 145.5000 123.2500 Du        
  38905 ****       126.2500 145.7500 121.0000 Du        
  38906 ****       126.2500 145.7500 121.2500 Du        
  38907 ****       126.2500 145.7500 121.5000 Du        
  38908 ****       126.2500 145.7500 121.7500 Du        
  38909 ****       126.2500 145.7500 122.0000 Du        
  38910 ****       126.2500 145.7500 122.2500 Du        
  38911 ****       126.2500 145.7500 122.5000 Du        
  38912 ****       126.2500 145.7500 122.7500 Du        
  38913 ****       126.2500 145.7500 123.0000 Du        
  38914 ****       126.2500 145.7500 123.2500 Du        
  38915 ****       126.2500 146.0000 120.7500 Du        
  38916 ****       126.2500 146.0000 121.0000 Du        
  38917 ****       126.2500 146.0000 121.2500 Du        
  38918 ****       126.2500 146.0000 121.5000 Du        
  38919 ****       126.2500 146.0000 121.7500 Du        
  38920 ****       126.2500 146.0000 122.0000 Du        
  38921 ****       126.2500 146.0000 122.2500 Du        
  38922 ****       126.2500 146.0000 122.5000 Du        
  38923 ****       126.2500 146.0000 122.7500 Du        
  38924 ****       126.2500 146.0000 123.0000 Du        
  38925 ****       126.2500 146.0000 123.2500 Du        
  38926 ****       126.2500 146.2500 120.7500 Du        
  38927 ****       126.2500 146.2500 121.0000 Du        
  38928 ****       126.2500 146.2500 121.2500 Du        
  38929 ****       126.2500 146.2500 121.5000 Du        
  38930 ****       126.2500 146.2500 121.7500 Du        
  38931 ****       126.2500 146.2500 122.0000 Du        
  38932 ****       126.2500 146.2500 122.2500 Du        
  38933 ****       126.2500 146.2500 122.7500 Du        
  38934 ****       126.2500 146.2500 123.0000 Du        
  38935 ****       126.2500 146.2500 123.2500 Du        
  38936 ****       126.2500 146.5000 121.0000 Du        
  38937 ****       126.2500 146.5000 121.2500 Du        
  38938 ****       126.2500 149.5000 140.0000 Du        
  38939 ****       126.2500 149.7500 140.0000 Du        
  38940 ****       126.2500 149.7500 140.2500 Du        
  38941 ****       126.2500 151.2500 111.5000 Du        
  38942 ****       126.2500 151.5000 111.5000 Du        
  38943 ****       126.2500 151.5000 111.7500 Du        
  38944 ****       126.2500 151.5000 112.0000 Du        
  38945 ****       126.2500 151.7500 111.5000 Du        
  38946 ****       126.2500 151.7500 111.7500 Du        
  38947 ****       126.2500 151.7500 112.0000 Du        
  38948 ****       126.2500 151.7500 112.2500 Du        
  38949 ****       126.2500 152.0000 111.7500 Du        
  38950 ****       126.2500 152.0000 112.0000 Du        
  38951 ****       126.2500 152.0000 112.2500 Du        
  38952 ****       126.2500 152.0000 112.5000 Du        
  38953 ****       126.2500 152.2500 111.7500 Du        
  38954 ****       126.2500 152.2500 112.0000 Du        
  38955 ****       126.2500 152.2500 112.2500 Du        
  38956 ****       126.2500 152.2500 112.5000 Du        
  38957 ****       126.2500 152.5000 112.0000 Du        
  38958 ****       126.2500 152.5000 112.2500 Du        
  38959 ****       126.2500 152.5000 112.5000 Du        
  38960 ****       126.2500 152.7500 112.0000 Du        
  38961 ****       126.2500 152.7500 112.2500 Du        
  38962 ****       126.2500 152.7500 112.5000 Du        
  38963 ****       126.2500 153.0000 112.2500 Du        
  38964 ****       126.2500 153.0000 112.5000 Du        
  38965 ****       126.2500 153.0000 112.7500 Du        
  38966 ****       126.2500 153.2500 112.5000 Du        
  38967 ****       126.2500 153.2500 112.7500 Du        
  38968 ****       126.2500 154.7500 126.0000 Du        
  38969 ****       126.2500 154.7500 126.2500 Du        
  38970 ****       126.2500 154.7500 126.5000 Du        
  38971 ****       126.2500 155.0000 126.0000 Du        
  38972 ****       126.2500 155.0000 126.2500 Du        
  38973 ****       126.2500 155.0000 126.5000 Du        
  38974 ****       126.2500 155.0000 126.7500 Du        
  38975 ****       126.2500 155.2500 126.0000 Du        
  38976 ****       126.2500 155.2500 126.2500 Du        
  38977 ****       126.2500 155.2500 126.5000 Du        
  38978 ****       126.2500 155.2500 126.7500 Du        
  38979 ****       126.2500 155.2500 133.0000 Du        
  38980 ****       126.2500 155.2500 133.2500 Du        
  38981 ****       126.2500 155.2500 133.5000 Du        
  38982 ****       126.2500 155.2500 133.7500 Du        
  38983 ****       126.2500 155.2500 134.0000 Du        
  38984 ****       126.2500 155.2500 134.2500 Du        
  38985 ****       126.2500 155.5000 126.0000 Du        
  38986 ****       126.2500 155.5000 126.2500 Du        
  38987 ****       126.2500 155.5000 126.5000 Du        
  38988 ****       126.2500 155.5000 126.7500 Du        
  38989 ****       126.2500 155.5000 132.5000 Du        
  38990 ****       126.2500 155.5000 132.7500 Du        
  38991 ****       126.2500 155.5000 133.0000 Du        
  38992 ****       126.2500 155.5000 133.2500 Du        
  38993 ****       126.2500 155.5000 133.5000 Du        
  38994 ****       126.2500 155.5000 133.7500 Du        
  38995 ****       126.2500 155.5000 134.0000 Du        
  38996 ****       126.2500 155.5000 134.2500 Du        
  38997 ****       126.2500 155.7500 115.0000 Du        
  38998 ****       126.2500 155.7500 115.2500 Du        
  38999 ****       126.2500 155.7500 115.5000 Du        
  39000 ****       126.2500 155.7500 115.7500 Du        
  39001 ****       126.2500 155.7500 116.0000 Du        
  39002 ****       126.2500 155.7500 116.2500 Du        
  39003 ****       126.2500 155.7500 116.5000 Du        
  39004 ****       126.2500 155.7500 116.7500 Du        
  39005 ****       126.2500 155.7500 126.0000 Du        
  39006 ****       126.2500 155.7500 126.2500 Du        
  39007 ****       126.2500 155.7500 126.5000 Du        
  39008 ****       126.2500 155.7500 126.7500 Du        
  39009 ****       126.2500 155.7500 132.5000 Du        
  39010 ****       126.2500 155.7500 132.7500 Du        
  39011 ****       126.2500 155.7500 133.0000 Du        
  39012 ****       126.2500 155.7500 133.2500 Du        
  39013 ****       126.2500 155.7500 133.5000 Du        
  39014 ****       126.2500 155.7500 133.7500 Du        
  39015 ****       126.2500 155.7500 134.0000 Du        
  39016 ****       126.2500 155.7500 134.2500 Du        
  39017 ****       126.2500 156.0000 115.0000 Du        
  39018 ****       126.2500 156.0000 115.2500 Du        
  39019 ****       126.2500 156.0000 115.5000 Du        
  39020 ****       126.2500 156.0000 115.7500 Du        
  39021 ****       126.2500 156.0000 116.0000 Du        
  39022 ****       126.2500 156.0000 116.2500 Du        
  39023 ****       126.2500 156.0000 116.5000 Du        
  39024 ****       126.2500 156.0000 116.7500 Du        
  39025 ****       126.2500 156.0000 117.0000 Du        
  39026 ****       126.2500 156.0000 126.0000 Du        
  39027 ****       126.2500 156.0000 126.2500 Du        
  39028 ****       126.2500 156.0000 126.5000 Du        
  39029 ****       126.2500 156.0000 126.7500 Du        
  39030 ****       126.2500 156.0000 132.2500 Du        
  39031 ****       126.2500 156.0000 132.5000 Du        
  39032 ****       126.2500 156.0000 132.7500 Du        
  39033 ****       126.2500 156.0000 133.0000 Du        
  39034 ****       126.2500 156.0000 133.2500 Du        
  39035 ****       126.2500 156.0000 133.5000 Du        
  39036 ****       126.2500 156.0000 133.7500 Du        
  39037 ****       126.2500 156.0000 134.0000 Du        
  39038 ****       126.2500 156.0000 134.2500 Du        
  39039 ****       126.2500 156.2500 115.2500 Du        
  39040 ****       126.2500 156.2500 115.5000 Du        
  39041 ****       126.2500 156.2500 115.7500 Du        
  39042 ****       126.2500 156.2500 116.0000 Du        
  39043 ****       126.2500 156.2500 116.2500 Du        
  39044 ****       126.2500 156.2500 116.5000 Du        
  39045 ****       126.2500 156.2500 116.7500 Du        
  39046 ****       126.2500 156.2500 117.0000 Du        
  39047 ****       126.2500 156.2500 126.0000 Du        
  39048 ****       126.2500 156.2500 126.2500 Du        
  39049 ****       126.2500 156.2500 126.5000 Du        
  39050 ****       126.2500 156.2500 126.7500 Du        
  39051 ****       126.2500 156.2500 132.5000 Du        
  39052 ****       126.2500 156.2500 132.7500 Du        
  39053 ****       126.2500 156.2500 133.0000 Du        
  39054 ****       126.2500 156.2500 133.2500 Du        
  39055 ****       126.2500 156.2500 133.5000 Du        
  39056 ****       126.2500 156.2500 133.7500 Du        
  39057 ****       126.2500 156.2500 134.0000 Du        
  39058 ****       126.2500 156.2500 134.2500 Du        
  39059 ****       126.2500 156.5000 115.7500 Du        
  39060 ****       126.2500 156.5000 116.0000 Du        
  39061 ****       126.2500 156.5000 116.2500 Du        
  39062 ****       126.2500 156.5000 116.5000 Du        
  39063 ****       126.2500 156.5000 116.7500 Du        
  39064 ****       126.2500 156.5000 126.0000 Du        
  39065 ****       126.2500 156.5000 126.2500 Du        
  39066 ****       126.2500 156.5000 126.5000 Du        
  39067 ****       126.2500 156.5000 126.7500 Du        
  39068 ****       126.2500 156.5000 132.7500 Du        
  39069 ****       126.2500 156.5000 133.0000 Du        
  39070 ****       126.2500 156.5000 133.2500 Du        
  39071 ****       126.2500 156.5000 133.5000 Du        
  39072 ****       126.2500 156.5000 133.7500 Du        
  39073 ****       126.2500 156.5000 134.0000 Du        
  39074 ****       126.2500 156.5000 134.2500 Du        
  39075 ****       126.2500 156.7500 115.7500 Du        
  39076 ****       126.2500 156.7500 116.0000 Du        
  39077 ****       126.2500 156.7500 116.2500 Du        
  39078 ****       126.2500 156.7500 116.5000 Du        
  39079 ****       126.2500 156.7500 116.7500 Du        
  39080 ****       126.2500 156.7500 126.0000 Du        
  39081 ****       126.2500 156.7500 126.2500 Du        
  39082 ****       126.2500 156.7500 126.5000 Du        
  39083 ****       126.2500 156.7500 126.7500 Du        
  39084 ****       126.2500 157.0000 115.7500 Du        
  39085 ****       126.2500 157.0000 116.0000 Du        
  39086 ****       126.2500 157.0000 116.2500 Du        
  39087 ****       126.2500 157.0000 116.5000 Du        
  39088 ****       126.2500 157.0000 126.2500 Du        
  39089 ****       126.2500 157.2500 115.7500 Du        
  39090 ****       126.2500 157.2500 116.0000 Du        
  39091 ****       126.2500 157.2500 116.2500 Du        
  39092 ****       126.2500 161.5000 114.5000 Du        
  39093 ****       126.2500 161.5000 114.7500 Du        
  39094 ****       126.2500 161.7500 114.5000 Du        
  39095 ****       126.2500 162.0000 114.5000 Du        
  39096 ****       126.2500 162.2500 114.5000 Du        
  39097 ****       126.5000 141.7500 136.7500 Du        
  39098 ****       126.5000 142.0000 136.2500 Du        
  39099 ****       126.5000 142.0000 136.5000 Du        
  39100 ****       126.5000 142.0000 136.7500 Du        
  39101 ****       126.5000 142.0000 137.0000 Du        
  39102 ****       126.5000 142.2500 136.2500 Du        
  39103 ****       126.5000 142.2500 136.5000 Du        
  39104 ****       126.5000 142.2500 136.7500 Du        
  39105 ****       126.5000 142.5000 136.0000 Du        
  39106 ****       126.5000 142.5000 136.2500 Du        
  39107 ****       126.5000 142.5000 136.5000 Du        
  39108 ****       126.5000 142.5000 136.7500 Du        
  39109 ****       126.5000 142.7500 136.0000 Du        
  39110 ****       126.5000 142.7500 136.2500 Du        
  39111 ****       126.5000 143.7500 133.7500 Du        
  39112 ****       126.5000 143.7500 134.0000 Du        
  39113 ****       126.5000 144.0000 133.7500 Du        
  39114 ****       126.5000 144.2500 133.7500 Du        
  39115 ****       126.5000 144.5000 121.7500 Du        
  39116 ****       126.5000 144.5000 122.0000 Du        
  39117 ****       126.5000 144.5000 122.2500 Du        
  39118 ****       126.5000 144.7500 121.5000 Du        
  39119 ****       126.5000 144.7500 121.7500 Du        
  39120 ****       126.5000 144.7500 122.0000 Du        
  39121 ****       126.5000 144.7500 122.2500 Du        
  39122 ****       126.5000 144.7500 122.5000 Du        
  39123 ****       126.5000 144.7500 122.7500 Du        
  39124 ****       126.5000 145.0000 121.5000 Du        
  39125 ****       126.5000 145.0000 121.7500 Du        
  39126 ****       126.5000 145.0000 122.0000 Du        
  39127 ****       126.5000 145.0000 122.2500 Du        
  39128 ****       126.5000 145.0000 122.5000 Du        
  39129 ****       126.5000 145.0000 122.7500 Du        
  39130 ****       126.5000 145.0000 123.0000 Du        
  39131 ****       126.5000 145.2500 121.2500 Du        
  39132 ****       126.5000 145.2500 121.5000 Du        
  39133 ****       126.5000 145.2500 121.7500 Du        
  39134 ****       126.5000 145.2500 122.0000 Du        
  39135 ****       126.5000 145.2500 122.2500 Du        
  39136 ****       126.5000 145.2500 122.5000 Du        
  39137 ****       126.5000 145.2500 122.7500 Du        
  39138 ****       126.5000 145.2500 123.0000 Du        
  39139 ****       126.5000 145.2500 123.2500 Du        
  39140 ****       126.5000 145.5000 121.0000 Du        
  39141 ****       126.5000 145.5000 121.2500 Du        
  39142 ****       126.5000 145.5000 121.5000 Du        
  39143 ****       126.5000 145.5000 121.7500 Du        
  39144 ****       126.5000 145.5000 122.0000 Du        
  39145 ****       126.5000 145.5000 122.2500 Du        
  39146 ****       126.5000 145.5000 122.5000 Du        
  39147 ****       126.5000 145.5000 122.7500 Du        
  39148 ****       126.5000 145.5000 123.0000 Du        
  39149 ****       126.5000 145.5000 123.2500 Du        
  39150 ****       126.5000 145.7500 120.7500 Du        
  39151 ****       126.5000 145.7500 121.0000 Du        
  39152 ****       126.5000 145.7500 121.2500 Du        
  39153 ****       126.5000 145.7500 121.5000 Du        
  39154 ****       126.5000 145.7500 121.7500 Du        
  39155 ****       126.5000 145.7500 122.0000 Du        
  39156 ****       126.5000 145.7500 122.2500 Du        
  39157 ****       126.5000 145.7500 122.5000 Du        
  39158 ****       126.5000 145.7500 122.7500 Du        
  39159 ****       126.5000 145.7500 123.0000 Du        
  39160 ****       126.5000 145.7500 123.2500 Du        
  39161 ****       126.5000 146.0000 120.7500 Du        
  39162 ****       126.5000 146.0000 121.0000 Du        
  39163 ****       126.5000 146.0000 121.2500 Du        
  39164 ****       126.5000 146.0000 121.5000 Du        
  39165 ****       126.5000 146.0000 121.7500 Du        
  39166 ****       126.5000 146.0000 122.0000 Du        
  39167 ****       126.5000 146.0000 122.2500 Du        
  39168 ****       126.5000 146.0000 122.5000 Du        
  39169 ****       126.5000 146.0000 122.7500 Du        
  39170 ****       126.5000 146.0000 123.0000 Du        
  39171 ****       126.5000 146.0000 123.2500 Du        
  39172 ****       126.5000 146.2500 120.7500 Du        
  39173 ****       126.5000 146.2500 121.0000 Du        
  39174 ****       126.5000 146.2500 121.2500 Du        
  39175 ****       126.5000 146.2500 121.5000 Du        
  39176 ****       126.5000 146.2500 121.7500 Du        
  39177 ****       126.5000 146.2500 122.0000 Du        
  39178 ****       126.5000 146.2500 122.2500 Du        
  39179 ****       126.5000 146.2500 122.5000 Du        
  39180 ****       126.5000 146.2500 122.7500 Du        
  39181 ****       126.5000 146.2500 123.0000 Du        
  39182 ****       126.5000 146.2500 123.2500 Du        
  39183 ****       126.5000 146.5000 121.0000 Du        
  39184 ****       126.5000 146.5000 121.2500 Du        
  39185 ****       126.5000 146.5000 121.5000 Du        
  39186 ****       126.5000 146.5000 121.7500 Du        
  39187 ****       126.5000 146.5000 122.0000 Du        
  39188 ****       126.5000 146.5000 122.2500 Du        
  39189 ****       126.5000 146.5000 122.5000 Du        
  39190 ****       126.5000 146.5000 122.7500 Du        
  39191 ****       126.5000 146.5000 123.0000 Du        
  39192 ****       126.5000 146.7500 121.2500 Du        
  39193 ****       126.5000 146.7500 121.5000 Du        
  39194 ****       126.5000 146.7500 121.7500 Du        
  39195 ****       126.5000 146.7500 122.0000 Du        
  39196 ****       126.5000 146.7500 122.2500 Du        
  39197 ****       126.5000 146.7500 122.5000 Du        
  39198 ****       126.5000 146.7500 122.7500 Du        
  39199 ****       126.5000 146.7500 123.0000 Du        
  39200 ****       126.5000 147.0000 121.7500 Du        
  39201 ****       126.5000 147.0000 122.0000 Du        
  39202 ****       126.5000 147.0000 122.2500 Du        
  39203 ****       126.5000 147.0000 122.7500 Du        
  39204 ****       126.5000 147.0000 123.0000 Du        
  39205 ****       126.5000 147.0000 123.2500 Du        
  39206 ****       126.5000 147.2500 123.0000 Du        
  39207 ****       126.5000 147.2500 123.2500 Du        
  39208 ****       126.5000 149.2500 139.5000 Du        
  39209 ****       126.5000 149.2500 139.7500 Du        
  39210 ****       126.5000 149.2500 140.0000 Du        
  39211 ****       126.5000 149.2500 140.2500 Du        
  39212 ****       126.5000 149.2500 140.5000 Du        
  39213 ****       126.5000 149.5000 138.7500 Du        
  39214 ****       126.5000 149.5000 139.0000 Du        
  39215 ****       126.5000 149.5000 139.2500 Du        
  39216 ****       126.5000 149.5000 139.5000 Du        
  39217 ****       126.5000 149.5000 139.7500 Du        
  39218 ****       126.5000 149.5000 140.0000 Du        
  39219 ****       126.5000 149.5000 140.2500 Du        
  39220 ****       126.5000 149.5000 140.5000 Du        
  39221 ****       126.5000 149.7500 138.0000 Du        
  39222 ****       126.5000 149.7500 138.5000 Du        
  39223 ****       126.5000 149.7500 138.7500 Du        
  39224 ****       126.5000 149.7500 139.0000 Du        
  39225 ****       126.5000 149.7500 139.2500 Du        
  39226 ****       126.5000 149.7500 139.5000 Du        
  39227 ****       126.5000 149.7500 139.7500 Du        
  39228 ****       126.5000 149.7500 140.0000 Du        
  39229 ****       126.5000 149.7500 140.2500 Du        
  39230 ****       126.5000 149.7500 140.5000 Du        
  39231 ****       126.5000 150.0000 138.5000 Du        
  39232 ****       126.5000 150.0000 138.7500 Du        
  39233 ****       126.5000 150.0000 139.0000 Du        
  39234 ****       126.5000 150.0000 139.2500 Du        
  39235 ****       126.5000 150.0000 139.5000 Du        
  39236 ****       126.5000 150.0000 139.7500 Du        
  39237 ****       126.5000 150.2500 139.2500 Du        
  39238 ****       126.5000 152.0000 112.0000 Du        
  39239 ****       126.5000 152.0000 112.2500 Du        
  39240 ****       126.5000 152.2500 112.0000 Du        
  39241 ****       126.5000 152.2500 112.2500 Du        
  39242 ****       126.5000 152.5000 112.0000 Du        
  39243 ****       126.5000 154.7500 126.0000 Du        
  39244 ****       126.5000 154.7500 126.2500 Du        
  39245 ****       126.5000 155.0000 125.7500 Du        
  39246 ****       126.5000 155.0000 126.0000 Du        
  39247 ****       126.5000 155.0000 126.2500 Du        
  39248 ****       126.5000 155.0000 126.5000 Du        
  39249 ****       126.5000 155.0000 126.7500 Du        
  39250 ****       126.5000 155.2500 125.7500 Du        
  39251 ****       126.5000 155.2500 126.0000 Du        
  39252 ****       126.5000 155.2500 126.2500 Du        
  39253 ****       126.5000 155.2500 126.5000 Du        
  39254 ****       126.5000 155.2500 126.7500 Du        
  39255 ****       126.5000 155.2500 127.0000 Du        
  39256 ****       126.5000 155.2500 133.0000 Du        
  39257 ****       126.5000 155.2500 133.2500 Du        
  39258 ****       126.5000 155.5000 125.7500 Du        
  39259 ****       126.5000 155.5000 126.0000 Du        
  39260 ****       126.5000 155.5000 126.2500 Du        
  39261 ****       126.5000 155.5000 126.5000 Du        
  39262 ****       126.5000 155.5000 126.7500 Du        
  39263 ****       126.5000 155.5000 127.0000 Du        
  39264 ****       126.5000 155.5000 132.0000 Du        
  39265 ****       126.5000 155.5000 132.2500 Du        
  39266 ****       126.5000 155.5000 132.5000 Du        
  39267 ****       126.5000 155.5000 132.7500 Du        
  39268 ****       126.5000 155.5000 133.0000 Du        
  39269 ****       126.5000 155.5000 133.2500 Du        
  39270 ****       126.5000 155.5000 133.5000 Du        
  39271 ****       126.5000 155.5000 133.7500 Du        
  39272 ****       126.5000 155.5000 134.0000 Du        
  39273 ****       126.5000 155.5000 134.2500 Du        
  39274 ****       126.5000 155.7500 125.7500 Du        
  39275 ****       126.5000 155.7500 126.0000 Du        
  39276 ****       126.5000 155.7500 126.2500 Du        
  39277 ****       126.5000 155.7500 126.5000 Du        
  39278 ****       126.5000 155.7500 126.7500 Du        
  39279 ****       126.5000 155.7500 127.0000 Du        
  39280 ****       126.5000 155.7500 132.0000 Du        
  39281 ****       126.5000 155.7500 132.2500 Du        
  39282 ****       126.5000 155.7500 132.5000 Du        
  39283 ****       126.5000 155.7500 132.7500 Du        
  39284 ****       126.5000 155.7500 133.0000 Du        
  39285 ****       126.5000 155.7500 133.2500 Du        
  39286 ****       126.5000 155.7500 133.5000 Du        
  39287 ****       126.5000 155.7500 133.7500 Du        
  39288 ****       126.5000 155.7500 134.0000 Du        
  39289 ****       126.5000 155.7500 134.2500 Du        
  39290 ****       126.5000 155.7500 134.5000 Du        
  39291 ****       126.5000 156.0000 115.0000 Du        
  39292 ****       126.5000 156.0000 115.2500 Du        
  39293 ****       126.5000 156.0000 115.5000 Du        
  39294 ****       126.5000 156.0000 115.7500 Du        
  39295 ****       126.5000 156.0000 116.0000 Du        
  39296 ****       126.5000 156.0000 116.2500 Du        
  39297 ****       126.5000 156.0000 116.5000 Du        
  39298 ****       126.5000 156.0000 116.7500 Du        
  39299 ****       126.5000 156.0000 125.7500 Du        
  39300 ****       126.5000 156.0000 126.0000 Du        
  39301 ****       126.5000 156.0000 126.2500 Du        
  39302 ****       126.5000 156.0000 126.5000 Du        
  39303 ****       126.5000 156.0000 126.7500 Du        
  39304 ****       126.5000 156.0000 127.0000 Du        
  39305 ****       126.5000 156.0000 132.0000 Du        
  39306 ****       126.5000 156.0000 132.2500 Du        
  39307 ****       126.5000 156.0000 132.5000 Du        
  39308 ****       126.5000 156.0000 132.7500 Du        
  39309 ****       126.5000 156.0000 133.0000 Du        
  39310 ****       126.5000 156.0000 133.2500 Du        
  39311 ****       126.5000 156.0000 133.5000 Du        
  39312 ****       126.5000 156.0000 133.7500 Du        
  39313 ****       126.5000 156.0000 134.0000 Du        
  39314 ****       126.5000 156.0000 134.2500 Du        
  39315 ****       126.5000 156.0000 134.5000 Du        
  39316 ****       126.5000 156.2500 115.2500 Du        
  39317 ****       126.5000 156.2500 115.5000 Du        
  39318 ****       126.5000 156.2500 115.7500 Du        
  39319 ****       126.5000 156.2500 116.0000 Du        
  39320 ****       126.5000 156.2500 116.2500 Du        
  39321 ****       126.5000 156.2500 116.5000 Du        
  39322 ****       126.5000 156.2500 116.7500 Du        
  39323 ****       126.5000 156.2500 126.0000 Du        
  39324 ****       126.5000 156.2500 126.2500 Du        
  39325 ****       126.5000 156.2500 126.5000 Du        
  39326 ****       126.5000 156.2500 126.7500 Du        
  39327 ****       126.5000 156.2500 127.0000 Du        
  39328 ****       126.5000 156.2500 132.2500 Du        
  39329 ****       126.5000 156.2500 132.5000 Du        
  39330 ****       126.5000 156.2500 132.7500 Du        
  39331 ****       126.5000 156.2500 133.0000 Du        
  39332 ****       126.5000 156.2500 133.2500 Du        
  39333 ****       126.5000 156.2500 133.5000 Du        
  39334 ****       126.5000 156.2500 133.7500 Du        
  39335 ****       126.5000 156.2500 134.0000 Du        
  39336 ****       126.5000 156.2500 134.2500 Du        
  39337 ****       126.5000 156.2500 134.5000 Du        
  39338 ****       126.5000 156.5000 115.7500 Du        
  39339 ****       126.5000 156.5000 116.0000 Du        
  39340 ****       126.5000 156.5000 116.2500 Du        
  39341 ****       126.5000 156.5000 116.5000 Du        
  39342 ****       126.5000 156.5000 116.7500 Du        
  39343 ****       126.5000 156.5000 126.0000 Du        
  39344 ****       126.5000 156.5000 126.2500 Du        
  39345 ****       126.5000 156.5000 126.5000 Du        
  39346 ****       126.5000 156.5000 126.7500 Du        
  39347 ****       126.5000 156.5000 127.0000 Du        
  39348 ****       126.5000 156.5000 132.5000 Du        
  39349 ****       126.5000 156.5000 132.7500 Du        
  39350 ****       126.5000 156.5000 133.0000 Du        
  39351 ****       126.5000 156.5000 133.2500 Du        
  39352 ****       126.5000 156.5000 133.5000 Du        
  39353 ****       126.5000 156.5000 133.7500 Du        
  39354 ****       126.5000 156.5000 134.0000 Du        
  39355 ****       126.5000 156.5000 134.2500 Du        
  39356 ****       126.5000 156.5000 134.5000 Du        
  39357 ****       126.5000 156.7500 115.7500 Du        
  39358 ****       126.5000 156.7500 116.0000 Du        
  39359 ****       126.5000 156.7500 116.2500 Du        
  39360 ****       126.5000 156.7500 116.5000 Du        
  39361 ****       126.5000 156.7500 116.7500 Du        
  39362 ****       126.5000 156.7500 126.0000 Du        
  39363 ****       126.5000 156.7500 126.2500 Du        
  39364 ****       126.5000 156.7500 126.5000 Du        
  39365 ****       126.5000 156.7500 133.0000 Du        
  39366 ****       126.5000 156.7500 133.2500 Du        
  39367 ****       126.5000 156.7500 133.5000 Du        
  39368 ****       126.5000 156.7500 133.7500 Du        
  39369 ****       126.5000 156.7500 134.0000 Du        
  39370 ****       126.5000 156.7500 134.2500 Du        
  39371 ****       126.5000 157.0000 115.5000 Du        
  39372 ****       126.5000 157.0000 115.7500 Du        
  39373 ****       126.5000 157.0000 116.0000 Du        
  39374 ****       126.5000 157.0000 116.2500 Du        
  39375 ****       126.5000 157.0000 116.5000 Du        
  39376 ****       126.5000 157.2500 115.5000 Du        
  39377 ****       126.5000 157.2500 115.7500 Du        
  39378 ****       126.5000 157.2500 116.0000 Du        
  39379 ****       126.5000 157.2500 116.2500 Du        
  39380 ****       126.7500 136.5000 144.7500 Du        
  39381 ****       126.7500 141.5000 136.7500 Du        
  39382 ****       126.7500 141.7500 136.5000 Du        
  39383 ****       126.7500 141.7500 136.7500 Du        
  39384 ****       126.7500 142.0000 136.2500 Du        
  39385 ****       126.7500 142.0000 136.5000 Du        
  39386 ****       126.7500 142.0000 136.7500 Du        
  39387 ****       126.7500 142.0000 137.0000 Du        
  39388 ****       126.7500 142.2500 136.2500 Du        
  39389 ****       126.7500 142.2500 136.5000 Du        
  39390 ****       126.7500 142.2500 136.7500 Du        
  39391 ****       126.7500 142.5000 136.0000 Du        
  39392 ****       126.7500 142.5000 136.2500 Du        
  39393 ****       126.7500 142.5000 136.5000 Du        
  39394 ****       126.7500 142.5000 136.7500 Du        
  39395 ****       126.7500 144.7500 121.5000 Du        
  39396 ****       126.7500 144.7500 121.7500 Du        
  39397 ****       126.7500 144.7500 122.0000 Du        
  39398 ****       126.7500 144.7500 122.2500 Du        
  39399 ****       126.7500 145.0000 121.2500 Du        
  39400 ****       126.7500 145.0000 121.5000 Du        
  39401 ****       126.7500 145.0000 121.7500 Du        
  39402 ****       126.7500 145.0000 122.0000 Du        
  39403 ****       126.7500 145.0000 122.2500 Du        
  39404 ****       126.7500 145.0000 122.5000 Du        
  39405 ****       126.7500 145.0000 122.7500 Du        
  39406 ****       126.7500 145.0000 123.0000 Du        
  39407 ****       126.7500 145.2500 121.0000 Du        
  39408 ****       126.7500 145.2500 121.2500 Du        
  39409 ****       126.7500 145.2500 121.5000 Du        
  39410 ****       126.7500 145.2500 121.7500 Du        
  39411 ****       126.7500 145.2500 122.0000 Du        
  39412 ****       126.7500 145.2500 122.2500 Du        
  39413 ****       126.7500 145.2500 122.5000 Du        
  39414 ****       126.7500 145.2500 122.7500 Du        
  39415 ****       126.7500 145.2500 123.0000 Du        
  39416 ****       126.7500 145.2500 123.2500 Du        
  39417 ****       126.7500 145.5000 120.7500 Du        
  39418 ****       126.7500 145.5000 121.0000 Du        
  39419 ****       126.7500 145.5000 121.2500 Du        
  39420 ****       126.7500 145.5000 121.5000 Du        
  39421 ****       126.7500 145.5000 121.7500 Du        
  39422 ****       126.7500 145.5000 122.0000 Du        
  39423 ****       126.7500 145.5000 122.2500 Du        
  39424 ****       126.7500 145.5000 122.5000 Du        
  39425 ****       126.7500 145.5000 122.7500 Du        
  39426 ****       126.7500 145.5000 123.0000 Du        
  39427 ****       126.7500 145.5000 123.2500 Du        
  39428 ****       126.7500 145.7500 120.7500 Du        
  39429 ****       126.7500 145.7500 121.0000 Du        
  39430 ****       126.7500 145.7500 121.2500 Du        
  39431 ****       126.7500 145.7500 121.5000 Du        
  39432 ****       126.7500 145.7500 121.7500 Du        
  39433 ****       126.7500 145.7500 122.0000 Du        
  39434 ****       126.7500 145.7500 122.2500 Du        
  39435 ****       126.7500 145.7500 122.5000 Du        
  39436 ****       126.7500 145.7500 122.7500 Du        
  39437 ****       126.7500 145.7500 123.0000 Du        
  39438 ****       126.7500 145.7500 123.2500 Du        
  39439 ****       126.7500 146.0000 120.7500 Du        
  39440 ****       126.7500 146.0000 121.0000 Du        
  39441 ****       126.7500 146.0000 121.2500 Du        
  39442 ****       126.7500 146.0000 121.5000 Du        
  39443 ****       126.7500 146.0000 121.7500 Du        
  39444 ****       126.7500 146.0000 122.0000 Du        
  39445 ****       126.7500 146.0000 122.2500 Du        
  39446 ****       126.7500 146.0000 122.5000 Du        
  39447 ****       126.7500 146.0000 122.7500 Du        
  39448 ****       126.7500 146.0000 123.0000 Du        
  39449 ****       126.7500 146.0000 123.2500 Du        
  39450 ****       126.7500 146.2500 120.7500 Du        
  39451 ****       126.7500 146.2500 121.0000 Du        
  39452 ****       126.7500 146.2500 121.2500 Du        
  39453 ****       126.7500 146.2500 121.5000 Du        
  39454 ****       126.7500 146.2500 121.7500 Du        
  39455 ****       126.7500 146.2500 122.0000 Du        
  39456 ****       126.7500 146.2500 122.2500 Du        
  39457 ****       126.7500 146.2500 122.5000 Du        
  39458 ****       126.7500 146.2500 122.7500 Du        
  39459 ****       126.7500 146.2500 123.0000 Du        
  39460 ****       126.7500 146.2500 123.2500 Du        
  39461 ****       126.7500 146.5000 121.0000 Du        
  39462 ****       126.7500 146.5000 121.2500 Du        
  39463 ****       126.7500 146.5000 121.5000 Du        
  39464 ****       126.7500 146.5000 121.7500 Du        
  39465 ****       126.7500 146.5000 122.0000 Du        
  39466 ****       126.7500 146.5000 122.2500 Du        
  39467 ****       126.7500 146.5000 122.5000 Du        
  39468 ****       126.7500 146.5000 122.7500 Du        
  39469 ****       126.7500 146.5000 123.0000 Du        
  39470 ****       126.7500 146.5000 123.2500 Du        
  39471 ****       126.7500 146.7500 121.2500 Du        
  39472 ****       126.7500 146.7500 121.5000 Du        
  39473 ****       126.7500 146.7500 121.7500 Du        
  39474 ****       126.7500 146.7500 122.0000 Du        
  39475 ****       126.7500 146.7500 122.2500 Du        
  39476 ****       126.7500 146.7500 122.5000 Du        
  39477 ****       126.7500 146.7500 122.7500 Du        
  39478 ****       126.7500 146.7500 123.0000 Du        
  39479 ****       126.7500 146.7500 123.2500 Du        
  39480 ****       126.7500 147.0000 121.7500 Du        
  39481 ****       126.7500 147.0000 122.0000 Du        
  39482 ****       126.7500 147.0000 122.2500 Du        
  39483 ****       126.7500 147.0000 122.5000 Du        
  39484 ****       126.7500 147.0000 122.7500 Du        
  39485 ****       126.7500 147.0000 123.0000 Du        
  39486 ****       126.7500 147.0000 123.2500 Du        
  39487 ****       126.7500 147.2500 122.0000 Du        
  39488 ****       126.7500 147.2500 122.2500 Du        
  39489 ****       126.7500 147.2500 122.5000 Du        
  39490 ****       126.7500 147.2500 122.7500 Du        
  39491 ****       126.7500 147.2500 123.0000 Du        
  39492 ****       126.7500 147.2500 123.2500 Du        
  39493 ****       126.7500 147.5000 122.7500 Du        
  39494 ****       126.7500 147.5000 123.0000 Du        
  39495 ****       126.7500 147.5000 123.2500 Du        
  39496 ****       126.7500 147.7500 122.7500 Du        
  39497 ****       126.7500 147.7500 123.0000 Du        
  39498 ****       126.7500 147.7500 123.2500 Du        
  39499 ****       126.7500 149.2500 138.2500 Du        
  39500 ****       126.7500 149.2500 139.0000 Du        
  39501 ****       126.7500 149.2500 139.2500 Du        
  39502 ****       126.7500 149.2500 139.5000 Du        
  39503 ****       126.7500 149.2500 139.7500 Du        
  39504 ****       126.7500 149.2500 140.0000 Du        
  39505 ****       126.7500 149.2500 140.2500 Du        
  39506 ****       126.7500 149.5000 137.7500 Du        
  39507 ****       126.7500 149.5000 138.0000 Du        
  39508 ****       126.7500 149.5000 138.2500 Du        
  39509 ****       126.7500 149.5000 138.5000 Du        
  39510 ****       126.7500 149.5000 138.7500 Du        
  39511 ****       126.7500 149.5000 139.0000 Du        
  39512 ****       126.7500 149.5000 139.2500 Du        
  39513 ****       126.7500 149.5000 139.5000 Du        
  39514 ****       126.7500 149.5000 139.7500 Du        
  39515 ****       126.7500 149.5000 140.0000 Du        
  39516 ****       126.7500 149.5000 140.2500 Du        
  39517 ****       126.7500 149.5000 140.5000 Du        
  39518 ****       126.7500 149.7500 137.5000 Du        
  39519 ****       126.7500 149.7500 137.7500 Du        
  39520 ****       126.7500 149.7500 138.0000 Du        
  39521 ****       126.7500 149.7500 138.2500 Du        
  39522 ****       126.7500 149.7500 138.5000 Du        
  39523 ****       126.7500 149.7500 138.7500 Du        
  39524 ****       126.7500 149.7500 139.0000 Du        
  39525 ****       126.7500 149.7500 139.2500 Du        
  39526 ****       126.7500 149.7500 139.5000 Du        
  39527 ****       126.7500 149.7500 139.7500 Du        
  39528 ****       126.7500 149.7500 140.0000 Du        
  39529 ****       126.7500 149.7500 140.2500 Du        
  39530 ****       126.7500 150.0000 137.5000 Du        
  39531 ****       126.7500 150.0000 137.7500 Du        
  39532 ****       126.7500 150.0000 138.0000 Du        
  39533 ****       126.7500 150.0000 138.2500 Du        
  39534 ****       126.7500 150.0000 138.5000 Du        
  39535 ****       126.7500 150.0000 138.7500 Du        
  39536 ****       126.7500 150.0000 139.0000 Du        
  39537 ****       126.7500 150.0000 139.2500 Du        
  39538 ****       126.7500 150.0000 139.5000 Du        
  39539 ****       126.7500 150.0000 139.7500 Du        
  39540 ****       126.7500 150.2500 138.0000 Du        
  39541 ****       126.7500 150.2500 138.2500 Du        
  39542 ****       126.7500 150.2500 138.5000 Du        
  39543 ****       126.7500 150.2500 138.7500 Du        
  39544 ****       126.7500 150.2500 139.0000 Du        
  39545 ****       126.7500 150.2500 139.2500 Du        
  39546 ****       126.7500 154.7500 126.2500 Du        
  39547 ****       126.7500 155.0000 126.0000 Du        
  39548 ****       126.7500 155.0000 126.2500 Du        
  39549 ****       126.7500 155.0000 126.5000 Du        
  39550 ****       126.7500 155.0000 126.7500 Du        
  39551 ****       126.7500 155.0000 127.0000 Du        
  39552 ****       126.7500 155.2500 125.7500 Du        
  39553 ****       126.7500 155.2500 126.0000 Du        
  39554 ****       126.7500 155.2500 126.2500 Du        
  39555 ****       126.7500 155.2500 126.5000 Du        
  39556 ****       126.7500 155.2500 126.7500 Du        
  39557 ****       126.7500 155.2500 127.0000 Du        
  39558 ****       126.7500 155.2500 127.2500 Du        
  39559 ****       126.7500 155.2500 132.7500 Du        
  39560 ****       126.7500 155.2500 133.0000 Du        
  39561 ****       126.7500 155.2500 133.2500 Du        
  39562 ****       126.7500 155.2500 134.0000 Du        
  39563 ****       126.7500 155.2500 134.2500 Du        
  39564 ****       126.7500 155.5000 125.5000 Du        
  39565 ****       126.7500 155.5000 125.7500 Du        
  39566 ****       126.7500 155.5000 126.0000 Du        
  39567 ****       126.7500 155.5000 126.2500 Du        
  39568 ****       126.7500 155.5000 126.5000 Du        
  39569 ****       126.7500 155.5000 126.7500 Du        
  39570 ****       126.7500 155.5000 127.0000 Du        
  39571 ****       126.7500 155.5000 127.2500 Du        
  39572 ****       126.7500 155.5000 132.0000 Du        
  39573 ****       126.7500 155.5000 132.2500 Du        
  39574 ****       126.7500 155.5000 132.5000 Du        
  39575 ****       126.7500 155.5000 132.7500 Du        
  39576 ****       126.7500 155.5000 133.0000 Du        
  39577 ****       126.7500 155.5000 133.2500 Du        
  39578 ****       126.7500 155.5000 133.5000 Du        
  39579 ****       126.7500 155.5000 133.7500 Du        
  39580 ****       126.7500 155.5000 134.0000 Du        
  39581 ****       126.7500 155.5000 134.2500 Du        
  39582 ****       126.7500 155.5000 134.5000 Du        
  39583 ****       126.7500 155.7500 125.5000 Du        
  39584 ****       126.7500 155.7500 125.7500 Du        
  39585 ****       126.7500 155.7500 126.0000 Du        
  39586 ****       126.7500 155.7500 126.2500 Du        
  39587 ****       126.7500 155.7500 126.5000 Du        
  39588 ****       126.7500 155.7500 126.7500 Du        
  39589 ****       126.7500 155.7500 127.0000 Du        
  39590 ****       126.7500 155.7500 127.2500 Du        
  39591 ****       126.7500 155.7500 131.7500 Du        
  39592 ****       126.7500 155.7500 132.0000 Du        
  39593 ****       126.7500 155.7500 132.2500 Du        
  39594 ****       126.7500 155.7500 132.5000 Du        
  39595 ****       126.7500 155.7500 132.7500 Du        
  39596 ****       126.7500 155.7500 133.0000 Du        
  39597 ****       126.7500 155.7500 133.2500 Du        
  39598 ****       126.7500 155.7500 133.5000 Du        
  39599 ****       126.7500 155.7500 133.7500 Du        
  39600 ****       126.7500 155.7500 134.0000 Du        
  39601 ****       126.7500 155.7500 134.2500 Du        
  39602 ****       126.7500 155.7500 134.5000 Du        
  39603 ****       126.7500 156.0000 116.0000 Du        
  39604 ****       126.7500 156.0000 116.2500 Du        
  39605 ****       126.7500 156.0000 116.5000 Du        
  39606 ****       126.7500 156.0000 116.7500 Du        
  39607 ****       126.7500 156.0000 125.7500 Du        
  39608 ****       126.7500 156.0000 126.0000 Du        
  39609 ****       126.7500 156.0000 126.2500 Du        
  39610 ****       126.7500 156.0000 126.5000 Du        
  39611 ****       126.7500 156.0000 126.7500 Du        
  39612 ****       126.7500 156.0000 127.0000 Du        
  39613 ****       126.7500 156.0000 127.2500 Du        
  39614 ****       126.7500 156.0000 131.7500 Du        
  39615 ****       126.7500 156.0000 132.0000 Du        
  39616 ****       126.7500 156.0000 132.2500 Du        
  39617 ****       126.7500 156.0000 132.5000 Du        
  39618 ****       126.7500 156.0000 132.7500 Du        
  39619 ****       126.7500 156.0000 133.0000 Du        
  39620 ****       126.7500 156.0000 133.2500 Du        
  39621 ****       126.7500 156.0000 133.5000 Du        
  39622 ****       126.7500 156.0000 133.7500 Du        
  39623 ****       126.7500 156.0000 134.0000 Du        
  39624 ****       126.7500 156.0000 134.2500 Du        
  39625 ****       126.7500 156.0000 134.5000 Du        
  39626 ****       126.7500 156.2500 115.2500 Du        
  39627 ****       126.7500 156.2500 115.5000 Du        
  39628 ****       126.7500 156.2500 115.7500 Du        
  39629 ****       126.7500 156.2500 116.0000 Du        
  39630 ****       126.7500 156.2500 116.2500 Du        
  39631 ****       126.7500 156.2500 116.5000 Du        
  39632 ****       126.7500 156.2500 116.7500 Du        
  39633 ****       126.7500 156.2500 125.7500 Du        
  39634 ****       126.7500 156.2500 126.0000 Du        
  39635 ****       126.7500 156.2500 126.2500 Du        
  39636 ****       126.7500 156.2500 126.5000 Du        
  39637 ****       126.7500 156.2500 126.7500 Du        
  39638 ****       126.7500 156.2500 127.0000 Du        
  39639 ****       126.7500 156.2500 132.0000 Du        
  39640 ****       126.7500 156.2500 132.2500 Du        
  39641 ****       126.7500 156.2500 132.5000 Du        
  39642 ****       126.7500 156.2500 132.7500 Du        
  39643 ****       126.7500 156.2500 133.0000 Du        
  39644 ****       126.7500 156.2500 133.2500 Du        
  39645 ****       126.7500 156.2500 133.5000 Du        
  39646 ****       126.7500 156.2500 133.7500 Du        
  39647 ****       126.7500 156.2500 134.0000 Du        
  39648 ****       126.7500 156.2500 134.2500 Du        
  39649 ****       126.7500 156.2500 134.5000 Du        
  39650 ****       126.7500 156.5000 115.7500 Du        
  39651 ****       126.7500 156.5000 116.0000 Du        
  39652 ****       126.7500 156.5000 116.2500 Du        
  39653 ****       126.7500 156.5000 116.5000 Du        
  39654 ****       126.7500 156.5000 116.7500 Du        
  39655 ****       126.7500 156.5000 125.7500 Du        
  39656 ****       126.7500 156.5000 126.0000 Du        
  39657 ****       126.7500 156.5000 126.2500 Du        
  39658 ****       126.7500 156.5000 126.5000 Du        
  39659 ****       126.7500 156.5000 126.7500 Du        
  39660 ****       126.7500 156.5000 132.2500 Du        
  39661 ****       126.7500 156.5000 132.5000 Du        
  39662 ****       126.7500 156.5000 132.7500 Du        
  39663 ****       126.7500 156.5000 133.0000 Du        
  39664 ****       126.7500 156.5000 133.2500 Du        
  39665 ****       126.7500 156.5000 133.5000 Du        
  39666 ****       126.7500 156.5000 133.7500 Du        
  39667 ****       126.7500 156.5000 134.0000 Du        
  39668 ****       126.7500 156.5000 134.2500 Du        
  39669 ****       126.7500 156.5000 134.5000 Du        
  39670 ****       126.7500 156.5000 134.7500 Du        
  39671 ****       126.7500 156.7500 115.5000 Du        
  39672 ****       126.7500 156.7500 115.7500 Du        
  39673 ****       126.7500 156.7500 116.0000 Du        
  39674 ****       126.7500 156.7500 116.2500 Du        
  39675 ****       126.7500 156.7500 116.5000 Du        
  39676 ****       126.7500 156.7500 116.7500 Du        
  39677 ****       126.7500 156.7500 125.7500 Du        
  39678 ****       126.7500 156.7500 126.0000 Du        
  39679 ****       126.7500 156.7500 126.2500 Du        
  39680 ****       126.7500 156.7500 132.7500 Du        
  39681 ****       126.7500 156.7500 133.0000 Du        
  39682 ****       126.7500 156.7500 133.2500 Du        
  39683 ****       126.7500 156.7500 133.5000 Du        
  39684 ****       126.7500 156.7500 133.7500 Du        
  39685 ****       126.7500 156.7500 134.0000 Du        
  39686 ****       126.7500 156.7500 134.2500 Du        
  39687 ****       126.7500 156.7500 134.5000 Du        
  39688 ****       126.7500 157.0000 115.5000 Du        
  39689 ****       126.7500 157.0000 115.7500 Du        
  39690 ****       126.7500 157.0000 116.0000 Du        
  39691 ****       126.7500 157.0000 116.2500 Du        
  39692 ****       126.7500 157.0000 116.5000 Du        
  39693 ****       126.7500 157.0000 133.2500 Du        
  39694 ****       126.7500 157.2500 115.5000 Du        
  39695 ****       126.7500 157.2500 115.7500 Du        
  39696 ****       126.7500 157.2500 116.0000 Du        
  39697 ****       126.7500 157.2500 116.2500 Du        
  39698 ****       127.0000 136.0000 144.7500 Du        
  39699 ****       127.0000 136.2500 144.5000 Du        
  39700 ****       127.0000 136.2500 144.7500 Du        
  39701 ****       127.0000 136.2500 145.0000 Du        
  39702 ****       127.0000 136.2500 145.2500 Du        
  39703 ****       127.0000 136.5000 144.7500 Du        
  39704 ****       127.0000 136.5000 145.0000 Du        
  39705 ****       127.0000 136.5000 145.2500 Du        
  39706 ****       127.0000 136.5000 145.5000 Du        
  39707 ****       127.0000 136.7500 144.7500 Du        
  39708 ****       127.0000 136.7500 145.0000 Du        
  39709 ****       127.0000 136.7500 145.2500 Du        
  39710 ****       127.0000 136.7500 145.5000 Du        
  39711 ****       127.0000 137.0000 144.7500 Du        
  39712 ****       127.0000 137.0000 145.0000 Du        
  39713 ****       127.0000 137.0000 145.2500 Du        
  39714 ****       127.0000 137.2500 144.7500 Du        
  39715 ****       127.0000 137.2500 145.0000 Du        
  39716 ****       127.0000 137.2500 145.2500 Du        
  39717 ****       127.0000 141.2500 136.7500 Du        
  39718 ****       127.0000 141.5000 136.5000 Du        
  39719 ****       127.0000 141.5000 136.7500 Du        
  39720 ****       127.0000 141.7500 136.5000 Du        
  39721 ****       127.0000 141.7500 136.7500 Du        
  39722 ****       127.0000 142.0000 136.2500 Du        
  39723 ****       127.0000 142.0000 136.5000 Du        
  39724 ****       127.0000 142.0000 136.7500 Du        
  39725 ****       127.0000 142.2500 136.2500 Du        
  39726 ****       127.0000 142.2500 136.5000 Du        
  39727 ****       127.0000 142.2500 136.7500 Du        
  39728 ****       127.0000 145.0000 121.2500 Du        
  39729 ****       127.0000 145.0000 121.5000 Du        
  39730 ****       127.0000 145.0000 121.7500 Du        
  39731 ****       127.0000 145.0000 122.0000 Du        
  39732 ****       127.0000 145.0000 122.2500 Du        
  39733 ****       127.0000 145.2500 121.0000 Du        
  39734 ****       127.0000 145.2500 121.2500 Du        
  39735 ****       127.0000 145.2500 121.5000 Du        
  39736 ****       127.0000 145.2500 121.7500 Du        
  39737 ****       127.0000 145.2500 122.0000 Du        
  39738 ****       127.0000 145.2500 122.2500 Du        
  39739 ****       127.0000 145.2500 122.5000 Du        
  39740 ****       127.0000 145.2500 122.7500 Du        
  39741 ****       127.0000 145.5000 120.7500 Du        
  39742 ****       127.0000 145.5000 121.0000 Du        
  39743 ****       127.0000 145.5000 121.2500 Du        
  39744 ****       127.0000 145.5000 121.5000 Du        
  39745 ****       127.0000 145.5000 121.7500 Du        
  39746 ****       127.0000 145.5000 122.0000 Du        
  39747 ****       127.0000 145.5000 122.2500 Du        
  39748 ****       127.0000 145.5000 122.5000 Du        
  39749 ****       127.0000 145.5000 122.7500 Du        
  39750 ****       127.0000 145.5000 123.0000 Du        
  39751 ****       127.0000 145.5000 123.2500 Du        
  39752 ****       127.0000 145.7500 120.7500 Du        
  39753 ****       127.0000 145.7500 121.0000 Du        
  39754 ****       127.0000 145.7500 121.2500 Du        
  39755 ****       127.0000 145.7500 121.5000 Du        
  39756 ****       127.0000 145.7500 121.7500 Du        
  39757 ****       127.0000 145.7500 122.0000 Du        
  39758 ****       127.0000 145.7500 122.2500 Du        
  39759 ****       127.0000 145.7500 122.5000 Du        
  39760 ****       127.0000 145.7500 122.7500 Du        
  39761 ****       127.0000 145.7500 123.0000 Du        
  39762 ****       127.0000 145.7500 123.2500 Du        
  39763 ****       127.0000 146.0000 120.7500 Du        
  39764 ****       127.0000 146.0000 121.0000 Du        
  39765 ****       127.0000 146.0000 121.2500 Du        
  39766 ****       127.0000 146.0000 121.5000 Du        
  39767 ****       127.0000 146.0000 121.7500 Du        
  39768 ****       127.0000 146.0000 122.0000 Du        
  39769 ****       127.0000 146.0000 122.2500 Du        
  39770 ****       127.0000 146.0000 122.5000 Du        
  39771 ****       127.0000 146.0000 122.7500 Du        
  39772 ****       127.0000 146.0000 123.0000 Du        
  39773 ****       127.0000 146.0000 123.2500 Du        
  39774 ****       127.0000 146.2500 120.7500 Du        
  39775 ****       127.0000 146.2500 121.0000 Du        
  39776 ****       127.0000 146.2500 121.2500 Du        
  39777 ****       127.0000 146.2500 121.5000 Du        
  39778 ****       127.0000 146.2500 121.7500 Du        
  39779 ****       127.0000 146.2500 122.0000 Du        
  39780 ****       127.0000 146.2500 122.2500 Du        
  39781 ****       127.0000 146.2500 122.5000 Du        
  39782 ****       127.0000 146.2500 122.7500 Du        
  39783 ****       127.0000 146.2500 123.0000 Du        
  39784 ****       127.0000 146.2500 123.2500 Du        
  39785 ****       127.0000 146.5000 121.0000 Du        
  39786 ****       127.0000 146.5000 121.2500 Du        
  39787 ****       127.0000 146.5000 121.5000 Du        
  39788 ****       127.0000 146.5000 121.7500 Du        
  39789 ****       127.0000 146.5000 122.0000 Du        
  39790 ****       127.0000 146.5000 122.2500 Du        
  39791 ****       127.0000 146.5000 122.5000 Du        
  39792 ****       127.0000 146.5000 122.7500 Du        
  39793 ****       127.0000 146.5000 123.0000 Du        
  39794 ****       127.0000 146.5000 123.2500 Du        
  39795 ****       127.0000 146.7500 121.5000 Du        
  39796 ****       127.0000 146.7500 121.7500 Du        
  39797 ****       127.0000 146.7500 122.0000 Du        
  39798 ****       127.0000 146.7500 122.2500 Du        
  39799 ****       127.0000 146.7500 122.5000 Du        
  39800 ****       127.0000 146.7500 122.7500 Du        
  39801 ****       127.0000 146.7500 123.0000 Du        
  39802 ****       127.0000 146.7500 123.2500 Du        
  39803 ****       127.0000 147.0000 121.7500 Du        
  39804 ****       127.0000 147.0000 122.0000 Du        
  39805 ****       127.0000 147.0000 122.2500 Du        
  39806 ****       127.0000 147.0000 122.5000 Du        
  39807 ****       127.0000 147.0000 122.7500 Du        
  39808 ****       127.0000 147.0000 123.0000 Du        
  39809 ****       127.0000 147.0000 123.2500 Du        
  39810 ****       127.0000 147.2500 122.2500 Du        
  39811 ****       127.0000 147.2500 122.5000 Du        
  39812 ****       127.0000 147.2500 122.7500 Du        
  39813 ****       127.0000 147.2500 123.0000 Du        
  39814 ****       127.0000 147.2500 123.2500 Du        
  39815 ****       127.0000 147.5000 122.7500 Du        
  39816 ****       127.0000 147.5000 123.0000 Du        
  39817 ****       127.0000 147.5000 123.2500 Du        
  39818 ****       127.0000 147.7500 122.7500 Du        
  39819 ****       127.0000 147.7500 123.0000 Du        
  39820 ****       127.0000 147.7500 123.2500 Du        
  39821 ****       127.0000 149.2500 138.2500 Du        
  39822 ****       127.0000 149.2500 138.5000 Du        
  39823 ****       127.0000 149.2500 138.7500 Du        
  39824 ****       127.0000 149.2500 139.0000 Du        
  39825 ****       127.0000 149.2500 139.2500 Du        
  39826 ****       127.0000 149.2500 139.5000 Du        
  39827 ****       127.0000 149.2500 139.7500 Du        
  39828 ****       127.0000 149.2500 140.0000 Du        
  39829 ****       127.0000 149.2500 140.2500 Du        
  39830 ****       127.0000 149.5000 137.7500 Du        
  39831 ****       127.0000 149.5000 138.0000 Du        
  39832 ****       127.0000 149.5000 138.2500 Du        
  39833 ****       127.0000 149.5000 138.5000 Du        
  39834 ****       127.0000 149.5000 138.7500 Du        
  39835 ****       127.0000 149.5000 139.0000 Du        
  39836 ****       127.0000 149.5000 139.2500 Du        
  39837 ****       127.0000 149.5000 139.5000 Du        
  39838 ****       127.0000 149.5000 139.7500 Du        
  39839 ****       127.0000 149.5000 140.0000 Du        
  39840 ****       127.0000 149.5000 140.2500 Du        
  39841 ****       127.0000 149.7500 136.7500 Du        
  39842 ****       127.0000 149.7500 137.0000 Du        
  39843 ****       127.0000 149.7500 137.2500 Du        
  39844 ****       127.0000 149.7500 137.5000 Du        
  39845 ****       127.0000 149.7500 137.7500 Du        
  39846 ****       127.0000 149.7500 138.0000 Du        
  39847 ****       127.0000 149.7500 138.2500 Du        
  39848 ****       127.0000 149.7500 138.5000 Du        
  39849 ****       127.0000 149.7500 138.7500 Du        
  39850 ****       127.0000 149.7500 139.0000 Du        
  39851 ****       127.0000 149.7500 139.2500 Du        
  39852 ****       127.0000 149.7500 139.5000 Du        
  39853 ****       127.0000 149.7500 139.7500 Du        
  39854 ****       127.0000 149.7500 140.0000 Du        
  39855 ****       127.0000 150.0000 137.0000 Du        
  39856 ****       127.0000 150.0000 137.2500 Du        
  39857 ****       127.0000 150.0000 137.5000 Du        
  39858 ****       127.0000 150.0000 137.7500 Du        
  39859 ****       127.0000 150.0000 138.0000 Du        
  39860 ****       127.0000 150.0000 138.2500 Du        
  39861 ****       127.0000 150.0000 138.5000 Du        
  39862 ****       127.0000 150.0000 138.7500 Du        
  39863 ****       127.0000 150.0000 139.0000 Du        
  39864 ****       127.0000 150.0000 139.2500 Du        
  39865 ****       127.0000 150.0000 139.5000 Du        
  39866 ****       127.0000 150.2500 137.7500 Du        
  39867 ****       127.0000 150.2500 138.0000 Du        
  39868 ****       127.0000 150.2500 138.2500 Du        
  39869 ****       127.0000 154.7500 126.2500 Du        
  39870 ****       127.0000 155.0000 126.0000 Du        
  39871 ****       127.0000 155.0000 126.2500 Du        
  39872 ****       127.0000 155.0000 126.5000 Du        
  39873 ****       127.0000 155.0000 126.7500 Du        
  39874 ****       127.0000 155.0000 127.0000 Du        
  39875 ****       127.0000 155.2500 125.7500 Du        
  39876 ****       127.0000 155.2500 126.0000 Du        
  39877 ****       127.0000 155.2500 126.2500 Du        
  39878 ****       127.0000 155.2500 126.5000 Du        
  39879 ****       127.0000 155.2500 126.7500 Du        
  39880 ****       127.0000 155.2500 127.0000 Du        
  39881 ****       127.0000 155.2500 127.2500 Du        
  39882 ****       127.0000 155.2500 132.0000 Du        
  39883 ****       127.0000 155.2500 132.7500 Du        
  39884 ****       127.0000 155.2500 133.0000 Du        
  39885 ****       127.0000 155.2500 133.2500 Du        
  39886 ****       127.0000 155.2500 134.0000 Du        
  39887 ****       127.0000 155.2500 134.2500 Du        
  39888 ****       127.0000 155.5000 125.5000 Du        
  39889 ****       127.0000 155.5000 125.7500 Du        
  39890 ****       127.0000 155.5000 126.0000 Du        
  39891 ****       127.0000 155.5000 126.2500 Du        
  39892 ****       127.0000 155.5000 126.5000 Du        
  39893 ****       127.0000 155.5000 126.7500 Du        
  39894 ****       127.0000 155.5000 127.0000 Du        
  39895 ****       127.0000 155.5000 127.2500 Du        
  39896 ****       127.0000 155.5000 131.5000 Du        
  39897 ****       127.0000 155.5000 131.7500 Du        
  39898 ****       127.0000 155.5000 132.0000 Du        
  39899 ****       127.0000 155.5000 132.2500 Du        
  39900 ****       127.0000 155.5000 132.5000 Du        
  39901 ****       127.0000 155.5000 132.7500 Du        
  39902 ****       127.0000 155.5000 133.0000 Du        
  39903 ****       127.0000 155.5000 133.2500 Du        
  39904 ****       127.0000 155.5000 133.5000 Du        
  39905 ****       127.0000 155.5000 133.7500 Du        
  39906 ****       127.0000 155.5000 134.0000 Du        
  39907 ****       127.0000 155.5000 134.2500 Du        
  39908 ****       127.0000 155.5000 134.5000 Du        
  39909 ****       127.0000 155.5000 134.7500 Du        
  39910 ****       127.0000 155.7500 125.5000 Du        
  39911 ****       127.0000 155.7500 125.7500 Du        
  39912 ****       127.0000 155.7500 126.0000 Du        
  39913 ****       127.0000 155.7500 126.2500 Du        
  39914 ****       127.0000 155.7500 126.5000 Du        
  39915 ****       127.0000 155.7500 126.7500 Du        
  39916 ****       127.0000 155.7500 127.0000 Du        
  39917 ****       127.0000 155.7500 127.2500 Du        
  39918 ****       127.0000 155.7500 131.2500 Du        
  39919 ****       127.0000 155.7500 131.5000 Du        
  39920 ****       127.0000 155.7500 131.7500 Du        
  39921 ****       127.0000 155.7500 132.0000 Du        
  39922 ****       127.0000 155.7500 132.2500 Du        
  39923 ****       127.0000 155.7500 132.5000 Du        
  39924 ****       127.0000 155.7500 132.7500 Du        
  39925 ****       127.0000 155.7500 133.0000 Du        
  39926 ****       127.0000 155.7500 133.2500 Du        
  39927 ****       127.0000 155.7500 133.5000 Du        
  39928 ****       127.0000 155.7500 133.7500 Du        
  39929 ****       127.0000 155.7500 134.0000 Du        
  39930 ****       127.0000 155.7500 134.2500 Du        
  39931 ****       127.0000 155.7500 134.5000 Du        
  39932 ****       127.0000 155.7500 134.7500 Du        
  39933 ****       127.0000 156.0000 125.2500 Du        
  39934 ****       127.0000 156.0000 125.5000 Du        
  39935 ****       127.0000 156.0000 125.7500 Du        
  39936 ****       127.0000 156.0000 126.0000 Du        
  39937 ****       127.0000 156.0000 126.2500 Du        
  39938 ****       127.0000 156.0000 126.5000 Du        
  39939 ****       127.0000 156.0000 126.7500 Du        
  39940 ****       127.0000 156.0000 127.0000 Du        
  39941 ****       127.0000 156.0000 127.2500 Du        
  39942 ****       127.0000 156.0000 131.5000 Du        
  39943 ****       127.0000 156.0000 131.7500 Du        
  39944 ****       127.0000 156.0000 132.0000 Du        
  39945 ****       127.0000 156.0000 132.2500 Du        
  39946 ****       127.0000 156.0000 132.5000 Du        
  39947 ****       127.0000 156.0000 132.7500 Du        
  39948 ****       127.0000 156.0000 133.0000 Du        
  39949 ****       127.0000 156.0000 133.2500 Du        
  39950 ****       127.0000 156.0000 133.5000 Du        
  39951 ****       127.0000 156.0000 133.7500 Du        
  39952 ****       127.0000 156.0000 134.0000 Du        
  39953 ****       127.0000 156.0000 134.2500 Du        
  39954 ****       127.0000 156.0000 134.5000 Du        
  39955 ****       127.0000 156.0000 134.7500 Du        
  39956 ****       127.0000 156.2500 116.0000 Du        
  39957 ****       127.0000 156.2500 116.2500 Du        
  39958 ****       127.0000 156.2500 116.5000 Du        
  39959 ****       127.0000 156.2500 116.7500 Du        
  39960 ****       127.0000 156.2500 125.5000 Du        
  39961 ****       127.0000 156.2500 125.7500 Du        
  39962 ****       127.0000 156.2500 126.0000 Du        
  39963 ****       127.0000 156.2500 126.2500 Du        
  39964 ****       127.0000 156.2500 126.5000 Du        
  39965 ****       127.0000 156.2500 126.7500 Du        
  39966 ****       127.0000 156.2500 127.0000 Du        
  39967 ****       127.0000 156.2500 131.7500 Du        
  39968 ****       127.0000 156.2500 132.0000 Du        
  39969 ****       127.0000 156.2500 132.2500 Du        
  39970 ****       127.0000 156.2500 132.5000 Du        
  39971 ****       127.0000 156.2500 132.7500 Du        
  39972 ****       127.0000 156.2500 133.0000 Du        
  39973 ****       127.0000 156.2500 133.2500 Du        
  39974 ****       127.0000 156.2500 133.5000 Du        
  39975 ****       127.0000 156.2500 133.7500 Du        
  39976 ****       127.0000 156.2500 134.0000 Du        
  39977 ****       127.0000 156.2500 134.2500 Du        
  39978 ****       127.0000 156.2500 134.5000 Du        
  39979 ****       127.0000 156.2500 134.7500 Du        
  39980 ****       127.0000 156.5000 115.7500 Du        
  39981 ****       127.0000 156.5000 116.0000 Du        
  39982 ****       127.0000 156.5000 116.2500 Du        
  39983 ****       127.0000 156.5000 116.5000 Du        
  39984 ****       127.0000 156.5000 116.7500 Du        
  39985 ****       127.0000 156.5000 125.5000 Du        
  39986 ****       127.0000 156.5000 125.7500 Du        
  39987 ****       127.0000 156.5000 126.0000 Du        
  39988 ****       127.0000 156.5000 126.2500 Du        
  39989 ****       127.0000 156.5000 132.0000 Du        
  39990 ****       127.0000 156.5000 132.2500 Du        
  39991 ****       127.0000 156.5000 132.5000 Du        
  39992 ****       127.0000 156.5000 132.7500 Du        
  39993 ****       127.0000 156.5000 133.0000 Du        
  39994 ****       127.0000 156.5000 133.2500 Du        
  39995 ****       127.0000 156.5000 133.5000 Du        
  39996 ****       127.0000 156.5000 133.7500 Du        
  39997 ****       127.0000 156.5000 134.0000 Du        
  39998 ****       127.0000 156.5000 134.2500 Du        
  39999 ****       127.0000 156.5000 134.5000 Du        
  40000 ****       127.0000 156.5000 134.7500 Du        
  40001 ****       127.0000 156.7500 115.5000 Du        
  40002 ****       127.0000 156.7500 115.7500 Du        
  40003 ****       127.0000 156.7500 116.0000 Du        
  40004 ****       127.0000 156.7500 116.2500 Du        
  40005 ****       127.0000 156.7500 116.5000 Du        
  40006 ****       127.0000 156.7500 125.5000 Du        
  40007 ****       127.0000 156.7500 125.7500 Du        
  40008 ****       127.0000 156.7500 126.0000 Du        
  40009 ****       127.0000 156.7500 132.5000 Du        
  40010 ****       127.0000 156.7500 132.7500 Du        
  40011 ****       127.0000 156.7500 133.0000 Du        
  40012 ****       127.0000 156.7500 133.2500 Du        
  40013 ****       127.0000 156.7500 133.5000 Du        
  40014 ****       127.0000 156.7500 133.7500 Du        
  40015 ****       127.0000 156.7500 134.0000 Du        
  40016 ****       127.0000 156.7500 134.2500 Du        
  40017 ****       127.0000 156.7500 134.5000 Du        
  40018 ****       127.0000 157.0000 115.5000 Du        
  40019 ****       127.0000 157.0000 115.7500 Du        
  40020 ****       127.0000 157.0000 116.0000 Du        
  40021 ****       127.0000 157.0000 116.2500 Du        
  40022 ****       127.0000 157.0000 116.5000 Du        
  40023 ****       127.0000 157.0000 132.7500 Du        
  40024 ****       127.0000 157.0000 133.0000 Du        
  40025 ****       127.0000 157.0000 133.2500 Du        
  40026 ****       127.0000 157.0000 133.5000 Du        
  40027 ****       127.0000 157.0000 133.7500 Du        
  40028 ****       127.0000 157.0000 134.0000 Du        
  40029 ****       127.0000 157.0000 134.2500 Du        
  40030 ****       127.0000 157.2500 115.5000 Du        
  40031 ****       127.0000 157.2500 115.7500 Du        
  40032 ****       127.0000 157.2500 116.0000 Du        
  40033 ****       127.0000 157.2500 116.2500 Du        
  40034 ****       127.0000 157.5000 115.7500 Du        
  40035 ****       127.0000 157.5000 116.0000 Du        
  40036 ****       127.2500 136.0000 144.5000 Du        
  40037 ****       127.2500 136.0000 144.7500 Du        
  40038 ****       127.2500 136.0000 145.0000 Du        
  40039 ****       127.2500 136.2500 144.5000 Du        
  40040 ****       127.2500 136.2500 144.7500 Du        
  40041 ****       127.2500 136.2500 145.0000 Du        
  40042 ****       127.2500 136.2500 145.2500 Du        
  40043 ****       127.2500 136.2500 145.5000 Du        
  40044 ****       127.2500 136.5000 144.5000 Du        
  40045 ****       127.2500 136.5000 144.7500 Du        
  40046 ****       127.2500 136.5000 145.0000 Du        
  40047 ****       127.2500 136.5000 145.2500 Du        
  40048 ****       127.2500 136.5000 145.5000 Du        
  40049 ****       127.2500 136.5000 145.7500 Du        
  40050 ****       127.2500 136.5000 146.0000 Du        
  40051 ****       127.2500 136.7500 144.7500 Du        
  40052 ****       127.2500 136.7500 145.0000 Du        
  40053 ****       127.2500 136.7500 145.2500 Du        
  40054 ****       127.2500 136.7500 145.5000 Du        
  40055 ****       127.2500 136.7500 145.7500 Du        
  40056 ****       127.2500 136.7500 146.0000 Du        
  40057 ****       127.2500 137.0000 144.7500 Du        
  40058 ****       127.2500 137.0000 145.0000 Du        
  40059 ****       127.2500 137.0000 145.2500 Du        
  40060 ****       127.2500 137.0000 145.5000 Du        
  40061 ****       127.2500 137.0000 145.7500 Du        
  40062 ****       127.2500 137.0000 146.0000 Du        
  40063 ****       127.2500 137.0000 146.2500 Du        
  40064 ****       127.2500 137.2500 144.7500 Du        
  40065 ****       127.2500 137.2500 145.0000 Du        
  40066 ****       127.2500 137.2500 145.2500 Du        
  40067 ****       127.2500 137.2500 145.5000 Du        
  40068 ****       127.2500 137.2500 145.7500 Du        
  40069 ****       127.2500 137.2500 146.0000 Du        
  40070 ****       127.2500 137.5000 144.7500 Du        
  40071 ****       127.2500 137.5000 145.0000 Du        
  40072 ****       127.2500 137.5000 145.2500 Du        
  40073 ****       127.2500 137.5000 145.5000 Du        
  40074 ****       127.2500 137.5000 145.7500 Du        
  40075 ****       127.2500 137.5000 146.0000 Du        
  40076 ****       127.2500 137.7500 144.7500 Du        
  40077 ****       127.2500 137.7500 145.0000 Du        
  40078 ****       127.2500 137.7500 145.2500 Du        
  40079 ****       127.2500 137.7500 145.5000 Du        
  40080 ****       127.2500 137.7500 145.7500 Du        
  40081 ****       127.2500 138.0000 144.7500 Du        
  40082 ****       127.2500 138.0000 145.0000 Du        
  40083 ****       127.2500 138.0000 145.2500 Du        
  40084 ****       127.2500 138.0000 145.5000 Du        
  40085 ****       127.2500 138.2500 144.7500 Du        
  40086 ****       127.2500 138.2500 145.0000 Du        
  40087 ****       127.2500 138.2500 145.2500 Du        
  40088 ****       127.2500 138.5000 145.0000 Du        
  40089 ****       127.2500 138.5000 145.2500 Du        
  40090 ****       127.2500 138.7500 145.0000 Du        
  40091 ****       127.2500 141.2500 136.7500 Du        
  40092 ****       127.2500 141.5000 136.5000 Du        
  40093 ****       127.2500 141.5000 136.7500 Du        
  40094 ****       127.2500 141.7500 136.5000 Du        
  40095 ****       127.2500 141.7500 136.7500 Du        
  40096 ****       127.2500 142.0000 136.2500 Du        
  40097 ****       127.2500 142.0000 136.5000 Du        
  40098 ****       127.2500 142.0000 136.7500 Du        
  40099 ****       127.2500 142.2500 136.5000 Du        
  40100 ****       127.2500 145.0000 121.0000 Du        
  40101 ****       127.2500 145.0000 121.2500 Du        
  40102 ****       127.2500 145.0000 121.5000 Du        
  40103 ****       127.2500 145.2500 120.7500 Du        
  40104 ****       127.2500 145.2500 121.0000 Du        
  40105 ****       127.2500 145.2500 121.2500 Du        
  40106 ****       127.2500 145.2500 121.5000 Du        
  40107 ****       127.2500 145.2500 121.7500 Du        
  40108 ****       127.2500 145.2500 122.0000 Du        
  40109 ****       127.2500 145.2500 122.2500 Du        
  40110 ****       127.2500 145.5000 120.7500 Du        
  40111 ****       127.2500 145.5000 121.0000 Du        
  40112 ****       127.2500 145.5000 121.2500 Du        
  40113 ****       127.2500 145.5000 121.5000 Du        
  40114 ****       127.2500 145.5000 121.7500 Du        
  40115 ****       127.2500 145.5000 122.0000 Du        
  40116 ****       127.2500 145.5000 122.2500 Du        
  40117 ****       127.2500 145.5000 122.5000 Du        
  40118 ****       127.2500 145.5000 122.7500 Du        
  40119 ****       127.2500 145.5000 123.0000 Du        
  40120 ****       127.2500 145.7500 120.7500 Du        
  40121 ****       127.2500 145.7500 121.0000 Du        
  40122 ****       127.2500 145.7500 121.2500 Du        
  40123 ****       127.2500 145.7500 121.5000 Du        
  40124 ****       127.2500 145.7500 121.7500 Du        
  40125 ****       127.2500 145.7500 122.0000 Du        
  40126 ****       127.2500 145.7500 122.2500 Du        
  40127 ****       127.2500 145.7500 122.5000 Du        
  40128 ****       127.2500 145.7500 122.7500 Du        
  40129 ****       127.2500 145.7500 123.0000 Du        
  40130 ****       127.2500 145.7500 123.2500 Du        
  40131 ****       127.2500 146.0000 121.0000 Du        
  40132 ****       127.2500 146.0000 121.2500 Du        
  40133 ****       127.2500 146.0000 121.5000 Du        
  40134 ****       127.2500 146.0000 121.7500 Du        
  40135 ****       127.2500 146.0000 122.0000 Du        
  40136 ****       127.2500 146.0000 122.2500 Du        
  40137 ****       127.2500 146.0000 122.5000 Du        
  40138 ****       127.2500 146.0000 122.7500 Du        
  40139 ****       127.2500 146.0000 123.0000 Du        
  40140 ****       127.2500 146.0000 123.2500 Du        
  40141 ****       127.2500 146.2500 121.0000 Du        
  40142 ****       127.2500 146.2500 121.2500 Du        
  40143 ****       127.2500 146.2500 121.5000 Du        
  40144 ****       127.2500 146.2500 121.7500 Du        
  40145 ****       127.2500 146.2500 122.0000 Du        
  40146 ****       127.2500 146.2500 122.2500 Du        
  40147 ****       127.2500 146.2500 122.5000 Du        
  40148 ****       127.2500 146.2500 122.7500 Du        
  40149 ****       127.2500 146.2500 123.0000 Du        
  40150 ****       127.2500 146.2500 123.2500 Du        
  40151 ****       127.2500 146.5000 121.2500 Du        
  40152 ****       127.2500 146.5000 121.5000 Du        
  40153 ****       127.2500 146.5000 121.7500 Du        
  40154 ****       127.2500 146.5000 122.0000 Du        
  40155 ****       127.2500 146.5000 122.2500 Du        
  40156 ****       127.2500 146.5000 122.5000 Du        
  40157 ****       127.2500 146.5000 122.7500 Du        
  40158 ****       127.2500 146.5000 123.0000 Du        
  40159 ****       127.2500 146.7500 121.7500 Du        
  40160 ****       127.2500 146.7500 122.0000 Du        
  40161 ****       127.2500 146.7500 122.2500 Du        
  40162 ****       127.2500 146.7500 122.5000 Du        
  40163 ****       127.2500 146.7500 122.7500 Du        
  40164 ****       127.2500 146.7500 123.0000 Du        
  40165 ****       127.2500 146.7500 123.2500 Du        
  40166 ****       127.2500 147.0000 122.0000 Du        
  40167 ****       127.2500 147.0000 122.2500 Du        
  40168 ****       127.2500 147.0000 122.5000 Du        
  40169 ****       127.2500 147.0000 122.7500 Du        
  40170 ****       127.2500 147.0000 123.0000 Du        
  40171 ****       127.2500 147.0000 123.2500 Du        
  40172 ****       127.2500 147.2500 122.2500 Du        
  40173 ****       127.2500 147.2500 122.5000 Du        
  40174 ****       127.2500 147.2500 122.7500 Du        
  40175 ****       127.2500 147.2500 123.0000 Du        
  40176 ****       127.2500 147.2500 123.2500 Du        
  40177 ****       127.2500 147.5000 122.7500 Du        
  40178 ****       127.2500 147.5000 123.0000 Du        
  40179 ****       127.2500 147.5000 123.2500 Du        
  40180 ****       127.2500 147.7500 123.0000 Du        
  40181 ****       127.2500 147.7500 123.2500 Du        
  40182 ****       127.2500 149.2500 138.7500 Du        
  40183 ****       127.2500 149.2500 139.0000 Du        
  40184 ****       127.2500 149.2500 139.2500 Du        
  40185 ****       127.2500 149.2500 139.5000 Du        
  40186 ****       127.2500 149.2500 139.7500 Du        
  40187 ****       127.2500 149.5000 136.5000 Du        
  40188 ****       127.2500 149.5000 136.7500 Du        
  40189 ****       127.2500 149.5000 137.0000 Du        
  40190 ****       127.2500 149.5000 137.5000 Du        
  40191 ****       127.2500 149.5000 137.7500 Du        
  40192 ****       127.2500 149.5000 138.0000 Du        
  40193 ****       127.2500 149.5000 138.2500 Du        
  40194 ****       127.2500 149.5000 138.5000 Du        
  40195 ****       127.2500 149.5000 138.7500 Du        
  40196 ****       127.2500 149.5000 139.0000 Du        
  40197 ****       127.2500 149.5000 139.2500 Du        
  40198 ****       127.2500 149.5000 139.5000 Du        
  40199 ****       127.2500 149.5000 139.7500 Du        
  40200 ****       127.2500 149.5000 140.0000 Du        
  40201 ****       127.2500 149.7500 136.5000 Du        
  40202 ****       127.2500 149.7500 136.7500 Du        
  40203 ****       127.2500 149.7500 137.0000 Du        
  40204 ****       127.2500 149.7500 137.2500 Du        
  40205 ****       127.2500 149.7500 137.5000 Du        
  40206 ****       127.2500 149.7500 137.7500 Du        
  40207 ****       127.2500 149.7500 138.0000 Du        
  40208 ****       127.2500 149.7500 138.2500 Du        
  40209 ****       127.2500 149.7500 138.5000 Du        
  40210 ****       127.2500 149.7500 138.7500 Du        
  40211 ****       127.2500 149.7500 139.0000 Du        
  40212 ****       127.2500 149.7500 139.2500 Du        
  40213 ****       127.2500 149.7500 139.5000 Du        
  40214 ****       127.2500 149.7500 139.7500 Du        
  40215 ****       127.2500 150.0000 136.7500 Du        
  40216 ****       127.2500 150.0000 137.0000 Du        
  40217 ****       127.2500 150.0000 137.2500 Du        
  40218 ****       127.2500 150.0000 137.5000 Du        
  40219 ****       127.2500 150.0000 137.7500 Du        
  40220 ****       127.2500 150.0000 138.0000 Du        
  40221 ****       127.2500 150.0000 138.2500 Du        
  40222 ****       127.2500 150.0000 138.5000 Du        
  40223 ****       127.2500 150.0000 138.7500 Du        
  40224 ****       127.2500 150.0000 139.0000 Du        
  40225 ****       127.2500 150.2500 136.7500 Du        
  40226 ****       127.2500 150.2500 137.0000 Du        
  40227 ****       127.2500 150.2500 137.2500 Du        
  40228 ****       127.2500 150.2500 137.7500 Du        
  40229 ****       127.2500 155.0000 126.2500 Du        
  40230 ****       127.2500 155.0000 126.7500 Du        
  40231 ****       127.2500 155.0000 127.0000 Du        
  40232 ****       127.2500 155.2500 125.7500 Du        
  40233 ****       127.2500 155.2500 126.0000 Du        
  40234 ****       127.2500 155.2500 126.2500 Du        
  40235 ****       127.2500 155.2500 126.5000 Du        
  40236 ****       127.2500 155.2500 126.7500 Du        
  40237 ****       127.2500 155.2500 127.0000 Du        
  40238 ****       127.2500 155.2500 127.2500 Du        
  40239 ****       127.2500 155.2500 131.2500 Du        
  40240 ****       127.2500 155.2500 133.0000 Du        
  40241 ****       127.2500 155.2500 134.2500 Du        
  40242 ****       127.2500 155.5000 125.5000 Du        
  40243 ****       127.2500 155.5000 125.7500 Du        
  40244 ****       127.2500 155.5000 126.0000 Du        
  40245 ****       127.2500 155.5000 126.2500 Du        
  40246 ****       127.2500 155.5000 126.5000 Du        
  40247 ****       127.2500 155.5000 126.7500 Du        
  40248 ****       127.2500 155.5000 127.0000 Du        
  40249 ****       127.2500 155.5000 127.2500 Du        
  40250 ****       127.2500 155.5000 131.0000 Du        
  40251 ****       127.2500 155.5000 131.2500 Du        
  40252 ****       127.2500 155.5000 131.5000 Du        
  40253 ****       127.2500 155.5000 131.7500 Du        
  40254 ****       127.2500 155.5000 132.0000 Du        
  40255 ****       127.2500 155.5000 132.2500 Du        
  40256 ****       127.2500 155.5000 132.5000 Du        
  40257 ****       127.2500 155.5000 132.7500 Du        
  40258 ****       127.2500 155.5000 133.0000 Du        
  40259 ****       127.2500 155.5000 133.2500 Du        
  40260 ****       127.2500 155.5000 133.5000 Du        
  40261 ****       127.2500 155.5000 133.7500 Du        
  40262 ****       127.2500 155.5000 134.0000 Du        
  40263 ****       127.2500 155.5000 134.2500 Du        
  40264 ****       127.2500 155.5000 134.5000 Du        
  40265 ****       127.2500 155.5000 134.7500 Du        
  40266 ****       127.2500 155.7500 125.2500 Du        
  40267 ****       127.2500 155.7500 125.5000 Du        
  40268 ****       127.2500 155.7500 125.7500 Du        
  40269 ****       127.2500 155.7500 126.0000 Du        
  40270 ****       127.2500 155.7500 126.2500 Du        
  40271 ****       127.2500 155.7500 126.5000 Du        
  40272 ****       127.2500 155.7500 126.7500 Du        
  40273 ****       127.2500 155.7500 127.0000 Du        
  40274 ****       127.2500 155.7500 127.2500 Du        
  40275 ****       127.2500 155.7500 131.0000 Du        
  40276 ****       127.2500 155.7500 131.2500 Du        
  40277 ****       127.2500 155.7500 131.5000 Du        
  40278 ****       127.2500 155.7500 131.7500 Du        
  40279 ****       127.2500 155.7500 132.0000 Du        
  40280 ****       127.2500 155.7500 132.2500 Du        
  40281 ****       127.2500 155.7500 132.5000 Du        
  40282 ****       127.2500 155.7500 132.7500 Du        
  40283 ****       127.2500 155.7500 133.0000 Du        
  40284 ****       127.2500 155.7500 133.2500 Du        
  40285 ****       127.2500 155.7500 133.5000 Du        
  40286 ****       127.2500 155.7500 133.7500 Du        
  40287 ****       127.2500 155.7500 134.0000 Du        
  40288 ****       127.2500 155.7500 134.2500 Du        
  40289 ****       127.2500 155.7500 134.5000 Du        
  40290 ****       127.2500 155.7500 134.7500 Du        
  40291 ****       127.2500 156.0000 125.2500 Du        
  40292 ****       127.2500 156.0000 125.5000 Du        
  40293 ****       127.2500 156.0000 125.7500 Du        
  40294 ****       127.2500 156.0000 126.0000 Du        
  40295 ****       127.2500 156.0000 126.2500 Du        
  40296 ****       127.2500 156.0000 126.5000 Du        
  40297 ****       127.2500 156.0000 126.7500 Du        
  40298 ****       127.2500 156.0000 127.0000 Du        
  40299 ****       127.2500 156.0000 131.2500 Du        
  40300 ****       127.2500 156.0000 131.5000 Du        
  40301 ****       127.2500 156.0000 131.7500 Du        
  40302 ****       127.2500 156.0000 132.0000 Du        
  40303 ****       127.2500 156.0000 132.2500 Du        
  40304 ****       127.2500 156.0000 132.5000 Du        
  40305 ****       127.2500 156.0000 132.7500 Du        
  40306 ****       127.2500 156.0000 133.0000 Du        
  40307 ****       127.2500 156.0000 133.2500 Du        
  40308 ****       127.2500 156.0000 133.5000 Du        
  40309 ****       127.2500 156.0000 133.7500 Du        
  40310 ****       127.2500 156.0000 134.0000 Du        
  40311 ****       127.2500 156.0000 134.2500 Du        
  40312 ****       127.2500 156.0000 134.5000 Du        
  40313 ****       127.2500 156.0000 134.7500 Du        
  40314 ****       127.2500 156.0000 135.0000 Du        
  40315 ****       127.2500 156.2500 125.2500 Du        
  40316 ****       127.2500 156.2500 125.5000 Du        
  40317 ****       127.2500 156.2500 125.7500 Du        
  40318 ****       127.2500 156.2500 126.0000 Du        
  40319 ****       127.2500 156.2500 126.2500 Du        
  40320 ****       127.2500 156.2500 126.5000 Du        
  40321 ****       127.2500 156.2500 131.5000 Du        
  40322 ****       127.2500 156.2500 131.7500 Du        
  40323 ****       127.2500 156.2500 132.0000 Du        
  40324 ****       127.2500 156.2500 132.2500 Du        
  40325 ****       127.2500 156.2500 132.5000 Du        
  40326 ****       127.2500 156.2500 132.7500 Du        
  40327 ****       127.2500 156.2500 133.0000 Du        
  40328 ****       127.2500 156.2500 133.2500 Du        
  40329 ****       127.2500 156.2500 133.5000 Du        
  40330 ****       127.2500 156.2500 133.7500 Du        
  40331 ****       127.2500 156.2500 134.0000 Du        
  40332 ****       127.2500 156.2500 134.2500 Du        
  40333 ****       127.2500 156.2500 134.5000 Du        
  40334 ****       127.2500 156.2500 134.7500 Du        
  40335 ****       127.2500 156.2500 135.0000 Du        
  40336 ****       127.2500 156.5000 115.7500 Du        
  40337 ****       127.2500 156.5000 116.0000 Du        
  40338 ****       127.2500 156.5000 116.2500 Du        
  40339 ****       127.2500 156.5000 116.5000 Du        
  40340 ****       127.2500 156.5000 125.2500 Du        
  40341 ****       127.2500 156.5000 125.5000 Du        
  40342 ****       127.2500 156.5000 125.7500 Du        
  40343 ****       127.2500 156.5000 126.0000 Du        
  40344 ****       127.2500 156.5000 126.2500 Du        
  40345 ****       127.2500 156.5000 132.0000 Du        
  40346 ****       127.2500 156.5000 132.2500 Du        
  40347 ****       127.2500 156.5000 132.5000 Du        
  40348 ****       127.2500 156.5000 132.7500 Du        
  40349 ****       127.2500 156.5000 133.0000 Du        
  40350 ****       127.2500 156.5000 133.2500 Du        
  40351 ****       127.2500 156.5000 133.5000 Du        
  40352 ****       127.2500 156.5000 133.7500 Du        
  40353 ****       127.2500 156.5000 134.0000 Du        
  40354 ****       127.2500 156.5000 134.2500 Du        
  40355 ****       127.2500 156.5000 134.5000 Du        
  40356 ****       127.2500 156.5000 134.7500 Du        
  40357 ****       127.2500 156.7500 115.5000 Du        
  40358 ****       127.2500 156.7500 115.7500 Du        
  40359 ****       127.2500 156.7500 116.0000 Du        
  40360 ****       127.2500 156.7500 116.2500 Du        
  40361 ****       127.2500 156.7500 116.5000 Du        
  40362 ****       127.2500 156.7500 116.7500 Du        
  40363 ****       127.2500 156.7500 125.2500 Du        
  40364 ****       127.2500 156.7500 125.5000 Du        
  40365 ****       127.2500 156.7500 125.7500 Du        
  40366 ****       127.2500 156.7500 132.2500 Du        
  40367 ****       127.2500 156.7500 132.5000 Du        
  40368 ****       127.2500 156.7500 132.7500 Du        
  40369 ****       127.2500 156.7500 133.0000 Du        
  40370 ****       127.2500 156.7500 133.2500 Du        
  40371 ****       127.2500 156.7500 133.5000 Du        
  40372 ****       127.2500 156.7500 133.7500 Du        
  40373 ****       127.2500 156.7500 134.0000 Du        
  40374 ****       127.2500 156.7500 134.2500 Du        
  40375 ****       127.2500 156.7500 134.5000 Du        
  40376 ****       127.2500 156.7500 134.7500 Du        
  40377 ****       127.2500 157.0000 115.5000 Du        
  40378 ****       127.2500 157.0000 115.7500 Du        
  40379 ****       127.2500 157.0000 116.0000 Du        
  40380 ****       127.2500 157.0000 116.2500 Du        
  40381 ****       127.2500 157.0000 116.5000 Du        
  40382 ****       127.2500 157.0000 125.2500 Du        
  40383 ****       127.2500 157.0000 125.5000 Du        
  40384 ****       127.2500 157.0000 132.7500 Du        
  40385 ****       127.2500 157.0000 133.0000 Du        
  40386 ****       127.2500 157.0000 133.2500 Du        
  40387 ****       127.2500 157.0000 133.5000 Du        
  40388 ****       127.2500 157.0000 133.7500 Du        
  40389 ****       127.2500 157.0000 134.0000 Du        
  40390 ****       127.2500 157.0000 134.2500 Du        
  40391 ****       127.2500 157.0000 134.5000 Du        
  40392 ****       127.2500 157.2500 115.5000 Du        
  40393 ****       127.2500 157.2500 115.7500 Du        
  40394 ****       127.2500 157.2500 116.0000 Du        
  40395 ****       127.2500 157.2500 116.2500 Du        
  40396 ****       127.2500 157.2500 133.0000 Du        
  40397 ****       127.2500 157.2500 133.2500 Du        
  40398 ****       127.2500 157.2500 133.5000 Du        
  40399 ****       127.2500 157.2500 133.7500 Du        
  40400 ****       127.2500 157.2500 134.0000 Du        
  40401 ****       127.2500 157.5000 115.7500 Du        
  40402 ****       127.2500 157.5000 116.0000 Du        
  40403 ****       127.2500 157.7500 115.7500 Du        
  40404 ****       127.5000 136.0000 144.5000 Du        
  40405 ****       127.5000 136.0000 144.7500 Du        
  40406 ****       127.5000 136.0000 145.0000 Du        
  40407 ****       127.5000 136.0000 145.2500 Du        
  40408 ****       127.5000 136.2500 144.5000 Du        
  40409 ****       127.5000 136.2500 144.7500 Du        
  40410 ****       127.5000 136.2500 145.0000 Du        
  40411 ****       127.5000 136.2500 145.2500 Du        
  40412 ****       127.5000 136.2500 145.5000 Du        
  40413 ****       127.5000 136.2500 145.7500 Du        
  40414 ****       127.5000 136.5000 144.5000 Du        
  40415 ****       127.5000 136.5000 144.7500 Du        
  40416 ****       127.5000 136.5000 145.0000 Du        
  40417 ****       127.5000 136.5000 145.2500 Du        
  40418 ****       127.5000 136.5000 145.5000 Du        
  40419 ****       127.5000 136.5000 145.7500 Du        
  40420 ****       127.5000 136.5000 146.0000 Du        
  40421 ****       127.5000 136.7500 144.7500 Du        
  40422 ****       127.5000 136.7500 145.0000 Du        
  40423 ****       127.5000 136.7500 145.2500 Du        
  40424 ****       127.5000 136.7500 145.5000 Du        
  40425 ****       127.5000 136.7500 145.7500 Du        
  40426 ****       127.5000 136.7500 146.0000 Du        
  40427 ****       127.5000 137.0000 144.7500 Du        
  40428 ****       127.5000 137.0000 145.0000 Du        
  40429 ****       127.5000 137.0000 145.2500 Du        
  40430 ****       127.5000 137.0000 145.5000 Du        
  40431 ****       127.5000 137.0000 145.7500 Du        
  40432 ****       127.5000 137.0000 146.0000 Du        
  40433 ****       127.5000 137.0000 146.2500 Du        
  40434 ****       127.5000 137.0000 146.5000 Du        
  40435 ****       127.5000 137.2500 144.7500 Du        
  40436 ****       127.5000 137.2500 145.0000 Du        
  40437 ****       127.5000 137.2500 145.2500 Du        
  40438 ****       127.5000 137.2500 145.5000 Du        
  40439 ****       127.5000 137.2500 145.7500 Du        
  40440 ****       127.5000 137.2500 146.0000 Du        
  40441 ****       127.5000 137.2500 146.2500 Du        
  40442 ****       127.5000 137.2500 146.5000 Du        
  40443 ****       127.5000 137.5000 144.7500 Du        
  40444 ****       127.5000 137.5000 145.0000 Du        
  40445 ****       127.5000 137.5000 145.2500 Du        
  40446 ****       127.5000 137.5000 145.5000 Du        
  40447 ****       127.5000 137.5000 145.7500 Du        
  40448 ****       127.5000 137.5000 146.0000 Du        
  40449 ****       127.5000 137.5000 146.2500 Du        
  40450 ****       127.5000 137.5000 146.5000 Du        
  40451 ****       127.5000 137.5000 146.7500 Du        
  40452 ****       127.5000 137.7500 144.7500 Du        
  40453 ****       127.5000 137.7500 145.0000 Du        
  40454 ****       127.5000 137.7500 145.2500 Du        
  40455 ****       127.5000 137.7500 145.5000 Du        
  40456 ****       127.5000 137.7500 145.7500 Du        
  40457 ****       127.5000 137.7500 146.0000 Du        
  40458 ****       127.5000 137.7500 146.2500 Du        
  40459 ****       127.5000 137.7500 146.5000 Du        
  40460 ****       127.5000 138.0000 144.7500 Du        
  40461 ****       127.5000 138.0000 145.0000 Du        
  40462 ****       127.5000 138.0000 145.2500 Du        
  40463 ****       127.5000 138.0000 145.5000 Du        
  40464 ****       127.5000 138.0000 145.7500 Du        
  40465 ****       127.5000 138.0000 146.0000 Du        
  40466 ****       127.5000 138.0000 146.2500 Du        
  40467 ****       127.5000 138.2500 144.7500 Du        
  40468 ****       127.5000 138.2500 145.0000 Du        
  40469 ****       127.5000 138.2500 145.2500 Du        
  40470 ****       127.5000 138.2500 145.5000 Du        
  40471 ****       127.5000 138.2500 145.7500 Du        
  40472 ****       127.5000 138.2500 146.0000 Du        
  40473 ****       127.5000 138.2500 146.2500 Du        
  40474 ****       127.5000 138.5000 144.7500 Du        
  40475 ****       127.5000 138.5000 145.0000 Du        
  40476 ****       127.5000 138.5000 145.2500 Du        
  40477 ****       127.5000 138.5000 145.5000 Du        
  40478 ****       127.5000 138.5000 145.7500 Du        
  40479 ****       127.5000 138.5000 146.0000 Du        
  40480 ****       127.5000 138.5000 146.2500 Du        
  40481 ****       127.5000 138.7500 144.7500 Du        
  40482 ****       127.5000 138.7500 145.0000 Du        
  40483 ****       127.5000 138.7500 145.2500 Du        
  40484 ****       127.5000 138.7500 145.5000 Du        
  40485 ****       127.5000 138.7500 145.7500 Du        
  40486 ****       127.5000 138.7500 146.0000 Du        
  40487 ****       127.5000 138.7500 146.2500 Du        
  40488 ****       127.5000 139.0000 145.0000 Du        
  40489 ****       127.5000 139.0000 145.2500 Du        
  40490 ****       127.5000 139.0000 145.5000 Du        
  40491 ****       127.5000 139.0000 145.7500 Du        
  40492 ****       127.5000 139.0000 146.0000 Du        
  40493 ****       127.5000 139.0000 146.2500 Du        
  40494 ****       127.5000 139.2500 145.0000 Du        
  40495 ****       127.5000 139.2500 145.2500 Du        
  40496 ****       127.5000 139.2500 145.5000 Du        
  40497 ****       127.5000 139.2500 145.7500 Du        
  40498 ****       127.5000 139.2500 146.0000 Du        
  40499 ****       127.5000 139.2500 146.2500 Du        
  40500 ****       127.5000 139.5000 145.2500 Du        
  40501 ****       127.5000 139.5000 145.5000 Du        
  40502 ****       127.5000 139.5000 145.7500 Du        
  40503 ****       127.5000 139.5000 146.0000 Du        
  40504 ****       127.5000 139.5000 146.2500 Du        
  40505 ****       127.5000 139.7500 145.7500 Du        
  40506 ****       127.5000 139.7500 146.0000 Du        
  40507 ****       127.5000 139.7500 146.2500 Du        
  40508 ****       127.5000 139.7500 146.7500 Du        
  40509 ****       127.5000 139.7500 147.0000 Du        
  40510 ****       127.5000 140.0000 146.2500 Du        
  40511 ****       127.5000 140.0000 146.5000 Du        
  40512 ****       127.5000 140.0000 146.7500 Du        
  40513 ****       127.5000 140.0000 147.0000 Du        
  40514 ****       127.5000 140.0000 147.2500 Du        
  40515 ****       127.5000 140.2500 146.7500 Du        
  40516 ****       127.5000 140.2500 147.0000 Du        
  40517 ****       127.5000 140.2500 147.2500 Du        
  40518 ****       127.5000 141.2500 136.7500 Du        
  40519 ****       127.5000 141.5000 136.5000 Du        
  40520 ****       127.5000 141.5000 136.7500 Du        
  40521 ****       127.5000 141.7500 136.5000 Du        
  40522 ****       127.5000 141.7500 136.7500 Du        
  40523 ****       127.5000 142.0000 136.5000 Du        
  40524 ****       127.5000 142.0000 136.7500 Du        
  40525 ****       127.5000 145.2500 121.0000 Du        
  40526 ****       127.5000 145.2500 121.2500 Du        
  40527 ****       127.5000 145.2500 121.5000 Du        
  40528 ****       127.5000 145.5000 120.7500 Du        
  40529 ****       127.5000 145.5000 121.0000 Du        
  40530 ****       127.5000 145.5000 121.2500 Du        
  40531 ****       127.5000 145.5000 121.5000 Du        
  40532 ****       127.5000 145.5000 121.7500 Du        
  40533 ****       127.5000 145.5000 122.0000 Du        
  40534 ****       127.5000 145.5000 122.2500 Du        
  40535 ****       127.5000 145.7500 121.0000 Du        
  40536 ****       127.5000 145.7500 121.2500 Du        
  40537 ****       127.5000 145.7500 121.5000 Du        
  40538 ****       127.5000 145.7500 121.7500 Du        
  40539 ****       127.5000 145.7500 122.0000 Du        
  40540 ****       127.5000 145.7500 122.2500 Du        
  40541 ****       127.5000 145.7500 122.5000 Du        
  40542 ****       127.5000 145.7500 122.7500 Du        
  40543 ****       127.5000 145.7500 123.0000 Du        
  40544 ****       127.5000 146.0000 121.0000 Du        
  40545 ****       127.5000 146.0000 121.2500 Du        
  40546 ****       127.5000 146.0000 121.5000 Du        
  40547 ****       127.5000 146.0000 121.7500 Du        
  40548 ****       127.5000 146.0000 122.0000 Du        
  40549 ****       127.5000 146.0000 122.2500 Du        
  40550 ****       127.5000 146.0000 122.5000 Du        
  40551 ****       127.5000 146.0000 122.7500 Du        
  40552 ****       127.5000 146.0000 123.0000 Du        
  40553 ****       127.5000 146.0000 123.2500 Du        
  40554 ****       127.5000 146.2500 121.2500 Du        
  40555 ****       127.5000 146.2500 121.5000 Du        
  40556 ****       127.5000 146.2500 121.7500 Du        
  40557 ****       127.5000 146.2500 122.0000 Du        
  40558 ****       127.5000 146.2500 122.2500 Du        
  40559 ****       127.5000 146.2500 122.5000 Du        
  40560 ****       127.5000 146.2500 122.7500 Du        
  40561 ****       127.5000 146.2500 123.0000 Du        
  40562 ****       127.5000 146.2500 123.2500 Du        
  40563 ****       127.5000 146.5000 121.5000 Du        
  40564 ****       127.5000 146.5000 121.7500 Du        
  40565 ****       127.5000 146.5000 122.0000 Du        
  40566 ****       127.5000 146.5000 122.2500 Du        
  40567 ****       127.5000 146.5000 122.5000 Du        
  40568 ****       127.5000 146.5000 122.7500 Du        
  40569 ****       127.5000 146.7500 122.0000 Du        
  40570 ****       127.5000 146.7500 122.2500 Du        
  40571 ****       127.5000 146.7500 122.5000 Du        
  40572 ****       127.5000 146.7500 122.7500 Du        
  40573 ****       127.5000 146.7500 123.0000 Du        
  40574 ****       127.5000 147.0000 122.2500 Du        
  40575 ****       127.5000 147.0000 122.5000 Du        
  40576 ****       127.5000 147.0000 122.7500 Du        
  40577 ****       127.5000 147.0000 123.0000 Du        
  40578 ****       127.5000 149.2500 138.5000 Du        
  40579 ****       127.5000 149.2500 138.7500 Du        
  40580 ****       127.5000 149.2500 139.0000 Du        
  40581 ****       127.5000 149.2500 139.2500 Du        
  40582 ****       127.5000 149.2500 139.5000 Du        
  40583 ****       127.5000 149.5000 136.2500 Du        
  40584 ****       127.5000 149.5000 136.5000 Du        
  40585 ****       127.5000 149.5000 136.7500 Du        
  40586 ****       127.5000 149.5000 137.0000 Du        
  40587 ****       127.5000 149.5000 137.2500 Du        
  40588 ****       127.5000 149.5000 137.5000 Du        
  40589 ****       127.5000 149.5000 137.7500 Du        
  40590 ****       127.5000 149.5000 138.0000 Du        
  40591 ****       127.5000 149.5000 138.2500 Du        
  40592 ****       127.5000 149.5000 138.5000 Du        
  40593 ****       127.5000 149.5000 138.7500 Du        
  40594 ****       127.5000 149.5000 139.0000 Du        
  40595 ****       127.5000 149.5000 139.2500 Du        
  40596 ****       127.5000 149.5000 139.5000 Du        
  40597 ****       127.5000 149.7500 136.0000 Du        
  40598 ****       127.5000 149.7500 136.2500 Du        
  40599 ****       127.5000 149.7500 136.5000 Du        
  40600 ****       127.5000 149.7500 136.7500 Du        
  40601 ****       127.5000 149.7500 137.0000 Du        
  40602 ****       127.5000 149.7500 137.2500 Du        
  40603 ****       127.5000 149.7500 137.5000 Du        
  40604 ****       127.5000 149.7500 137.7500 Du        
  40605 ****       127.5000 149.7500 138.0000 Du        
  40606 ****       127.5000 149.7500 138.2500 Du        
  40607 ****       127.5000 149.7500 138.5000 Du        
  40608 ****       127.5000 149.7500 138.7500 Du        
  40609 ****       127.5000 149.7500 139.0000 Du        
  40610 ****       127.5000 149.7500 139.2500 Du        
  40611 ****       127.5000 149.7500 139.5000 Du        
  40612 ****       127.5000 150.0000 136.0000 Du        
  40613 ****       127.5000 150.0000 136.2500 Du        
  40614 ****       127.5000 150.0000 136.5000 Du        
  40615 ****       127.5000 150.0000 136.7500 Du        
  40616 ****       127.5000 150.0000 137.0000 Du        
  40617 ****       127.5000 150.0000 137.2500 Du        
  40618 ****       127.5000 150.0000 137.5000 Du        
  40619 ****       127.5000 150.0000 137.7500 Du        
  40620 ****       127.5000 150.0000 138.0000 Du        
  40621 ****       127.5000 150.0000 138.2500 Du        
  40622 ****       127.5000 150.2500 136.2500 Du        
  40623 ****       127.5000 150.2500 136.5000 Du        
  40624 ****       127.5000 150.2500 136.7500 Du        
  40625 ****       127.5000 150.2500 137.0000 Du        
  40626 ****       127.5000 150.2500 137.2500 Du        
  40627 ****       127.5000 150.5000 136.5000 Du        
  40628 ****       127.5000 150.5000 136.7500 Du        
  40629 ****       127.5000 150.7500 136.0000 Du        
  40630 ****       127.5000 150.7500 136.2500 Du        
  40631 ****       127.5000 151.0000 136.0000 Du        
  40632 ****       127.5000 151.0000 136.2500 Du        
  40633 ****       127.5000 155.2500 125.7500 Du        
  40634 ****       127.5000 155.2500 126.0000 Du        
  40635 ****       127.5000 155.2500 126.2500 Du        
  40636 ****       127.5000 155.5000 125.5000 Du        
  40637 ****       127.5000 155.5000 125.7500 Du        
  40638 ****       127.5000 155.5000 126.0000 Du        
  40639 ****       127.5000 155.5000 126.2500 Du        
  40640 ****       127.5000 155.5000 126.5000 Du        
  40641 ****       127.5000 155.5000 126.7500 Du        
  40642 ****       127.5000 155.5000 127.0000 Du        
  40643 ****       127.5000 155.5000 127.2500 Du        
  40644 ****       127.5000 155.5000 130.7500 Du        
  40645 ****       127.5000 155.5000 131.0000 Du        
  40646 ****       127.5000 155.5000 131.2500 Du        
  40647 ****       127.5000 155.5000 131.5000 Du        
  40648 ****       127.5000 155.5000 131.7500 Du        
  40649 ****       127.5000 155.5000 132.0000 Du        
  40650 ****       127.5000 155.5000 132.2500 Du        
  40651 ****       127.5000 155.5000 132.5000 Du        
  40652 ****       127.5000 155.5000 132.7500 Du        
  40653 ****       127.5000 155.5000 133.0000 Du        
  40654 ****       127.5000 155.5000 133.2500 Du        
  40655 ****       127.5000 155.5000 133.7500 Du        
  40656 ****       127.5000 155.5000 134.0000 Du        
  40657 ****       127.5000 155.5000 134.2500 Du        
  40658 ****       127.5000 155.7500 125.2500 Du        
  40659 ****       127.5000 155.7500 125.5000 Du        
  40660 ****       127.5000 155.7500 125.7500 Du        
  40661 ****       127.5000 155.7500 126.0000 Du        
  40662 ****       127.5000 155.7500 126.2500 Du        
  40663 ****       127.5000 155.7500 126.5000 Du        
  40664 ****       127.5000 155.7500 126.7500 Du        
  40665 ****       127.5000 155.7500 127.0000 Du        
  40666 ****       127.5000 155.7500 127.2500 Du        
  40667 ****       127.5000 155.7500 130.7500 Du        
  40668 ****       127.5000 155.7500 131.0000 Du        
  40669 ****       127.5000 155.7500 131.2500 Du        
  40670 ****       127.5000 155.7500 131.5000 Du        
  40671 ****       127.5000 155.7500 131.7500 Du        
  40672 ****       127.5000 155.7500 132.0000 Du        
  40673 ****       127.5000 155.7500 132.2500 Du        
  40674 ****       127.5000 155.7500 132.5000 Du        
  40675 ****       127.5000 155.7500 132.7500 Du        
  40676 ****       127.5000 155.7500 133.0000 Du        
  40677 ****       127.5000 155.7500 133.2500 Du        
  40678 ****       127.5000 155.7500 133.5000 Du        
  40679 ****       127.5000 155.7500 133.7500 Du        
  40680 ****       127.5000 155.7500 134.0000 Du        
  40681 ****       127.5000 155.7500 134.2500 Du        
  40682 ****       127.5000 155.7500 134.5000 Du        
  40683 ****       127.5000 155.7500 134.7500 Du        
  40684 ****       127.5000 156.0000 125.0000 Du        
  40685 ****       127.5000 156.0000 125.2500 Du        
  40686 ****       127.5000 156.0000 125.5000 Du        
  40687 ****       127.5000 156.0000 125.7500 Du        
  40688 ****       127.5000 156.0000 126.0000 Du        
  40689 ****       127.5000 156.0000 126.2500 Du        
  40690 ****       127.5000 156.0000 126.5000 Du        
  40691 ****       127.5000 156.0000 126.7500 Du        
  40692 ****       127.5000 156.0000 127.0000 Du        
  40693 ****       127.5000 156.0000 131.0000 Du        
  40694 ****       127.5000 156.0000 131.2500 Du        
  40695 ****       127.5000 156.0000 131.5000 Du        
  40696 ****       127.5000 156.0000 131.7500 Du        
  40697 ****       127.5000 156.0000 132.0000 Du        
  40698 ****       127.5000 156.0000 132.2500 Du        
  40699 ****       127.5000 156.0000 132.5000 Du        
  40700 ****       127.5000 156.0000 132.7500 Du        
  40701 ****       127.5000 156.0000 133.0000 Du        
  40702 ****       127.5000 156.0000 133.2500 Du        
  40703 ****       127.5000 156.0000 133.5000 Du        
  40704 ****       127.5000 156.0000 133.7500 Du        
  40705 ****       127.5000 156.0000 134.0000 Du        
  40706 ****       127.5000 156.0000 134.2500 Du        
  40707 ****       127.5000 156.0000 134.5000 Du        
  40708 ****       127.5000 156.0000 134.7500 Du        
  40709 ****       127.5000 156.0000 135.0000 Du        
  40710 ****       127.5000 156.2500 125.0000 Du        
  40711 ****       127.5000 156.2500 125.2500 Du        
  40712 ****       127.5000 156.2500 125.5000 Du        
  40713 ****       127.5000 156.2500 125.7500 Du        
  40714 ****       127.5000 156.2500 126.0000 Du        
  40715 ****       127.5000 156.2500 126.2500 Du        
  40716 ****       127.5000 156.2500 131.7500 Du        
  40717 ****       127.5000 156.2500 132.0000 Du        
  40718 ****       127.5000 156.2500 132.2500 Du        
  40719 ****       127.5000 156.2500 132.5000 Du        
  40720 ****       127.5000 156.2500 132.7500 Du        
  40721 ****       127.5000 156.2500 133.0000 Du        
  40722 ****       127.5000 156.2500 133.2500 Du        
  40723 ****       127.5000 156.2500 133.5000 Du        
  40724 ****       127.5000 156.2500 133.7500 Du        
  40725 ****       127.5000 156.2500 134.0000 Du        
  40726 ****       127.5000 156.2500 134.2500 Du        
  40727 ****       127.5000 156.2500 134.5000 Du        
  40728 ****       127.5000 156.2500 134.7500 Du        
  40729 ****       127.5000 156.2500 135.0000 Du        
  40730 ****       127.5000 156.5000 125.0000 Du        
  40731 ****       127.5000 156.5000 125.2500 Du        
  40732 ****       127.5000 156.5000 125.5000 Du        
  40733 ****       127.5000 156.5000 125.7500 Du        
  40734 ****       127.5000 156.5000 126.0000 Du        
  40735 ****       127.5000 156.5000 132.0000 Du        
  40736 ****       127.5000 156.5000 132.2500 Du        
  40737 ****       127.5000 156.5000 132.5000 Du        
  40738 ****       127.5000 156.5000 132.7500 Du        
  40739 ****       127.5000 156.5000 133.0000 Du        
  40740 ****       127.5000 156.5000 133.2500 Du        
  40741 ****       127.5000 156.5000 133.5000 Du        
  40742 ****       127.5000 156.5000 133.7500 Du        
  40743 ****       127.5000 156.5000 134.0000 Du        
  40744 ****       127.5000 156.5000 134.2500 Du        
  40745 ****       127.5000 156.5000 134.5000 Du        
  40746 ****       127.5000 156.5000 134.7500 Du        
  40747 ****       127.5000 156.5000 135.0000 Du        
  40748 ****       127.5000 156.7500 115.5000 Du        
  40749 ****       127.5000 156.7500 115.7500 Du        
  40750 ****       127.5000 156.7500 116.0000 Du        
  40751 ****       127.5000 156.7500 116.2500 Du        
  40752 ****       127.5000 156.7500 116.5000 Du        
  40753 ****       127.5000 156.7500 116.7500 Du        
  40754 ****       127.5000 156.7500 125.0000 Du        
  40755 ****       127.5000 156.7500 125.2500 Du        
  40756 ****       127.5000 156.7500 125.5000 Du        
  40757 ****       127.5000 156.7500 125.7500 Du        
  40758 ****       127.5000 156.7500 132.5000 Du        
  40759 ****       127.5000 156.7500 132.7500 Du        
  40760 ****       127.5000 156.7500 133.0000 Du        
  40761 ****       127.5000 156.7500 133.2500 Du        
  40762 ****       127.5000 156.7500 133.5000 Du        
  40763 ****       127.5000 156.7500 133.7500 Du        
  40764 ****       127.5000 156.7500 134.0000 Du        
  40765 ****       127.5000 156.7500 134.2500 Du        
  40766 ****       127.5000 156.7500 134.5000 Du        
  40767 ****       127.5000 156.7500 134.7500 Du        
  40768 ****       127.5000 157.0000 115.5000 Du        
  40769 ****       127.5000 157.0000 115.7500 Du        
  40770 ****       127.5000 157.0000 116.0000 Du        
  40771 ****       127.5000 157.0000 116.2500 Du        
  40772 ****       127.5000 157.0000 116.5000 Du        
  40773 ****       127.5000 157.0000 125.0000 Du        
  40774 ****       127.5000 157.0000 125.2500 Du        
  40775 ****       127.5000 157.0000 125.5000 Du        
  40776 ****       127.5000 157.0000 132.7500 Du        
  40777 ****       127.5000 157.0000 133.0000 Du        
  40778 ****       127.5000 157.0000 133.2500 Du        
  40779 ****       127.5000 157.0000 133.5000 Du        
  40780 ****       127.5000 157.0000 133.7500 Du        
  40781 ****       127.5000 157.0000 134.0000 Du        
  40782 ****       127.5000 157.0000 134.2500 Du        
  40783 ****       127.5000 157.0000 134.5000 Du        
  40784 ****       127.5000 157.2500 115.5000 Du        
  40785 ****       127.5000 157.2500 115.7500 Du        
  40786 ****       127.5000 157.2500 116.0000 Du        
  40787 ****       127.5000 157.2500 116.2500 Du        
  40788 ****       127.5000 157.2500 125.2500 Du        
  40789 ****       127.5000 157.2500 133.0000 Du        
  40790 ****       127.5000 157.2500 133.2500 Du        
  40791 ****       127.5000 157.2500 133.5000 Du        
  40792 ****       127.5000 157.2500 133.7500 Du        
  40793 ****       127.5000 157.2500 134.0000 Du        
  40794 ****       127.5000 157.2500 134.2500 Du        
  40795 ****       127.5000 157.5000 115.5000 Du        
  40796 ****       127.5000 157.5000 115.7500 Du        
  40797 ****       127.5000 157.5000 116.0000 Du        
  40798 ****       127.5000 157.5000 133.2500 Du        
  40799 ****       127.5000 157.5000 133.5000 Du        
  40800 ****       127.5000 157.5000 133.7500 Du        
  40801 ****       127.5000 157.5000 134.0000 Du        
  40802 ****       127.5000 157.7500 115.5000 Du        
  40803 ****       127.5000 157.7500 115.7500 Du        
  40804 ****       127.5000 157.7500 116.0000 Du        
  40805 ****       127.5000 158.0000 115.5000 Du        
  40806 ****       127.5000 158.0000 115.7500 Du        
  40807 ****       127.7500 136.0000 144.5000 Du        
  40808 ****       127.7500 136.0000 144.7500 Du        
  40809 ****       127.7500 136.0000 145.0000 Du        
  40810 ****       127.7500 136.0000 145.2500 Du        
  40811 ****       127.7500 136.2500 144.5000 Du        
  40812 ****       127.7500 136.2500 144.7500 Du        
  40813 ****       127.7500 136.2500 145.0000 Du        
  40814 ****       127.7500 136.2500 145.2500 Du        
  40815 ****       127.7500 136.2500 145.5000 Du        
  40816 ****       127.7500 136.5000 144.5000 Du        
  40817 ****       127.7500 136.5000 144.7500 Du        
  40818 ****       127.7500 136.5000 145.0000 Du        
  40819 ****       127.7500 136.5000 145.2500 Du        
  40820 ****       127.7500 136.5000 145.5000 Du        
  40821 ****       127.7500 136.5000 145.7500 Du        
  40822 ****       127.7500 136.5000 146.0000 Du        
  40823 ****       127.7500 136.7500 144.5000 Du        
  40824 ****       127.7500 136.7500 144.7500 Du        
  40825 ****       127.7500 136.7500 145.0000 Du        
  40826 ****       127.7500 136.7500 145.2500 Du        
  40827 ****       127.7500 136.7500 145.5000 Du        
  40828 ****       127.7500 136.7500 145.7500 Du        
  40829 ****       127.7500 136.7500 146.0000 Du        
  40830 ****       127.7500 137.0000 144.7500 Du        
  40831 ****       127.7500 137.0000 145.0000 Du        
  40832 ****       127.7500 137.0000 145.2500 Du        
  40833 ****       127.7500 137.0000 145.5000 Du        
  40834 ****       127.7500 137.0000 145.7500 Du        
  40835 ****       127.7500 137.0000 146.0000 Du        
  40836 ****       127.7500 137.0000 146.2500 Du        
  40837 ****       127.7500 137.0000 146.5000 Du        
  40838 ****       127.7500 137.2500 144.7500 Du        
  40839 ****       127.7500 137.2500 145.0000 Du        
  40840 ****       127.7500 137.2500 145.2500 Du        
  40841 ****       127.7500 137.2500 145.5000 Du        
  40842 ****       127.7500 137.2500 145.7500 Du        
  40843 ****       127.7500 137.2500 146.0000 Du        
  40844 ****       127.7500 137.2500 146.2500 Du        
  40845 ****       127.7500 137.2500 146.5000 Du        
  40846 ****       127.7500 137.5000 144.7500 Du        
  40847 ****       127.7500 137.5000 145.0000 Du        
  40848 ****       127.7500 137.5000 145.2500 Du        
  40849 ****       127.7500 137.5000 145.5000 Du        
  40850 ****       127.7500 137.5000 145.7500 Du        
  40851 ****       127.7500 137.5000 146.0000 Du        
  40852 ****       127.7500 137.5000 146.2500 Du        
  40853 ****       127.7500 137.5000 146.5000 Du        
  40854 ****       127.7500 137.7500 144.7500 Du        
  40855 ****       127.7500 137.7500 145.0000 Du        
  40856 ****       127.7500 137.7500 145.2500 Du        
  40857 ****       127.7500 137.7500 145.5000 Du        
  40858 ****       127.7500 137.7500 145.7500 Du        
  40859 ****       127.7500 137.7500 146.0000 Du        
  40860 ****       127.7500 137.7500 146.2500 Du        
  40861 ****       127.7500 137.7500 146.5000 Du        
  40862 ****       127.7500 138.0000 144.7500 Du        
  40863 ****       127.7500 138.0000 145.0000 Du        
  40864 ****       127.7500 138.0000 145.2500 Du        
  40865 ****       127.7500 138.0000 145.5000 Du        
  40866 ****       127.7500 138.0000 145.7500 Du        
  40867 ****       127.7500 138.0000 146.0000 Du        
  40868 ****       127.7500 138.0000 146.2500 Du        
  40869 ****       127.7500 138.0000 146.5000 Du        
  40870 ****       127.7500 138.0000 146.7500 Du        
  40871 ****       127.7500 138.0000 147.0000 Du        
  40872 ****       127.7500 138.2500 144.7500 Du        
  40873 ****       127.7500 138.2500 145.0000 Du        
  40874 ****       127.7500 138.2500 145.2500 Du        
  40875 ****       127.7500 138.2500 145.5000 Du        
  40876 ****       127.7500 138.2500 145.7500 Du        
  40877 ****       127.7500 138.2500 146.0000 Du        
  40878 ****       127.7500 138.2500 146.2500 Du        
  40879 ****       127.7500 138.2500 146.5000 Du        
  40880 ****       127.7500 138.2500 146.7500 Du        
  40881 ****       127.7500 138.2500 147.0000 Du        
  40882 ****       127.7500 138.5000 144.7500 Du        
  40883 ****       127.7500 138.5000 145.0000 Du        
  40884 ****       127.7500 138.5000 145.2500 Du        
  40885 ****       127.7500 138.5000 145.5000 Du        
  40886 ****       127.7500 138.5000 145.7500 Du        
  40887 ****       127.7500 138.5000 146.0000 Du        
  40888 ****       127.7500 138.5000 146.2500 Du        
  40889 ****       127.7500 138.5000 146.5000 Du        
  40890 ****       127.7500 138.5000 146.7500 Du        
  40891 ****       127.7500 138.5000 147.0000 Du        
  40892 ****       127.7500 138.7500 119.5000 Du        
  40893 ****       127.7500 138.7500 144.7500 Du        
  40894 ****       127.7500 138.7500 145.0000 Du        
  40895 ****       127.7500 138.7500 145.2500 Du        
  40896 ****       127.7500 138.7500 145.5000 Du        
  40897 ****       127.7500 138.7500 145.7500 Du        
  40898 ****       127.7500 138.7500 146.0000 Du        
  40899 ****       127.7500 138.7500 146.2500 Du        
  40900 ****       127.7500 138.7500 146.5000 Du        
  40901 ****       127.7500 138.7500 146.7500 Du        
  40902 ****       127.7500 138.7500 147.0000 Du        
  40903 ****       127.7500 139.0000 145.0000 Du        
  40904 ****       127.7500 139.0000 145.2500 Du        
  40905 ****       127.7500 139.0000 145.5000 Du        
  40906 ****       127.7500 139.0000 145.7500 Du        
  40907 ****       127.7500 139.0000 146.0000 Du        
  40908 ****       127.7500 139.0000 146.2500 Du        
  40909 ****       127.7500 139.0000 146.5000 Du        
  40910 ****       127.7500 139.0000 146.7500 Du        
  40911 ****       127.7500 139.0000 147.0000 Du        
  40912 ****       127.7500 139.0000 147.2500 Du        
  40913 ****       127.7500 139.2500 145.0000 Du        
  40914 ****       127.7500 139.2500 145.2500 Du        
  40915 ****       127.7500 139.2500 145.5000 Du        
  40916 ****       127.7500 139.2500 145.7500 Du        
  40917 ****       127.7500 139.2500 146.0000 Du        
  40918 ****       127.7500 139.2500 146.2500 Du        
  40919 ****       127.7500 139.2500 146.5000 Du        
  40920 ****       127.7500 139.2500 146.7500 Du        
  40921 ****       127.7500 139.2500 147.0000 Du        
  40922 ****       127.7500 139.2500 147.2500 Du        
  40923 ****       127.7500 139.5000 145.2500 Du        
  40924 ****       127.7500 139.5000 145.5000 Du        
  40925 ****       127.7500 139.5000 145.7500 Du        
  40926 ****       127.7500 139.5000 146.0000 Du        
  40927 ****       127.7500 139.5000 146.2500 Du        
  40928 ****       127.7500 139.5000 146.5000 Du        
  40929 ****       127.7500 139.5000 146.7500 Du        
  40930 ****       127.7500 139.5000 147.0000 Du        
  40931 ****       127.7500 139.5000 147.2500 Du        
  40932 ****       127.7500 139.7500 145.7500 Du        
  40933 ****       127.7500 139.7500 146.0000 Du        
  40934 ****       127.7500 139.7500 146.2500 Du        
  40935 ****       127.7500 139.7500 146.5000 Du        
  40936 ****       127.7500 139.7500 146.7500 Du        
  40937 ****       127.7500 139.7500 147.0000 Du        
  40938 ****       127.7500 139.7500 147.2500 Du        
  40939 ****       127.7500 140.0000 146.0000 Du        
  40940 ****       127.7500 140.0000 146.2500 Du        
  40941 ****       127.7500 140.0000 146.5000 Du        
  40942 ****       127.7500 140.0000 146.7500 Du        
  40943 ****       127.7500 140.0000 147.0000 Du        
  40944 ****       127.7500 140.0000 147.2500 Du        
  40945 ****       127.7500 140.2500 146.2500 Du        
  40946 ****       127.7500 140.2500 146.5000 Du        
  40947 ****       127.7500 140.2500 146.7500 Du        
  40948 ****       127.7500 140.2500 147.0000 Du        
  40949 ****       127.7500 140.2500 147.2500 Du        
  40950 ****       127.7500 140.5000 147.0000 Du        
  40951 ****       127.7500 140.5000 147.2500 Du        
  40952 ****       127.7500 141.5000 136.7500 Du        
  40953 ****       127.7500 141.7500 136.7500 Du        
  40954 ****       127.7500 145.2500 121.0000 Du        
  40955 ****       127.7500 145.2500 121.2500 Du        
  40956 ****       127.7500 145.5000 121.0000 Du        
  40957 ****       127.7500 145.5000 121.2500 Du        
  40958 ****       127.7500 145.5000 121.5000 Du        
  40959 ****       127.7500 145.5000 121.7500 Du        
  40960 ****       127.7500 145.7500 121.0000 Du        
  40961 ****       127.7500 145.7500 121.2500 Du        
  40962 ****       127.7500 145.7500 121.5000 Du        
  40963 ****       127.7500 145.7500 121.7500 Du        
  40964 ****       127.7500 145.7500 122.0000 Du        
  40965 ****       127.7500 145.7500 122.2500 Du        
  40966 ****       127.7500 145.7500 122.5000 Du        
  40967 ****       127.7500 145.7500 122.7500 Du        
  40968 ****       127.7500 146.0000 121.2500 Du        
  40969 ****       127.7500 146.0000 121.5000 Du        
  40970 ****       127.7500 146.0000 121.7500 Du        
  40971 ****       127.7500 146.0000 122.0000 Du        
  40972 ****       127.7500 146.0000 122.2500 Du        
  40973 ****       127.7500 146.0000 122.5000 Du        
  40974 ****       127.7500 146.0000 122.7500 Du        
  40975 ****       127.7500 146.0000 123.0000 Du        
  40976 ****       127.7500 146.2500 121.5000 Du        
  40977 ****       127.7500 146.2500 121.7500 Du        
  40978 ****       127.7500 146.2500 122.0000 Du        
  40979 ****       127.7500 146.2500 122.2500 Du        
  40980 ****       127.7500 146.2500 122.5000 Du        
  40981 ****       127.7500 146.2500 122.7500 Du        
  40982 ****       127.7500 146.2500 123.0000 Du        
  40983 ****       127.7500 146.2500 123.2500 Du        
  40984 ****       127.7500 146.5000 121.7500 Du        
  40985 ****       127.7500 146.5000 122.0000 Du        
  40986 ****       127.7500 146.5000 122.2500 Du        
  40987 ****       127.7500 146.5000 122.5000 Du        
  40988 ****       127.7500 146.5000 122.7500 Du        
  40989 ****       127.7500 146.5000 123.0000 Du        
  40990 ****       127.7500 146.7500 122.0000 Du        
  40991 ****       127.7500 146.7500 122.2500 Du        
  40992 ****       127.7500 146.7500 122.5000 Du        
  40993 ****       127.7500 146.7500 122.7500 Du        
  40994 ****       127.7500 146.7500 123.0000 Du        
  40995 ****       127.7500 147.0000 122.5000 Du        
  40996 ****       127.7500 147.0000 122.7500 Du        
  40997 ****       127.7500 147.0000 123.0000 Du        
  40998 ****       127.7500 149.2500 136.0000 Du        
  40999 ****       127.7500 149.2500 136.2500 Du        
  41000 ****       127.7500 149.2500 138.5000 Du        
  41001 ****       127.7500 149.2500 138.7500 Du        
  41002 ****       127.7500 149.2500 139.0000 Du        
  41003 ****       127.7500 149.2500 139.2500 Du        
  41004 ****       127.7500 149.5000 136.0000 Du        
  41005 ****       127.7500 149.5000 136.2500 Du        
  41006 ****       127.7500 149.5000 136.5000 Du        
  41007 ****       127.7500 149.5000 136.7500 Du        
  41008 ****       127.7500 149.5000 137.0000 Du        
  41009 ****       127.7500 149.5000 137.2500 Du        
  41010 ****       127.7500 149.5000 137.5000 Du        
  41011 ****       127.7500 149.5000 137.7500 Du        
  41012 ****       127.7500 149.5000 138.0000 Du        
  41013 ****       127.7500 149.5000 138.2500 Du        
  41014 ****       127.7500 149.5000 138.5000 Du        
  41015 ****       127.7500 149.5000 138.7500 Du        
  41016 ****       127.7500 149.5000 139.0000 Du        
  41017 ****       127.7500 149.5000 139.2500 Du        
  41018 ****       127.7500 149.7500 135.7500 Du        
  41019 ****       127.7500 149.7500 136.0000 Du        
  41020 ****       127.7500 149.7500 136.2500 Du        
  41021 ****       127.7500 149.7500 136.5000 Du        
  41022 ****       127.7500 149.7500 136.7500 Du        
  41023 ****       127.7500 149.7500 137.0000 Du        
  41024 ****       127.7500 149.7500 137.2500 Du        
  41025 ****       127.7500 149.7500 137.5000 Du        
  41026 ****       127.7500 149.7500 137.7500 Du        
  41027 ****       127.7500 149.7500 138.0000 Du        
  41028 ****       127.7500 149.7500 138.2500 Du        
  41029 ****       127.7500 149.7500 138.5000 Du        
  41030 ****       127.7500 149.7500 138.7500 Du        
  41031 ****       127.7500 149.7500 139.0000 Du        
  41032 ****       127.7500 150.0000 135.7500 Du        
  41033 ****       127.7500 150.0000 136.0000 Du        
  41034 ****       127.7500 150.0000 136.2500 Du        
  41035 ****       127.7500 150.0000 136.5000 Du        
  41036 ****       127.7500 150.0000 136.7500 Du        
  41037 ****       127.7500 150.0000 137.0000 Du        
  41038 ****       127.7500 150.0000 137.2500 Du        
  41039 ****       127.7500 150.0000 137.5000 Du        
  41040 ****       127.7500 150.0000 137.7500 Du        
  41041 ****       127.7500 150.2500 135.7500 Du        
  41042 ****       127.7500 150.2500 136.0000 Du        
  41043 ****       127.7500 150.2500 136.2500 Du        
  41044 ****       127.7500 150.2500 136.5000 Du        
  41045 ****       127.7500 150.2500 136.7500 Du        
  41046 ****       127.7500 150.2500 137.0000 Du        
  41047 ****       127.7500 150.5000 135.5000 Du        
  41048 ****       127.7500 150.5000 135.7500 Du        
  41049 ****       127.7500 150.5000 136.0000 Du        
  41050 ****       127.7500 150.5000 136.2500 Du        
  41051 ****       127.7500 150.5000 136.5000 Du        
  41052 ****       127.7500 150.5000 136.7500 Du        
  41053 ****       127.7500 150.7500 135.5000 Du        
  41054 ****       127.7500 150.7500 135.7500 Du        
  41055 ****       127.7500 150.7500 136.0000 Du        
  41056 ****       127.7500 150.7500 136.2500 Du        
  41057 ****       127.7500 150.7500 136.5000 Du        
  41058 ****       127.7500 150.7500 136.7500 Du        
  41059 ****       127.7500 151.0000 135.5000 Du        
  41060 ****       127.7500 151.0000 135.7500 Du        
  41061 ****       127.7500 151.0000 136.0000 Du        
  41062 ****       127.7500 151.0000 136.2500 Du        
  41063 ****       127.7500 151.0000 136.5000 Du        
  41064 ****       127.7500 151.2500 135.7500 Du        
  41065 ****       127.7500 151.2500 136.0000 Du        
  41066 ****       127.7500 151.2500 136.2500 Du        
  41067 ****       127.7500 151.5000 135.7500 Du        
  41068 ****       127.7500 152.0000 135.5000 Du        
  41069 ****       127.7500 152.5000 135.7500 Du        
  41070 ****       127.7500 152.7500 135.7500 Du        
  41071 ****       127.7500 152.7500 136.0000 Du        
  41072 ****       127.7500 155.2500 126.0000 Du        
  41073 ****       127.7500 155.2500 126.2500 Du        
  41074 ****       127.7500 155.5000 125.5000 Du        
  41075 ****       127.7500 155.5000 125.7500 Du        
  41076 ****       127.7500 155.5000 126.0000 Du        
  41077 ****       127.7500 155.5000 126.2500 Du        
  41078 ****       127.7500 155.5000 126.5000 Du        
  41079 ****       127.7500 155.5000 126.7500 Du        
  41080 ****       127.7500 155.5000 127.0000 Du        
  41081 ****       127.7500 155.5000 127.2500 Du        
  41082 ****       127.7500 155.5000 130.2500 Du        
  41083 ****       127.7500 155.5000 130.5000 Du        
  41084 ****       127.7500 155.5000 130.7500 Du        
  41085 ****       127.7500 155.5000 131.0000 Du        
  41086 ****       127.7500 155.5000 131.2500 Du        
  41087 ****       127.7500 155.5000 131.5000 Du        
  41088 ****       127.7500 155.5000 131.7500 Du        
  41089 ****       127.7500 155.7500 125.2500 Du        
  41090 ****       127.7500 155.7500 125.5000 Du        
  41091 ****       127.7500 155.7500 125.7500 Du        
  41092 ****       127.7500 155.7500 126.0000 Du        
  41093 ****       127.7500 155.7500 126.2500 Du        
  41094 ****       127.7500 155.7500 126.5000 Du        
  41095 ****       127.7500 155.7500 126.7500 Du        
  41096 ****       127.7500 155.7500 127.0000 Du        
  41097 ****       127.7500 155.7500 127.2500 Du        
  41098 ****       127.7500 155.7500 130.2500 Du        
  41099 ****       127.7500 155.7500 130.5000 Du        
  41100 ****       127.7500 155.7500 130.7500 Du        
  41101 ****       127.7500 155.7500 131.0000 Du        
  41102 ****       127.7500 155.7500 131.2500 Du        
  41103 ****       127.7500 155.7500 131.5000 Du        
  41104 ****       127.7500 155.7500 131.7500 Du        
  41105 ****       127.7500 156.0000 125.0000 Du        
  41106 ****       127.7500 156.0000 125.2500 Du        
  41107 ****       127.7500 156.0000 125.5000 Du        
  41108 ****       127.7500 156.0000 125.7500 Du        
  41109 ****       127.7500 156.0000 126.0000 Du        
  41110 ****       127.7500 156.0000 126.2500 Du        
  41111 ****       127.7500 156.0000 126.5000 Du        
  41112 ****       127.7500 156.0000 126.7500 Du        
  41113 ****       127.7500 156.0000 130.7500 Du        
  41114 ****       127.7500 156.0000 131.0000 Du        
  41115 ****       127.7500 156.0000 131.2500 Du        
  41116 ****       127.7500 156.0000 131.5000 Du        
  41117 ****       127.7500 156.0000 131.7500 Du        
  41118 ****       127.7500 156.2500 125.0000 Du        
  41119 ****       127.7500 156.2500 125.2500 Du        
  41120 ****       127.7500 156.2500 125.5000 Du        
  41121 ****       127.7500 156.2500 125.7500 Du        
  41122 ****       127.7500 156.2500 126.0000 Du        
  41123 ****       127.7500 156.2500 126.2500 Du        
  41124 ****       127.7500 156.2500 134.2500 Du        
  41125 ****       127.7500 156.5000 124.7500 Du        
  41126 ****       127.7500 156.5000 125.0000 Du        
  41127 ****       127.7500 156.5000 125.2500 Du        
  41128 ****       127.7500 156.5000 125.5000 Du        
  41129 ****       127.7500 156.5000 125.7500 Du        
  41130 ****       127.7500 156.5000 126.0000 Du        
  41131 ****       127.7500 156.5000 133.7500 Du        
  41132 ****       127.7500 156.5000 134.0000 Du        
  41133 ****       127.7500 156.5000 134.2500 Du        
  41134 ****       127.7500 156.5000 134.5000 Du        
  41135 ****       127.7500 156.5000 134.7500 Du        
  41136 ****       127.7500 156.5000 135.0000 Du        
  41137 ****       127.7500 156.7500 115.5000 Du        
  41138 ****       127.7500 156.7500 115.7500 Du        
  41139 ****       127.7500 156.7500 116.0000 Du        
  41140 ****       127.7500 156.7500 116.2500 Du        
  41141 ****       127.7500 156.7500 116.5000 Du        
  41142 ****       127.7500 156.7500 116.7500 Du        
  41143 ****       127.7500 156.7500 124.7500 Du        
  41144 ****       127.7500 156.7500 125.0000 Du        
  41145 ****       127.7500 156.7500 125.2500 Du        
  41146 ****       127.7500 156.7500 125.5000 Du        
  41147 ****       127.7500 156.7500 125.7500 Du        
  41148 ****       127.7500 156.7500 133.5000 Du        
  41149 ****       127.7500 156.7500 133.7500 Du        
  41150 ****       127.7500 156.7500 134.0000 Du        
  41151 ****       127.7500 156.7500 134.2500 Du        
  41152 ****       127.7500 156.7500 134.5000 Du        
  41153 ****       127.7500 156.7500 134.7500 Du        
  41154 ****       127.7500 156.7500 135.0000 Du        
  41155 ****       127.7500 157.0000 115.5000 Du        
  41156 ****       127.7500 157.0000 115.7500 Du        
  41157 ****       127.7500 157.0000 116.0000 Du        
  41158 ****       127.7500 157.0000 116.2500 Du        
  41159 ****       127.7500 157.0000 116.5000 Du        
  41160 ****       127.7500 157.0000 124.7500 Du        
  41161 ****       127.7500 157.0000 125.0000 Du        
  41162 ****       127.7500 157.0000 125.2500 Du        
  41163 ****       127.7500 157.0000 125.5000 Du        
  41164 ****       127.7500 157.0000 133.2500 Du        
  41165 ****       127.7500 157.0000 133.5000 Du        
  41166 ****       127.7500 157.0000 133.7500 Du        
  41167 ****       127.7500 157.0000 134.0000 Du        
  41168 ****       127.7500 157.0000 134.2500 Du        
  41169 ****       127.7500 157.0000 134.5000 Du        
  41170 ****       127.7500 157.0000 134.7500 Du        
  41171 ****       127.7500 157.2500 115.2500 Du        
  41172 ****       127.7500 157.2500 115.5000 Du        
  41173 ****       127.7500 157.2500 115.7500 Du        
  41174 ****       127.7500 157.2500 116.0000 Du        
  41175 ****       127.7500 157.2500 116.2500 Du        
  41176 ****       127.7500 157.2500 116.5000 Du        
  41177 ****       127.7500 157.2500 125.0000 Du        
  41178 ****       127.7500 157.2500 133.2500 Du        
  41179 ****       127.7500 157.2500 133.5000 Du        
  41180 ****       127.7500 157.2500 133.7500 Du        
  41181 ****       127.7500 157.2500 134.0000 Du        
  41182 ****       127.7500 157.2500 134.2500 Du        
  41183 ****       127.7500 157.5000 115.5000 Du        
  41184 ****       127.7500 157.5000 115.7500 Du        
  41185 ****       127.7500 157.5000 116.0000 Du        
  41186 ****       127.7500 157.5000 116.2500 Du        
  41187 ****       127.7500 157.5000 133.2500 Du        
  41188 ****       127.7500 157.5000 133.5000 Du        
  41189 ****       127.7500 157.5000 133.7500 Du        
  41190 ****       127.7500 157.5000 134.0000 Du        
  41191 ****       127.7500 157.5000 134.2500 Du        
  41192 ****       127.7500 157.7500 115.5000 Du        
  41193 ****       127.7500 157.7500 115.7500 Du        
  41194 ****       127.7500 157.7500 116.0000 Du        
  41195 ****       127.7500 157.7500 133.2500 Du        
  41196 ****       127.7500 157.7500 133.5000 Du        
  41197 ****       127.7500 157.7500 133.7500 Du        
  41198 ****       127.7500 158.0000 115.5000 Du        
  41199 ****       127.7500 158.0000 115.7500 Du        
  41200 ****       127.7500 158.0000 116.0000 Du        
  41201 ****       127.7500 158.2500 115.5000 Du        
  41202 ****       127.7500 158.2500 115.7500 Du        
  41203 ****       128.0000 136.0000 144.5000 Du        
  41204 ****       128.0000 136.0000 144.7500 Du        
  41205 ****       128.0000 136.0000 145.0000 Du        
  41206 ****       128.0000 136.0000 145.2500 Du        
  41207 ****       128.0000 136.0000 145.5000 Du        
  41208 ****       128.0000 136.2500 144.5000 Du        
  41209 ****       128.0000 136.2500 144.7500 Du        
  41210 ****       128.0000 136.2500 145.0000 Du        
  41211 ****       128.0000 136.2500 145.2500 Du        
  41212 ****       128.0000 136.2500 145.5000 Du        
  41213 ****       128.0000 136.5000 144.5000 Du        
  41214 ****       128.0000 136.5000 144.7500 Du        
  41215 ****       128.0000 136.5000 145.0000 Du        
  41216 ****       128.0000 136.5000 145.2500 Du        
  41217 ****       128.0000 136.5000 145.5000 Du        
  41218 ****       128.0000 136.5000 145.7500 Du        
  41219 ****       128.0000 136.5000 146.0000 Du        
  41220 ****       128.0000 136.7500 144.5000 Du        
  41221 ****       128.0000 136.7500 144.7500 Du        
  41222 ****       128.0000 136.7500 145.0000 Du        
  41223 ****       128.0000 136.7500 145.2500 Du        
  41224 ****       128.0000 136.7500 145.5000 Du        
  41225 ****       128.0000 136.7500 145.7500 Du        
  41226 ****       128.0000 136.7500 146.0000 Du        
  41227 ****       128.0000 137.0000 144.5000 Du        
  41228 ****       128.0000 137.0000 144.7500 Du        
  41229 ****       128.0000 137.0000 145.0000 Du        
  41230 ****       128.0000 137.0000 145.2500 Du        
  41231 ****       128.0000 137.0000 145.5000 Du        
  41232 ****       128.0000 137.0000 145.7500 Du        
  41233 ****       128.0000 137.0000 146.0000 Du        
  41234 ****       128.0000 137.0000 146.2500 Du        
  41235 ****       128.0000 137.0000 146.5000 Du        
  41236 ****       128.0000 137.2500 144.7500 Du        
  41237 ****       128.0000 137.2500 145.0000 Du        
  41238 ****       128.0000 137.2500 145.2500 Du        
  41239 ****       128.0000 137.2500 145.5000 Du        
  41240 ****       128.0000 137.2500 145.7500 Du        
  41241 ****       128.0000 137.2500 146.0000 Du        
  41242 ****       128.0000 137.2500 146.2500 Du        
  41243 ****       128.0000 137.2500 146.5000 Du        
  41244 ****       128.0000 137.5000 123.7500 Du        
  41245 ****       128.0000 137.5000 144.7500 Du        
  41246 ****       128.0000 137.5000 145.0000 Du        
  41247 ****       128.0000 137.5000 145.2500 Du        
  41248 ****       128.0000 137.5000 145.5000 Du        
  41249 ****       128.0000 137.5000 145.7500 Du        
  41250 ****       128.0000 137.5000 146.0000 Du        
  41251 ****       128.0000 137.5000 146.2500 Du        
  41252 ****       128.0000 137.5000 146.5000 Du        
  41253 ****       128.0000 137.7500 123.7500 Du        
  41254 ****       128.0000 137.7500 144.7500 Du        
  41255 ****       128.0000 137.7500 145.0000 Du        
  41256 ****       128.0000 137.7500 145.2500 Du        
  41257 ****       128.0000 137.7500 145.5000 Du        
  41258 ****       128.0000 137.7500 145.7500 Du        
  41259 ****       128.0000 137.7500 146.0000 Du        
  41260 ****       128.0000 137.7500 146.2500 Du        
  41261 ****       128.0000 137.7500 146.5000 Du        
  41262 ****       128.0000 138.0000 144.7500 Du        
  41263 ****       128.0000 138.0000 145.0000 Du        
  41264 ****       128.0000 138.0000 145.2500 Du        
  41265 ****       128.0000 138.0000 145.5000 Du        
  41266 ****       128.0000 138.0000 145.7500 Du        
  41267 ****       128.0000 138.0000 146.0000 Du        
  41268 ****       128.0000 138.0000 146.2500 Du        
  41269 ****       128.0000 138.0000 146.5000 Du        
  41270 ****       128.0000 138.0000 146.7500 Du        
  41271 ****       128.0000 138.0000 147.0000 Du        
  41272 ****       128.0000 138.2500 144.7500 Du        
  41273 ****       128.0000 138.2500 145.0000 Du        
  41274 ****       128.0000 138.2500 145.2500 Du        
  41275 ****       128.0000 138.2500 145.5000 Du        
  41276 ****       128.0000 138.2500 145.7500 Du        
  41277 ****       128.0000 138.2500 146.0000 Du        
  41278 ****       128.0000 138.2500 146.2500 Du        
  41279 ****       128.0000 138.2500 146.5000 Du        
  41280 ****       128.0000 138.2500 146.7500 Du        
  41281 ****       128.0000 138.2500 147.0000 Du        
  41282 ****       128.0000 138.5000 119.5000 Du        
  41283 ****       128.0000 138.5000 144.7500 Du        
  41284 ****       128.0000 138.5000 145.0000 Du        
  41285 ****       128.0000 138.5000 145.2500 Du        
  41286 ****       128.0000 138.5000 145.5000 Du        
  41287 ****       128.0000 138.5000 145.7500 Du        
  41288 ****       128.0000 138.5000 146.0000 Du        
  41289 ****       128.0000 138.5000 146.2500 Du        
  41290 ****       128.0000 138.5000 146.5000 Du        
  41291 ****       128.0000 138.5000 146.7500 Du        
  41292 ****       128.0000 138.5000 147.0000 Du        
  41293 ****       128.0000 138.5000 147.2500 Du        
  41294 ****       128.0000 138.7500 119.0000 Du        
  41295 ****       128.0000 138.7500 119.2500 Du        
  41296 ****       128.0000 138.7500 119.5000 Du        
  41297 ****       128.0000 138.7500 119.7500 Du        
  41298 ****       128.0000 138.7500 145.0000 Du        
  41299 ****       128.0000 138.7500 145.2500 Du        
  41300 ****       128.0000 138.7500 145.5000 Du        
  41301 ****       128.0000 138.7500 145.7500 Du        
  41302 ****       128.0000 138.7500 146.0000 Du        
  41303 ****       128.0000 138.7500 146.2500 Du        
  41304 ****       128.0000 138.7500 146.5000 Du        
  41305 ****       128.0000 138.7500 146.7500 Du        
  41306 ****       128.0000 138.7500 147.0000 Du        
  41307 ****       128.0000 138.7500 147.2500 Du        
  41308 ****       128.0000 139.0000 119.2500 Du        
  41309 ****       128.0000 139.0000 145.2500 Du        
  41310 ****       128.0000 139.0000 145.7500 Du        
  41311 ****       128.0000 139.0000 146.0000 Du        
  41312 ****       128.0000 139.0000 146.2500 Du        
  41313 ****       128.0000 139.0000 146.5000 Du        
  41314 ****       128.0000 139.0000 146.7500 Du        
  41315 ****       128.0000 139.0000 147.0000 Du        
  41316 ****       128.0000 139.0000 147.2500 Du        
  41317 ****       128.0000 139.2500 146.2500 Du        
  41318 ****       128.0000 139.2500 146.5000 Du        
  41319 ****       128.0000 139.2500 146.7500 Du        
  41320 ****       128.0000 139.2500 147.0000 Du        
  41321 ****       128.0000 139.2500 147.2500 Du        
  41322 ****       128.0000 139.5000 146.7500 Du        
  41323 ****       128.0000 139.5000 147.0000 Du        
  41324 ****       128.0000 139.5000 147.2500 Du        
  41325 ****       128.0000 139.7500 146.7500 Du        
  41326 ****       128.0000 139.7500 147.0000 Du        
  41327 ****       128.0000 139.7500 147.2500 Du        
  41328 ****       128.0000 140.0000 146.7500 Du        
  41329 ****       128.0000 140.0000 147.0000 Du        
  41330 ****       128.0000 140.0000 147.2500 Du        
  41331 ****       128.0000 140.2500 146.7500 Du        
  41332 ****       128.0000 140.2500 147.0000 Du        
  41333 ****       128.0000 140.2500 147.2500 Du        
  41334 ****       128.0000 140.5000 147.0000 Du        
  41335 ****       128.0000 140.5000 147.2500 Du        
  41336 ****       128.0000 145.5000 121.0000 Du        
  41337 ****       128.0000 145.5000 121.2500 Du        
  41338 ****       128.0000 145.7500 121.2500 Du        
  41339 ****       128.0000 145.7500 121.5000 Du        
  41340 ****       128.0000 145.7500 121.7500 Du        
  41341 ****       128.0000 145.7500 122.0000 Du        
  41342 ****       128.0000 145.7500 122.2500 Du        
  41343 ****       128.0000 146.0000 121.2500 Du        
  41344 ****       128.0000 146.0000 121.5000 Du        
  41345 ****       128.0000 146.0000 121.7500 Du        
  41346 ****       128.0000 146.0000 122.0000 Du        
  41347 ****       128.0000 146.0000 122.2500 Du        
  41348 ****       128.0000 146.0000 122.5000 Du        
  41349 ****       128.0000 146.0000 122.7500 Du        
  41350 ****       128.0000 146.0000 123.0000 Du        
  41351 ****       128.0000 146.2500 121.7500 Du        
  41352 ****       128.0000 146.2500 122.0000 Du        
  41353 ****       128.0000 146.2500 122.2500 Du        
  41354 ****       128.0000 146.2500 122.5000 Du        
  41355 ****       128.0000 146.2500 122.7500 Du        
  41356 ****       128.0000 146.2500 123.0000 Du        
  41357 ****       128.0000 146.2500 123.2500 Du        
  41358 ****       128.0000 146.5000 122.0000 Du        
  41359 ****       128.0000 146.5000 122.2500 Du        
  41360 ****       128.0000 146.5000 122.5000 Du        
  41361 ****       128.0000 146.5000 122.7500 Du        
  41362 ****       128.0000 146.7500 122.5000 Du        
  41363 ****       128.0000 146.7500 122.7500 Du        
  41364 ****       128.0000 146.7500 123.0000 Du        
  41365 ****       128.0000 147.0000 122.7500 Du        
  41366 ****       128.0000 149.2500 136.0000 Du        
  41367 ****       128.0000 149.2500 136.2500 Du        
  41368 ****       128.0000 149.2500 138.7500 Du        
  41369 ****       128.0000 149.2500 139.0000 Du        
  41370 ****       128.0000 149.5000 136.0000 Du        
  41371 ****       128.0000 149.5000 136.2500 Du        
  41372 ****       128.0000 149.5000 136.5000 Du        
  41373 ****       128.0000 149.5000 136.7500 Du        
  41374 ****       128.0000 149.5000 137.0000 Du        
  41375 ****       128.0000 149.5000 137.2500 Du        
  41376 ****       128.0000 149.5000 137.5000 Du        
  41377 ****       128.0000 149.5000 137.7500 Du        
  41378 ****       128.0000 149.5000 138.0000 Du        
  41379 ****       128.0000 149.5000 138.2500 Du        
  41380 ****       128.0000 149.5000 138.5000 Du        
  41381 ****       128.0000 149.5000 138.7500 Du        
  41382 ****       128.0000 149.5000 139.0000 Du        
  41383 ****       128.0000 149.7500 135.7500 Du        
  41384 ****       128.0000 149.7500 136.0000 Du        
  41385 ****       128.0000 149.7500 136.2500 Du        
  41386 ****       128.0000 149.7500 136.5000 Du        
  41387 ****       128.0000 149.7500 136.7500 Du        
  41388 ****       128.0000 149.7500 137.0000 Du        
  41389 ****       128.0000 149.7500 137.2500 Du        
  41390 ****       128.0000 149.7500 137.5000 Du        
  41391 ****       128.0000 149.7500 137.7500 Du        
  41392 ****       128.0000 149.7500 138.0000 Du        
  41393 ****       128.0000 150.0000 135.7500 Du        
  41394 ****       128.0000 150.0000 136.0000 Du        
  41395 ****       128.0000 150.0000 136.2500 Du        
  41396 ****       128.0000 150.0000 136.5000 Du        
  41397 ****       128.0000 150.0000 136.7500 Du        
  41398 ****       128.0000 150.0000 137.0000 Du        
  41399 ****       128.0000 150.0000 137.2500 Du        
  41400 ****       128.0000 150.0000 137.5000 Du        
  41401 ****       128.0000 150.2500 135.7500 Du        
  41402 ****       128.0000 150.2500 136.0000 Du        
  41403 ****       128.0000 150.2500 136.2500 Du        
  41404 ****       128.0000 150.2500 136.5000 Du        
  41405 ****       128.0000 150.2500 136.7500 Du        
  41406 ****       128.0000 150.2500 137.0000 Du        
  41407 ****       128.0000 150.5000 135.5000 Du        
  41408 ****       128.0000 150.5000 135.7500 Du        
  41409 ****       128.0000 150.5000 136.0000 Du        
  41410 ****       128.0000 150.5000 136.2500 Du        
  41411 ****       128.0000 150.5000 136.5000 Du        
  41412 ****       128.0000 150.5000 136.7500 Du        
  41413 ****       128.0000 150.7500 135.5000 Du        
  41414 ****       128.0000 150.7500 135.7500 Du        
  41415 ****       128.0000 150.7500 136.0000 Du        
  41416 ****       128.0000 150.7500 136.2500 Du        
  41417 ****       128.0000 150.7500 136.5000 Du        
  41418 ****       128.0000 151.0000 135.5000 Du        
  41419 ****       128.0000 151.0000 135.7500 Du        
  41420 ****       128.0000 151.0000 136.0000 Du        
  41421 ****       128.0000 151.0000 136.2500 Du        
  41422 ****       128.0000 151.2500 135.2500 Du        
  41423 ****       128.0000 151.2500 135.5000 Du        
  41424 ****       128.0000 151.2500 135.7500 Du        
  41425 ****       128.0000 151.2500 136.0000 Du        
  41426 ****       128.0000 151.2500 136.2500 Du        
  41427 ****       128.0000 151.5000 135.5000 Du        
  41428 ****       128.0000 151.5000 135.7500 Du        
  41429 ****       128.0000 151.5000 136.0000 Du        
  41430 ****       128.0000 151.7500 135.2500 Du        
  41431 ****       128.0000 151.7500 135.5000 Du        
  41432 ****       128.0000 151.7500 135.7500 Du        
  41433 ****       128.0000 151.7500 136.0000 Du        
  41434 ****       128.0000 152.0000 135.0000 Du        
  41435 ****       128.0000 152.0000 135.2500 Du        
  41436 ****       128.0000 152.0000 135.5000 Du        
  41437 ****       128.0000 152.0000 135.7500 Du        
  41438 ****       128.0000 152.0000 136.0000 Du        
  41439 ****       128.0000 152.2500 135.0000 Du        
  41440 ****       128.0000 152.2500 135.2500 Du        
  41441 ****       128.0000 152.2500 135.5000 Du        
  41442 ****       128.0000 152.2500 135.7500 Du        
  41443 ****       128.0000 152.2500 136.0000 Du        
  41444 ****       128.0000 152.5000 135.5000 Du        
  41445 ****       128.0000 152.5000 135.7500 Du        
  41446 ****       128.0000 152.5000 136.0000 Du        
  41447 ****       128.0000 152.7500 135.5000 Du        
  41448 ****       128.0000 152.7500 135.7500 Du        
  41449 ****       128.0000 152.7500 136.0000 Du        
  41450 ****       128.0000 153.0000 135.0000 Du        
  41451 ****       128.0000 153.0000 135.2500 Du        
  41452 ****       128.0000 153.0000 135.5000 Du        
  41453 ****       128.0000 153.0000 135.7500 Du        
  41454 ****       128.0000 153.0000 136.0000 Du        
  41455 ****       128.0000 153.2500 135.2500 Du        
  41456 ****       128.0000 153.2500 135.5000 Du        
  41457 ****       128.0000 153.2500 135.7500 Du        
  41458 ****       128.0000 153.2500 136.0000 Du        
  41459 ****       128.0000 153.5000 135.5000 Du        
  41460 ****       128.0000 153.5000 135.7500 Du        
  41461 ****       128.0000 155.2500 126.0000 Du        
  41462 ****       128.0000 155.2500 126.2500 Du        
  41463 ****       128.0000 155.5000 125.7500 Du        
  41464 ****       128.0000 155.5000 126.0000 Du        
  41465 ****       128.0000 155.5000 126.2500 Du        
  41466 ****       128.0000 155.5000 126.5000 Du        
  41467 ****       128.0000 155.5000 126.7500 Du        
  41468 ****       128.0000 155.5000 127.0000 Du        
  41469 ****       128.0000 155.5000 127.2500 Du        
  41470 ****       128.0000 155.5000 129.7500 Du        
  41471 ****       128.0000 155.5000 130.0000 Du        
  41472 ****       128.0000 155.5000 130.2500 Du        
  41473 ****       128.0000 155.5000 130.5000 Du        
  41474 ****       128.0000 155.5000 130.7500 Du        
  41475 ****       128.0000 155.7500 125.2500 Du        
  41476 ****       128.0000 155.7500 125.5000 Du        
  41477 ****       128.0000 155.7500 125.7500 Du        
  41478 ****       128.0000 155.7500 126.0000 Du        
  41479 ****       128.0000 155.7500 126.2500 Du        
  41480 ****       128.0000 155.7500 126.5000 Du        
  41481 ****       128.0000 155.7500 126.7500 Du        
  41482 ****       128.0000 155.7500 127.0000 Du        
  41483 ****       128.0000 155.7500 129.7500 Du        
  41484 ****       128.0000 155.7500 130.0000 Du        
  41485 ****       128.0000 155.7500 130.2500 Du        
  41486 ****       128.0000 155.7500 130.5000 Du        
  41487 ****       128.0000 155.7500 130.7500 Du        
  41488 ****       128.0000 155.7500 131.0000 Du        
  41489 ****       128.0000 156.0000 125.0000 Du        
  41490 ****       128.0000 156.0000 125.2500 Du        
  41491 ****       128.0000 156.0000 125.5000 Du        
  41492 ****       128.0000 156.0000 125.7500 Du        
  41493 ****       128.0000 156.0000 126.0000 Du        
  41494 ****       128.0000 156.0000 126.2500 Du        
  41495 ****       128.0000 156.0000 126.5000 Du        
  41496 ****       128.0000 156.0000 130.7500 Du        
  41497 ****       128.0000 156.2500 125.0000 Du        
  41498 ****       128.0000 156.2500 125.2500 Du        
  41499 ****       128.0000 156.2500 125.5000 Du        
  41500 ****       128.0000 156.2500 125.7500 Du        
  41501 ****       128.0000 156.2500 126.0000 Du        
  41502 ****       128.0000 156.2500 126.2500 Du        
  41503 ****       128.0000 156.5000 124.7500 Du        
  41504 ****       128.0000 156.5000 125.0000 Du        
  41505 ****       128.0000 156.5000 125.2500 Du        
  41506 ****       128.0000 156.5000 125.5000 Du        
  41507 ****       128.0000 156.5000 125.7500 Du        
  41508 ****       128.0000 156.5000 126.0000 Du        
  41509 ****       128.0000 156.7500 115.7500 Du        
  41510 ****       128.0000 156.7500 116.0000 Du        
  41511 ****       128.0000 156.7500 116.2500 Du        
  41512 ****       128.0000 156.7500 116.5000 Du        
  41513 ****       128.0000 156.7500 116.7500 Du        
  41514 ****       128.0000 156.7500 124.7500 Du        
  41515 ****       128.0000 156.7500 125.0000 Du        
  41516 ****       128.0000 156.7500 125.2500 Du        
  41517 ****       128.0000 156.7500 125.5000 Du        
  41518 ****       128.0000 156.7500 125.7500 Du        
  41519 ****       128.0000 157.0000 115.5000 Du        
  41520 ****       128.0000 157.0000 115.7500 Du        
  41521 ****       128.0000 157.0000 116.0000 Du        
  41522 ****       128.0000 157.0000 116.2500 Du        
  41523 ****       128.0000 157.0000 116.5000 Du        
  41524 ****       128.0000 157.0000 116.7500 Du        
  41525 ****       128.0000 157.0000 125.0000 Du        
  41526 ****       128.0000 157.0000 125.2500 Du        
  41527 ****       128.0000 157.2500 115.5000 Du        
  41528 ****       128.0000 157.2500 115.7500 Du        
  41529 ****       128.0000 157.2500 116.0000 Du        
  41530 ****       128.0000 157.2500 116.2500 Du        
  41531 ****       128.0000 157.2500 116.5000 Du        
  41532 ****       128.0000 157.5000 115.2500 Du        
  41533 ****       128.0000 157.5000 115.5000 Du        
  41534 ****       128.0000 157.5000 115.7500 Du        
  41535 ****       128.0000 157.5000 116.0000 Du        
  41536 ****       128.0000 157.5000 116.2500 Du        
  41537 ****       128.0000 157.5000 134.0000 Du        
  41538 ****       128.0000 157.7500 115.2500 Du        
  41539 ****       128.0000 157.7500 115.5000 Du        
  41540 ****       128.0000 157.7500 115.7500 Du        
  41541 ****       128.0000 157.7500 116.0000 Du        
  41542 ****       128.0000 157.7500 133.7500 Du        
  41543 ****       128.0000 157.7500 134.0000 Du        
  41544 ****       128.0000 158.0000 115.2500 Du        
  41545 ****       128.0000 158.0000 115.5000 Du        
  41546 ****       128.0000 158.0000 115.7500 Du        
  41547 ****       128.0000 158.0000 116.0000 Du        
  41548 ****       128.0000 158.0000 133.5000 Du        
  41549 ****       128.0000 158.0000 133.7500 Du        
  41550 ****       128.0000 158.2500 115.2500 Du        
  41551 ****       128.0000 158.2500 115.5000 Du        
  41552 ****       128.0000 158.2500 115.7500 Du        
  41553 ****       128.2500 136.0000 144.2500 Du        
  41554 ****       128.2500 136.0000 144.5000 Du        
  41555 ****       128.2500 136.0000 144.7500 Du        
  41556 ****       128.2500 136.0000 145.0000 Du        
  41557 ****       128.2500 136.2500 144.5000 Du        
  41558 ****       128.2500 136.2500 144.7500 Du        
  41559 ****       128.2500 136.2500 145.0000 Du        
  41560 ****       128.2500 136.5000 144.5000 Du        
  41561 ****       128.2500 136.5000 144.7500 Du        
  41562 ****       128.2500 136.5000 145.0000 Du        
  41563 ****       128.2500 136.5000 145.2500 Du        
  41564 ****       128.2500 136.5000 145.5000 Du        
  41565 ****       128.2500 136.7500 144.5000 Du        
  41566 ****       128.2500 136.7500 144.7500 Du        
  41567 ****       128.2500 136.7500 145.0000 Du        
  41568 ****       128.2500 136.7500 145.2500 Du        
  41569 ****       128.2500 136.7500 145.5000 Du        
  41570 ****       128.2500 137.0000 144.5000 Du        
  41571 ****       128.2500 137.0000 144.7500 Du        
  41572 ****       128.2500 137.0000 145.0000 Du        
  41573 ****       128.2500 137.0000 145.2500 Du        
  41574 ****       128.2500 137.0000 145.5000 Du        
  41575 ****       128.2500 137.0000 145.7500 Du        
  41576 ****       128.2500 137.0000 146.0000 Du        
  41577 ****       128.2500 137.2500 144.5000 Du        
  41578 ****       128.2500 137.2500 144.7500 Du        
  41579 ****       128.2500 137.2500 145.0000 Du        
  41580 ****       128.2500 137.2500 145.2500 Du        
  41581 ****       128.2500 137.2500 145.5000 Du        
  41582 ****       128.2500 137.2500 145.7500 Du        
  41583 ****       128.2500 137.2500 146.0000 Du        
  41584 ****       128.2500 137.5000 123.7500 Du        
  41585 ****       128.2500 137.5000 124.0000 Du        
  41586 ****       128.2500 137.5000 144.7500 Du        
  41587 ****       128.2500 137.5000 145.0000 Du        
  41588 ****       128.2500 137.5000 145.2500 Du        
  41589 ****       128.2500 137.5000 145.5000 Du        
  41590 ****       128.2500 137.5000 145.7500 Du        
  41591 ****       128.2500 137.5000 146.0000 Du        
  41592 ****       128.2500 137.5000 146.2500 Du        
  41593 ****       128.2500 137.5000 146.5000 Du        
  41594 ****       128.2500 137.7500 123.7500 Du        
  41595 ****       128.2500 137.7500 144.7500 Du        
  41596 ****       128.2500 137.7500 145.0000 Du        
  41597 ****       128.2500 137.7500 145.2500 Du        
  41598 ****       128.2500 137.7500 145.5000 Du        
  41599 ****       128.2500 137.7500 145.7500 Du        
  41600 ****       128.2500 137.7500 146.0000 Du        
  41601 ****       128.2500 137.7500 146.2500 Du        
  41602 ****       128.2500 137.7500 146.5000 Du        
  41603 ****       128.2500 138.0000 144.7500 Du        
  41604 ****       128.2500 138.0000 145.0000 Du        
  41605 ****       128.2500 138.0000 145.2500 Du        
  41606 ****       128.2500 138.0000 145.5000 Du        
  41607 ****       128.2500 138.0000 145.7500 Du        
  41608 ****       128.2500 138.0000 146.0000 Du        
  41609 ****       128.2500 138.0000 146.2500 Du        
  41610 ****       128.2500 138.0000 146.5000 Du        
  41611 ****       128.2500 138.0000 146.7500 Du        
  41612 ****       128.2500 138.0000 147.0000 Du        
  41613 ****       128.2500 138.2500 144.7500 Du        
  41614 ****       128.2500 138.2500 145.0000 Du        
  41615 ****       128.2500 138.2500 145.2500 Du        
  41616 ****       128.2500 138.2500 145.5000 Du        
  41617 ****       128.2500 138.2500 145.7500 Du        
  41618 ****       128.2500 138.2500 146.0000 Du        
  41619 ****       128.2500 138.2500 146.2500 Du        
  41620 ****       128.2500 138.2500 146.5000 Du        
  41621 ****       128.2500 138.2500 146.7500 Du        
  41622 ****       128.2500 138.2500 147.0000 Du        
  41623 ****       128.2500 138.5000 119.2500 Du        
  41624 ****       128.2500 138.5000 119.5000 Du        
  41625 ****       128.2500 138.7500 119.2500 Du        
  41626 ****       128.2500 138.7500 119.5000 Du        
  41627 ****       128.2500 145.7500 121.5000 Du        
  41628 ****       128.2500 145.7500 121.7500 Du        
  41629 ****       128.2500 146.0000 121.5000 Du        
  41630 ****       128.2500 146.0000 121.7500 Du        
  41631 ****       128.2500 146.0000 122.0000 Du        
  41632 ****       128.2500 146.0000 122.2500 Du        
  41633 ****       128.2500 146.2500 121.7500 Du        
  41634 ****       128.2500 146.2500 122.0000 Du        
  41635 ****       128.2500 146.2500 122.2500 Du        
  41636 ****       128.2500 146.2500 122.5000 Du        
  41637 ****       128.2500 146.2500 122.7500 Du        
  41638 ****       128.2500 146.2500 123.0000 Du        
  41639 ****       128.2500 146.5000 122.2500 Du        
  41640 ****       128.2500 146.5000 122.5000 Du        
  41641 ****       128.2500 146.7500 122.7500 Du        
  41642 ****       128.2500 149.2500 136.2500 Du        
  41643 ****       128.2500 149.5000 136.0000 Du        
  41644 ****       128.2500 149.5000 136.2500 Du        
  41645 ****       128.2500 149.5000 136.5000 Du        
  41646 ****       128.2500 149.5000 136.7500 Du        
  41647 ****       128.2500 149.5000 137.0000 Du        
  41648 ****       128.2500 149.5000 137.2500 Du        
  41649 ****       128.2500 149.5000 137.5000 Du        
  41650 ****       128.2500 149.7500 135.7500 Du        
  41651 ****       128.2500 149.7500 136.0000 Du        
  41652 ****       128.2500 149.7500 136.2500 Du        
  41653 ****       128.2500 149.7500 136.5000 Du        
  41654 ****       128.2500 149.7500 136.7500 Du        
  41655 ****       128.2500 149.7500 137.0000 Du        
  41656 ****       128.2500 149.7500 137.2500 Du        
  41657 ****       128.2500 149.7500 137.5000 Du        
  41658 ****       128.2500 150.0000 135.7500 Du        
  41659 ****       128.2500 150.0000 136.0000 Du        
  41660 ****       128.2500 150.0000 136.2500 Du        
  41661 ****       128.2500 150.0000 136.5000 Du        
  41662 ****       128.2500 150.0000 136.7500 Du        
  41663 ****       128.2500 150.0000 137.0000 Du        
  41664 ****       128.2500 150.0000 137.2500 Du        
  41665 ****       128.2500 150.2500 135.7500 Du        
  41666 ****       128.2500 150.2500 136.0000 Du        
  41667 ****       128.2500 150.2500 136.2500 Du        
  41668 ****       128.2500 150.2500 136.5000 Du        
  41669 ****       128.2500 150.2500 136.7500 Du        
  41670 ****       128.2500 150.2500 137.0000 Du        
  41671 ****       128.2500 150.5000 135.7500 Du        
  41672 ****       128.2500 150.5000 136.0000 Du        
  41673 ****       128.2500 150.5000 136.2500 Du        
  41674 ****       128.2500 150.5000 136.5000 Du        
  41675 ****       128.2500 150.5000 136.7500 Du        
  41676 ****       128.2500 150.7500 135.5000 Du        
  41677 ****       128.2500 150.7500 135.7500 Du        
  41678 ****       128.2500 150.7500 136.0000 Du        
  41679 ****       128.2500 150.7500 136.2500 Du        
  41680 ****       128.2500 150.7500 136.5000 Du        
  41681 ****       128.2500 151.0000 135.5000 Du        
  41682 ****       128.2500 151.0000 135.7500 Du        
  41683 ****       128.2500 151.0000 136.0000 Du        
  41684 ****       128.2500 151.0000 136.2500 Du        
  41685 ****       128.2500 151.2500 135.2500 Du        
  41686 ****       128.2500 151.2500 135.5000 Du        
  41687 ****       128.2500 151.2500 135.7500 Du        
  41688 ****       128.2500 151.2500 136.0000 Du        
  41689 ****       128.2500 151.5000 135.2500 Du        
  41690 ****       128.2500 151.5000 135.5000 Du        
  41691 ****       128.2500 151.5000 135.7500 Du        
  41692 ****       128.2500 151.5000 136.0000 Du        
  41693 ****       128.2500 151.7500 135.0000 Du        
  41694 ****       128.2500 151.7500 135.2500 Du        
  41695 ****       128.2500 151.7500 135.5000 Du        
  41696 ****       128.2500 151.7500 135.7500 Du        
  41697 ****       128.2500 151.7500 136.0000 Du        
  41698 ****       128.2500 152.0000 134.7500 Du        
  41699 ****       128.2500 152.0000 135.0000 Du        
  41700 ****       128.2500 152.0000 135.2500 Du        
  41701 ****       128.2500 152.0000 135.5000 Du        
  41702 ****       128.2500 152.0000 135.7500 Du        
  41703 ****       128.2500 152.0000 136.0000 Du        
  41704 ****       128.2500 152.2500 134.7500 Du        
  41705 ****       128.2500 152.2500 135.0000 Du        
  41706 ****       128.2500 152.2500 135.2500 Du        
  41707 ****       128.2500 152.2500 135.5000 Du        
  41708 ****       128.2500 152.2500 135.7500 Du        
  41709 ****       128.2500 152.2500 136.0000 Du        
  41710 ****       128.2500 152.5000 135.2500 Du        
  41711 ****       128.2500 152.5000 135.5000 Du        
  41712 ****       128.2500 152.5000 135.7500 Du        
  41713 ****       128.2500 152.5000 136.0000 Du        
  41714 ****       128.2500 152.7500 135.2500 Du        
  41715 ****       128.2500 152.7500 135.5000 Du        
  41716 ****       128.2500 152.7500 135.7500 Du        
  41717 ****       128.2500 152.7500 136.0000 Du        
  41718 ****       128.2500 153.0000 135.0000 Du        
  41719 ****       128.2500 153.0000 135.2500 Du        
  41720 ****       128.2500 153.0000 135.5000 Du        
  41721 ****       128.2500 153.0000 135.7500 Du        
  41722 ****       128.2500 153.0000 136.0000 Du        
  41723 ****       128.2500 153.2500 135.0000 Du        
  41724 ****       128.2500 153.2500 135.2500 Du        
  41725 ****       128.2500 153.2500 135.5000 Du        
  41726 ****       128.2500 153.2500 135.7500 Du        
  41727 ****       128.2500 153.2500 136.0000 Du        
  41728 ****       128.2500 153.5000 135.5000 Du        
  41729 ****       128.2500 153.5000 135.7500 Du        
  41730 ****       128.2500 155.2500 126.0000 Du        
  41731 ****       128.2500 155.2500 126.2500 Du        
  41732 ****       128.2500 155.5000 125.7500 Du        
  41733 ****       128.2500 155.5000 126.0000 Du        
  41734 ****       128.2500 155.5000 126.2500 Du        
  41735 ****       128.2500 155.5000 126.5000 Du        
  41736 ****       128.2500 155.5000 126.7500 Du        
  41737 ****       128.2500 155.5000 127.0000 Du        
  41738 ****       128.2500 155.5000 129.5000 Du        
  41739 ****       128.2500 155.5000 129.7500 Du        
  41740 ****       128.2500 155.5000 130.0000 Du        
  41741 ****       128.2500 155.5000 130.2500 Du        
  41742 ****       128.2500 155.5000 130.5000 Du        
  41743 ****       128.2500 155.5000 130.7500 Du        
  41744 ****       128.2500 155.7500 125.2500 Du        
  41745 ****       128.2500 155.7500 125.5000 Du        
  41746 ****       128.2500 155.7500 125.7500 Du        
  41747 ****       128.2500 155.7500 126.0000 Du        
  41748 ****       128.2500 155.7500 126.2500 Du        
  41749 ****       128.2500 155.7500 126.5000 Du        
  41750 ****       128.2500 155.7500 126.7500 Du        
  41751 ****       128.2500 155.7500 127.0000 Du        
  41752 ****       128.2500 155.7500 129.5000 Du        
  41753 ****       128.2500 155.7500 129.7500 Du        
  41754 ****       128.2500 155.7500 130.0000 Du        
  41755 ****       128.2500 155.7500 130.2500 Du        
  41756 ****       128.2500 155.7500 130.5000 Du        
  41757 ****       128.2500 156.0000 125.0000 Du        
  41758 ****       128.2500 156.0000 125.2500 Du        
  41759 ****       128.2500 156.0000 125.5000 Du        
  41760 ****       128.2500 156.0000 125.7500 Du        
  41761 ****       128.2500 156.0000 126.0000 Du        
  41762 ****       128.2500 156.0000 126.2500 Du        
  41763 ****       128.2500 156.0000 126.5000 Du        
  41764 ****       128.2500 156.2500 125.0000 Du        
  41765 ****       128.2500 156.2500 125.2500 Du        
  41766 ****       128.2500 156.2500 125.5000 Du        
  41767 ****       128.2500 156.2500 125.7500 Du        
  41768 ****       128.2500 156.2500 126.0000 Du        
  41769 ****       128.2500 156.2500 126.2500 Du        
  41770 ****       128.2500 156.5000 125.0000 Du        
  41771 ****       128.2500 156.5000 125.2500 Du        
  41772 ****       128.2500 156.5000 125.5000 Du        
  41773 ****       128.2500 156.5000 125.7500 Du        
  41774 ****       128.2500 156.7500 116.0000 Du        
  41775 ****       128.2500 156.7500 116.2500 Du        
  41776 ****       128.2500 156.7500 116.5000 Du        
  41777 ****       128.2500 156.7500 125.2500 Du        
  41778 ****       128.2500 156.7500 125.5000 Du        
  41779 ****       128.2500 157.0000 115.5000 Du        
  41780 ****       128.2500 157.0000 115.7500 Du        
  41781 ****       128.2500 157.0000 116.0000 Du        
  41782 ****       128.2500 157.0000 116.2500 Du        
  41783 ****       128.2500 157.0000 116.5000 Du        
  41784 ****       128.2500 157.0000 116.7500 Du        
  41785 ****       128.2500 157.2500 115.5000 Du        
  41786 ****       128.2500 157.2500 115.7500 Du        
  41787 ****       128.2500 157.2500 116.0000 Du        
  41788 ****       128.2500 157.2500 116.2500 Du        
  41789 ****       128.2500 157.2500 116.5000 Du        
  41790 ****       128.2500 157.5000 115.2500 Du        
  41791 ****       128.2500 157.5000 115.5000 Du        
  41792 ****       128.2500 157.5000 115.7500 Du        
  41793 ****       128.2500 157.5000 116.0000 Du        
  41794 ****       128.2500 157.5000 116.2500 Du        
  41795 ****       128.2500 157.7500 115.2500 Du        
  41796 ****       128.2500 157.7500 115.5000 Du        
  41797 ****       128.2500 157.7500 115.7500 Du        
  41798 ****       128.2500 157.7500 116.0000 Du        
  41799 ****       128.2500 157.7500 116.2500 Du        
  41800 ****       128.2500 158.0000 115.2500 Du        
  41801 ****       128.2500 158.0000 115.5000 Du        
  41802 ****       128.2500 158.0000 115.7500 Du        
  41803 ****       128.2500 158.0000 116.0000 Du        
  41804 ****       128.2500 158.2500 115.0000 Du        
  41805 ****       128.2500 158.2500 115.2500 Du        
  41806 ****       128.2500 158.2500 115.5000 Du        
  41807 ****       128.2500 158.2500 115.7500 Du        
  41808 ****       128.2500 158.2500 116.0000 Du        
  41809 ****       128.2500 158.7500 115.5000 Du        
  41810 ****       128.5000 136.0000 144.2500 Du        
  41811 ****       128.5000 136.0000 144.5000 Du        
  41812 ****       128.5000 136.0000 144.7500 Du        
  41813 ****       128.5000 136.0000 145.0000 Du        
  41814 ****       128.5000 136.2500 144.2500 Du        
  41815 ****       128.5000 136.2500 144.5000 Du        
  41816 ****       128.5000 136.2500 144.7500 Du        
  41817 ****       128.5000 136.2500 145.0000 Du        
  41818 ****       128.5000 136.5000 144.5000 Du        
  41819 ****       128.5000 136.5000 144.7500 Du        
  41820 ****       128.5000 136.5000 145.0000 Du        
  41821 ****       128.5000 136.5000 145.2500 Du        
  41822 ****       128.5000 136.5000 145.5000 Du        
  41823 ****       128.5000 136.7500 144.5000 Du        
  41824 ****       128.5000 136.7500 144.7500 Du        
  41825 ****       128.5000 136.7500 145.0000 Du        
  41826 ****       128.5000 136.7500 145.2500 Du        
  41827 ****       128.5000 136.7500 145.5000 Du        
  41828 ****       128.5000 137.0000 123.5000 Du        
  41829 ****       128.5000 137.0000 123.7500 Du        
  41830 ****       128.5000 137.0000 144.5000 Du        
  41831 ****       128.5000 137.0000 144.7500 Du        
  41832 ****       128.5000 137.0000 145.0000 Du        
  41833 ****       128.5000 137.0000 145.2500 Du        
  41834 ****       128.5000 137.0000 145.5000 Du        
  41835 ****       128.5000 137.0000 145.7500 Du        
  41836 ****       128.5000 137.0000 146.0000 Du        
  41837 ****       128.5000 137.2500 123.5000 Du        
  41838 ****       128.5000 137.2500 123.7500 Du        
  41839 ****       128.5000 137.2500 144.5000 Du        
  41840 ****       128.5000 137.2500 144.7500 Du        
  41841 ****       128.5000 137.2500 145.0000 Du        
  41842 ****       128.5000 137.2500 145.2500 Du        
  41843 ****       128.5000 137.2500 145.5000 Du        
  41844 ****       128.5000 137.2500 145.7500 Du        
  41845 ****       128.5000 137.2500 146.0000 Du        
  41846 ****       128.5000 137.5000 123.5000 Du        
  41847 ****       128.5000 137.5000 123.7500 Du        
  41848 ****       128.5000 137.5000 124.0000 Du        
  41849 ****       128.5000 137.5000 144.5000 Du        
  41850 ****       128.5000 137.5000 144.7500 Du        
  41851 ****       128.5000 137.5000 145.0000 Du        
  41852 ****       128.5000 137.5000 145.2500 Du        
  41853 ****       128.5000 137.5000 145.5000 Du        
  41854 ****       128.5000 137.5000 145.7500 Du        
  41855 ****       128.5000 137.5000 146.0000 Du        
  41856 ****       128.5000 137.5000 146.2500 Du        
  41857 ****       128.5000 137.5000 146.5000 Du        
  41858 ****       128.5000 137.7500 123.5000 Du        
  41859 ****       128.5000 137.7500 123.7500 Du        
  41860 ****       128.5000 137.7500 124.0000 Du        
  41861 ****       128.5000 137.7500 144.7500 Du        
  41862 ****       128.5000 137.7500 145.0000 Du        
  41863 ****       128.5000 137.7500 145.2500 Du        
  41864 ****       128.5000 137.7500 145.5000 Du        
  41865 ****       128.5000 137.7500 145.7500 Du        
  41866 ****       128.5000 137.7500 146.0000 Du        
  41867 ****       128.5000 137.7500 146.2500 Du        
  41868 ****       128.5000 137.7500 146.5000 Du        
  41869 ****       128.5000 138.0000 145.0000 Du        
  41870 ****       128.5000 146.2500 122.0000 Du        
  41871 ****       128.5000 146.2500 122.2500 Du        
  41872 ****       128.5000 146.2500 122.5000 Du        
  41873 ****       128.5000 146.2500 122.7500 Du        
  41874 ****       128.5000 146.5000 122.2500 Du        
  41875 ****       128.5000 149.2500 136.2500 Du        
  41876 ****       128.5000 149.2500 136.5000 Du        
  41877 ****       128.5000 149.5000 136.0000 Du        
  41878 ****       128.5000 149.5000 136.2500 Du        
  41879 ****       128.5000 149.5000 136.5000 Du        
  41880 ****       128.5000 149.5000 136.7500 Du        
  41881 ****       128.5000 149.5000 137.0000 Du        
  41882 ****       128.5000 149.5000 137.2500 Du        
  41883 ****       128.5000 149.7500 136.0000 Du        
  41884 ****       128.5000 149.7500 136.2500 Du        
  41885 ****       128.5000 149.7500 136.5000 Du        
  41886 ****       128.5000 149.7500 136.7500 Du        
  41887 ****       128.5000 149.7500 137.0000 Du        
  41888 ****       128.5000 149.7500 137.2500 Du        
  41889 ****       128.5000 150.0000 136.0000 Du        
  41890 ****       128.5000 150.0000 136.2500 Du        
  41891 ****       128.5000 150.0000 136.5000 Du        
  41892 ****       128.5000 150.0000 136.7500 Du        
  41893 ****       128.5000 150.0000 137.0000 Du        
  41894 ****       128.5000 150.2500 135.7500 Du        
  41895 ****       128.5000 150.2500 136.0000 Du        
  41896 ****       128.5000 150.2500 136.2500 Du        
  41897 ****       128.5000 150.2500 136.5000 Du        
  41898 ****       128.5000 150.2500 136.7500 Du        
  41899 ****       128.5000 150.5000 135.7500 Du        
  41900 ****       128.5000 150.5000 136.0000 Du        
  41901 ****       128.5000 150.5000 136.2500 Du        
  41902 ****       128.5000 150.5000 136.5000 Du        
  41903 ****       128.5000 150.7500 135.7500 Du        
  41904 ****       128.5000 150.7500 136.0000 Du        
  41905 ****       128.5000 150.7500 136.2500 Du        
  41906 ****       128.5000 151.0000 135.5000 Du        
  41907 ****       128.5000 151.0000 135.7500 Du        
  41908 ****       128.5000 151.0000 136.0000 Du        
  41909 ****       128.5000 151.0000 136.2500 Du        
  41910 ****       128.5000 151.2500 135.2500 Du        
  41911 ****       128.5000 151.2500 135.5000 Du        
  41912 ****       128.5000 151.2500 135.7500 Du        
  41913 ****       128.5000 151.2500 136.0000 Du        
  41914 ****       128.5000 151.5000 135.2500 Du        
  41915 ****       128.5000 151.5000 135.5000 Du        
  41916 ****       128.5000 151.5000 135.7500 Du        
  41917 ****       128.5000 151.5000 136.0000 Du        
  41918 ****       128.5000 151.7500 135.0000 Du        
  41919 ****       128.5000 151.7500 135.2500 Du        
  41920 ****       128.5000 151.7500 135.5000 Du        
  41921 ****       128.5000 151.7500 135.7500 Du        
  41922 ****       128.5000 151.7500 136.0000 Du        
  41923 ****       128.5000 152.0000 134.5000 Du        
  41924 ****       128.5000 152.0000 134.7500 Du        
  41925 ****       128.5000 152.0000 135.0000 Du        
  41926 ****       128.5000 152.0000 135.2500 Du        
  41927 ****       128.5000 152.0000 135.5000 Du        
  41928 ****       128.5000 152.0000 135.7500 Du        
  41929 ****       128.5000 152.0000 136.0000 Du        
  41930 ****       128.5000 152.2500 134.5000 Du        
  41931 ****       128.5000 152.2500 134.7500 Du        
  41932 ****       128.5000 152.2500 135.0000 Du        
  41933 ****       128.5000 152.2500 135.2500 Du        
  41934 ****       128.5000 152.2500 135.5000 Du        
  41935 ****       128.5000 152.2500 135.7500 Du        
  41936 ****       128.5000 152.2500 136.0000 Du        
  41937 ****       128.5000 152.5000 134.5000 Du        
  41938 ****       128.5000 152.5000 134.7500 Du        
  41939 ****       128.5000 152.5000 135.0000 Du        
  41940 ****       128.5000 152.5000 135.2500 Du        
  41941 ****       128.5000 152.5000 135.5000 Du        
  41942 ****       128.5000 152.5000 135.7500 Du        
  41943 ****       128.5000 152.5000 136.0000 Du        
  41944 ****       128.5000 152.7500 134.7500 Du        
  41945 ****       128.5000 152.7500 135.0000 Du        
  41946 ****       128.5000 152.7500 135.2500 Du        
  41947 ****       128.5000 152.7500 135.5000 Du        
  41948 ****       128.5000 152.7500 135.7500 Du        
  41949 ****       128.5000 152.7500 136.0000 Du        
  41950 ****       128.5000 153.0000 135.0000 Du        
  41951 ****       128.5000 153.0000 135.2500 Du        
  41952 ****       128.5000 153.0000 135.5000 Du        
  41953 ****       128.5000 153.0000 135.7500 Du        
  41954 ****       128.5000 153.0000 136.0000 Du        
  41955 ****       128.5000 153.2500 135.2500 Du        
  41956 ****       128.5000 153.2500 135.5000 Du        
  41957 ****       128.5000 153.2500 135.7500 Du        
  41958 ****       128.5000 153.2500 136.0000 Du        
  41959 ****       128.5000 153.5000 135.5000 Du        
  41960 ****       128.5000 153.5000 135.7500 Du        
  41961 ****       128.5000 153.5000 136.0000 Du        
  41962 ****       128.5000 155.5000 125.7500 Du        
  41963 ****       128.5000 155.5000 126.0000 Du        
  41964 ****       128.5000 155.5000 126.2500 Du        
  41965 ****       128.5000 155.5000 126.5000 Du        
  41966 ****       128.5000 155.5000 126.7500 Du        
  41967 ****       128.5000 155.5000 127.0000 Du        
  41968 ****       128.5000 155.5000 127.2500 Du        
  41969 ****       128.5000 155.5000 129.5000 Du        
  41970 ****       128.5000 155.5000 129.7500 Du        
  41971 ****       128.5000 155.5000 130.0000 Du        
  41972 ****       128.5000 155.5000 130.2500 Du        
  41973 ****       128.5000 155.7500 125.5000 Du        
  41974 ****       128.5000 155.7500 125.7500 Du        
  41975 ****       128.5000 155.7500 126.0000 Du        
  41976 ****       128.5000 155.7500 126.2500 Du        
  41977 ****       128.5000 155.7500 126.5000 Du        
  41978 ****       128.5000 155.7500 126.7500 Du        
  41979 ****       128.5000 155.7500 127.0000 Du        
  41980 ****       128.5000 155.7500 129.7500 Du        
  41981 ****       128.5000 155.7500 130.0000 Du        
  41982 ****       128.5000 155.7500 130.2500 Du        
  41983 ****       128.5000 156.0000 125.2500 Du        
  41984 ****       128.5000 156.0000 125.5000 Du        
  41985 ****       128.5000 156.0000 125.7500 Du        
  41986 ****       128.5000 156.0000 126.0000 Du        
  41987 ****       128.5000 156.0000 126.2500 Du        
  41988 ****       128.5000 156.0000 126.5000 Du        
  41989 ****       128.5000 156.2500 125.2500 Du        
  41990 ****       128.5000 156.2500 125.5000 Du        
  41991 ****       128.5000 156.2500 125.7500 Du        
  41992 ****       128.5000 156.2500 126.0000 Du        
  41993 ****       128.5000 156.2500 126.2500 Du        
  41994 ****       128.5000 156.5000 125.2500 Du        
  41995 ****       128.5000 156.5000 125.5000 Du        
  41996 ****       128.5000 156.5000 125.7500 Du        
  41997 ****       128.5000 156.7500 116.5000 Du        
  41998 ****       128.5000 157.0000 115.5000 Du        
  41999 ****       128.5000 157.0000 115.7500 Du        
  42000 ****       128.5000 157.0000 116.0000 Du        
  42001 ****       128.5000 157.0000 116.2500 Du        
  42002 ****       128.5000 157.0000 116.5000 Du        
  42003 ****       128.5000 157.0000 116.7500 Du        
  42004 ****       128.5000 157.2500 115.0000 Du        
  42005 ****       128.5000 157.2500 115.2500 Du        
  42006 ****       128.5000 157.2500 115.5000 Du        
  42007 ****       128.5000 157.2500 115.7500 Du        
  42008 ****       128.5000 157.2500 116.0000 Du        
  42009 ****       128.5000 157.2500 116.2500 Du        
  42010 ****       128.5000 157.2500 116.5000 Du        
  42011 ****       128.5000 157.5000 115.0000 Du        
  42012 ****       128.5000 157.5000 115.2500 Du        
  42013 ****       128.5000 157.5000 115.5000 Du        
  42014 ****       128.5000 157.5000 115.7500 Du        
  42015 ****       128.5000 157.5000 116.0000 Du        
  42016 ****       128.5000 157.5000 116.2500 Du        
  42017 ****       128.5000 157.5000 116.5000 Du        
  42018 ****       128.5000 157.7500 115.0000 Du        
  42019 ****       128.5000 157.7500 115.2500 Du        
  42020 ****       128.5000 157.7500 115.5000 Du        
  42021 ****       128.5000 157.7500 115.7500 Du        
  42022 ****       128.5000 157.7500 116.0000 Du        
  42023 ****       128.5000 157.7500 116.2500 Du        
  42024 ****       128.5000 158.0000 115.0000 Du        
  42025 ****       128.5000 158.0000 115.2500 Du        
  42026 ****       128.5000 158.0000 115.5000 Du        
  42027 ****       128.5000 158.0000 115.7500 Du        
  42028 ****       128.5000 158.0000 116.0000 Du        
  42029 ****       128.5000 158.2500 115.0000 Du        
  42030 ****       128.5000 158.2500 115.2500 Du        
  42031 ****       128.5000 158.2500 115.5000 Du        
  42032 ****       128.5000 158.2500 115.7500 Du        
  42033 ****       128.5000 158.2500 116.0000 Du        
  42034 ****       128.5000 158.5000 115.5000 Du        
  42035 ****       128.5000 158.5000 115.7500 Du        
  42036 ****       128.5000 158.7500 115.5000 Du        
  42037 ****       128.5000 158.7500 115.7500 Du        
  42038 ****       128.5000 159.0000 115.5000 Du        
  42039 ****       128.7500 136.0000 144.0000 Du        
  42040 ****       128.7500 136.0000 144.2500 Du        
  42041 ****       128.7500 136.0000 144.5000 Du        
  42042 ****       128.7500 136.0000 144.7500 Du        
  42043 ****       128.7500 136.0000 145.0000 Du        
  42044 ****       128.7500 136.2500 144.2500 Du        
  42045 ****       128.7500 136.2500 144.5000 Du        
  42046 ****       128.7500 136.2500 144.7500 Du        
  42047 ****       128.7500 136.2500 145.0000 Du        
  42048 ****       128.7500 136.5000 144.2500 Du        
  42049 ****       128.7500 136.5000 144.5000 Du        
  42050 ****       128.7500 136.5000 144.7500 Du        
  42051 ****       128.7500 136.5000 145.0000 Du        
  42052 ****       128.7500 136.5000 145.2500 Du        
  42053 ****       128.7500 136.5000 145.5000 Du        
  42054 ****       128.7500 136.7500 123.5000 Du        
  42055 ****       128.7500 136.7500 123.7500 Du        
  42056 ****       128.7500 136.7500 144.2500 Du        
  42057 ****       128.7500 136.7500 144.5000 Du        
  42058 ****       128.7500 136.7500 144.7500 Du        
  42059 ****       128.7500 136.7500 145.0000 Du        
  42060 ****       128.7500 136.7500 145.2500 Du        
  42061 ****       128.7500 136.7500 145.5000 Du        
  42062 ****       128.7500 137.0000 123.2500 Du        
  42063 ****       128.7500 137.0000 123.5000 Du        
  42064 ****       128.7500 137.0000 123.7500 Du        
  42065 ****       128.7500 137.0000 144.5000 Du        
  42066 ****       128.7500 137.0000 144.7500 Du        
  42067 ****       128.7500 137.0000 145.0000 Du        
  42068 ****       128.7500 137.0000 145.2500 Du        
  42069 ****       128.7500 137.0000 145.5000 Du        
  42070 ****       128.7500 137.0000 145.7500 Du        
  42071 ****       128.7500 137.0000 146.0000 Du        
  42072 ****       128.7500 137.2500 123.0000 Du        
  42073 ****       128.7500 137.2500 123.2500 Du        
  42074 ****       128.7500 137.2500 123.5000 Du        
  42075 ****       128.7500 137.2500 123.7500 Du        
  42076 ****       128.7500 137.2500 144.5000 Du        
  42077 ****       128.7500 137.2500 144.7500 Du        
  42078 ****       128.7500 137.2500 145.0000 Du        
  42079 ****       128.7500 137.2500 145.2500 Du        
  42080 ****       128.7500 137.2500 145.5000 Du        
  42081 ****       128.7500 137.2500 145.7500 Du        
  42082 ****       128.7500 137.2500 146.0000 Du        
  42083 ****       128.7500 137.5000 123.0000 Du        
  42084 ****       128.7500 137.5000 123.2500 Du        
  42085 ****       128.7500 137.5000 123.5000 Du        
  42086 ****       128.7500 137.5000 123.7500 Du        
  42087 ****       128.7500 137.5000 144.5000 Du        
  42088 ****       128.7500 137.5000 144.7500 Du        
  42089 ****       128.7500 137.5000 145.0000 Du        
  42090 ****       128.7500 137.5000 145.2500 Du        
  42091 ****       128.7500 137.5000 145.5000 Du        
  42092 ****       128.7500 137.7500 123.5000 Du        
  42093 ****       128.7500 137.7500 123.7500 Du        
  42094 ****       128.7500 145.7500 125.0000 Du        
  42095 ****       128.7500 145.7500 125.2500 Du        
  42096 ****       128.7500 145.7500 125.5000 Du        
  42097 ****       128.7500 145.7500 125.7500 Du        
  42098 ****       128.7500 146.0000 125.5000 Du        
  42099 ****       128.7500 146.0000 125.7500 Du        
  42100 ****       128.7500 146.0000 126.0000 Du        
  42101 ****       128.7500 146.0000 126.2500 Du        
  42102 ****       128.7500 146.2500 122.0000 Du        
  42103 ****       128.7500 146.2500 122.2500 Du        
  42104 ****       128.7500 146.5000 122.2500 Du        
  42105 ****       128.7500 146.7500 122.7500 Du        
  42106 ****       128.7500 146.7500 123.0000 Du        
  42107 ****       128.7500 147.0000 123.0000 Du        
  42108 ****       128.7500 149.5000 136.2500 Du        
  42109 ****       128.7500 149.5000 136.5000 Du        
  42110 ****       128.7500 149.5000 136.7500 Du        
  42111 ****       128.7500 149.5000 137.0000 Du        
  42112 ****       128.7500 149.7500 136.2500 Du        
  42113 ****       128.7500 149.7500 136.5000 Du        
  42114 ****       128.7500 149.7500 136.7500 Du        
  42115 ****       128.7500 149.7500 137.0000 Du        
  42116 ****       128.7500 150.0000 136.0000 Du        
  42117 ****       128.7500 150.0000 136.2500 Du        
  42118 ****       128.7500 150.0000 136.5000 Du        
  42119 ****       128.7500 150.0000 136.7500 Du        
  42120 ****       128.7500 150.2500 136.0000 Du        
  42121 ****       128.7500 150.2500 136.2500 Du        
  42122 ****       128.7500 150.2500 136.5000 Du        
  42123 ****       128.7500 150.5000 136.0000 Du        
  42124 ****       128.7500 150.5000 136.2500 Du        
  42125 ****       128.7500 150.7500 135.7500 Du        
  42126 ****       128.7500 150.7500 136.0000 Du        
  42127 ****       128.7500 150.7500 136.2500 Du        
  42128 ****       128.7500 151.0000 135.7500 Du        
  42129 ****       128.7500 151.0000 136.0000 Du        
  42130 ****       128.7500 151.2500 135.5000 Du        
  42131 ****       128.7500 151.2500 135.7500 Du        
  42132 ****       128.7500 151.2500 136.0000 Du        
  42133 ****       128.7500 151.5000 135.2500 Du        
  42134 ****       128.7500 151.5000 135.5000 Du        
  42135 ****       128.7500 151.5000 135.7500 Du        
  42136 ****       128.7500 151.5000 136.0000 Du        
  42137 ****       128.7500 151.7500 135.0000 Du        
  42138 ****       128.7500 151.7500 135.2500 Du        
  42139 ****       128.7500 151.7500 135.5000 Du        
  42140 ****       128.7500 151.7500 135.7500 Du        
  42141 ****       128.7500 151.7500 136.0000 Du        
  42142 ****       128.7500 152.0000 134.7500 Du        
  42143 ****       128.7500 152.0000 135.0000 Du        
  42144 ****       128.7500 152.0000 135.2500 Du        
  42145 ****       128.7500 152.0000 135.5000 Du        
  42146 ****       128.7500 152.0000 135.7500 Du        
  42147 ****       128.7500 152.0000 136.0000 Du        
  42148 ****       128.7500 152.2500 134.5000 Du        
  42149 ****       128.7500 152.2500 134.7500 Du        
  42150 ****       128.7500 152.2500 135.0000 Du        
  42151 ****       128.7500 152.2500 135.2500 Du        
  42152 ****       128.7500 152.2500 135.5000 Du        
  42153 ****       128.7500 152.2500 135.7500 Du        
  42154 ****       128.7500 152.2500 136.0000 Du        
  42155 ****       128.7500 152.5000 134.5000 Du        
  42156 ****       128.7500 152.5000 134.7500 Du        
  42157 ****       128.7500 152.5000 135.0000 Du        
  42158 ****       128.7500 152.5000 135.2500 Du        
  42159 ****       128.7500 152.5000 135.5000 Du        
  42160 ****       128.7500 152.5000 135.7500 Du        
  42161 ****       128.7500 152.7500 134.7500 Du        
  42162 ****       128.7500 152.7500 135.0000 Du        
  42163 ****       128.7500 152.7500 135.2500 Du        
  42164 ****       128.7500 152.7500 135.5000 Du        
  42165 ****       128.7500 152.7500 135.7500 Du        
  42166 ****       128.7500 152.7500 136.0000 Du        
  42167 ****       128.7500 153.0000 135.0000 Du        
  42168 ****       128.7500 153.0000 135.2500 Du        
  42169 ****       128.7500 153.0000 135.5000 Du        
  42170 ****       128.7500 153.0000 135.7500 Du        
  42171 ****       128.7500 153.2500 135.2500 Du        
  42172 ****       128.7500 153.2500 135.5000 Du        
  42173 ****       128.7500 153.2500 135.7500 Du        
  42174 ****       128.7500 155.2500 126.2500 Du        
  42175 ****       128.7500 155.2500 126.5000 Du        
  42176 ****       128.7500 155.5000 125.7500 Du        
  42177 ****       128.7500 155.5000 126.0000 Du        
  42178 ****       128.7500 155.5000 126.2500 Du        
  42179 ****       128.7500 155.5000 126.5000 Du        
  42180 ****       128.7500 155.5000 126.7500 Du        
  42181 ****       128.7500 155.5000 127.0000 Du        
  42182 ****       128.7500 155.5000 129.5000 Du        
  42183 ****       128.7500 155.5000 129.7500 Du        
  42184 ****       128.7500 155.5000 130.0000 Du        
  42185 ****       128.7500 155.7500 125.5000 Du        
  42186 ****       128.7500 155.7500 125.7500 Du        
  42187 ****       128.7500 155.7500 126.0000 Du        
  42188 ****       128.7500 155.7500 126.2500 Du        
  42189 ****       128.7500 155.7500 126.5000 Du        
  42190 ****       128.7500 155.7500 126.7500 Du        
  42191 ****       128.7500 155.7500 127.0000 Du        
  42192 ****       128.7500 155.7500 129.2500 Du        
  42193 ****       128.7500 155.7500 129.5000 Du        
  42194 ****       128.7500 155.7500 129.7500 Du        
  42195 ****       128.7500 155.7500 130.0000 Du        
  42196 ****       128.7500 156.0000 125.2500 Du        
  42197 ****       128.7500 156.0000 125.5000 Du        
  42198 ****       128.7500 156.0000 125.7500 Du        
  42199 ****       128.7500 156.0000 126.0000 Du        
  42200 ****       128.7500 156.0000 126.2500 Du        
  42201 ****       128.7500 156.0000 126.5000 Du        
  42202 ****       128.7500 156.2500 125.5000 Du        
  42203 ****       128.7500 156.2500 125.7500 Du        
  42204 ****       128.7500 156.2500 126.0000 Du        
  42205 ****       128.7500 156.2500 126.2500 Du        
  42206 ****       128.7500 156.5000 125.5000 Du        
  42207 ****       128.7500 156.5000 125.7500 Du        
  42208 ****       128.7500 157.0000 115.7500 Du        
  42209 ****       128.7500 157.0000 116.0000 Du        
  42210 ****       128.7500 157.0000 116.2500 Du        
  42211 ****       128.7500 157.0000 116.5000 Du        
  42212 ****       128.7500 157.0000 116.7500 Du        
  42213 ****       128.7500 157.2500 115.2500 Du        
  42214 ****       128.7500 157.2500 115.5000 Du        
  42215 ****       128.7500 157.2500 115.7500 Du        
  42216 ****       128.7500 157.2500 116.0000 Du        
  42217 ****       128.7500 157.2500 116.2500 Du        
  42218 ****       128.7500 157.2500 116.5000 Du        
  42219 ****       128.7500 157.2500 116.7500 Du        
  42220 ****       128.7500 157.5000 115.0000 Du        
  42221 ****       128.7500 157.5000 115.2500 Du        
  42222 ****       128.7500 157.5000 115.5000 Du        
  42223 ****       128.7500 157.5000 115.7500 Du        
  42224 ****       128.7500 157.5000 116.0000 Du        
  42225 ****       128.7500 157.5000 116.2500 Du        
  42226 ****       128.7500 157.5000 116.5000 Du        
  42227 ****       128.7500 157.7500 115.0000 Du        
  42228 ****       128.7500 157.7500 115.2500 Du        
  42229 ****       128.7500 157.7500 115.5000 Du        
  42230 ****       128.7500 157.7500 115.7500 Du        
  42231 ****       128.7500 157.7500 116.0000 Du        
  42232 ****       128.7500 157.7500 116.2500 Du        
  42233 ****       128.7500 157.7500 116.5000 Du        
  42234 ****       128.7500 158.0000 115.0000 Du        
  42235 ****       128.7500 158.0000 115.2500 Du        
  42236 ****       128.7500 158.0000 115.5000 Du        
  42237 ****       128.7500 158.0000 115.7500 Du        
  42238 ****       128.7500 158.0000 116.0000 Du        
  42239 ****       128.7500 158.0000 116.2500 Du        
  42240 ****       128.7500 158.2500 115.0000 Du        
  42241 ****       128.7500 158.2500 115.2500 Du        
  42242 ****       128.7500 158.2500 115.5000 Du        
  42243 ****       128.7500 158.2500 115.7500 Du        
  42244 ****       128.7500 158.2500 116.0000 Du        
  42245 ****       128.7500 158.5000 115.5000 Du        
  42246 ****       128.7500 158.5000 115.7500 Du        
  42247 ****       128.7500 158.5000 116.0000 Du        
  42248 ****       128.7500 158.7500 115.5000 Du        
  42249 ****       128.7500 158.7500 115.7500 Du        
  42250 ****       128.7500 159.0000 115.5000 Du        
  42251 ****       128.7500 159.0000 115.7500 Du        
  42252 ****       129.0000 136.0000 144.0000 Du        
  42253 ****       129.0000 136.0000 144.2500 Du        
  42254 ****       129.0000 136.0000 144.5000 Du        
  42255 ****       129.0000 136.2500 144.2500 Du        
  42256 ****       129.0000 136.2500 144.5000 Du        
  42257 ****       129.0000 136.2500 144.7500 Du        
  42258 ****       129.0000 136.5000 123.7500 Du        
  42259 ****       129.0000 136.5000 144.2500 Du        
  42260 ****       129.0000 136.5000 144.5000 Du        
  42261 ****       129.0000 136.5000 144.7500 Du        
  42262 ****       129.0000 136.5000 145.0000 Du        
  42263 ****       129.0000 136.5000 145.2500 Du        
  42264 ****       129.0000 136.7500 123.2500 Du        
  42265 ****       129.0000 136.7500 123.5000 Du        
  42266 ****       129.0000 136.7500 123.7500 Du        
  42267 ****       129.0000 136.7500 144.2500 Du        
  42268 ****       129.0000 136.7500 144.5000 Du        
  42269 ****       129.0000 136.7500 144.7500 Du        
  42270 ****       129.0000 136.7500 145.0000 Du        
  42271 ****       129.0000 136.7500 145.2500 Du        
  42272 ****       129.0000 136.7500 145.5000 Du        
  42273 ****       129.0000 137.0000 122.7500 Du        
  42274 ****       129.0000 137.0000 123.0000 Du        
  42275 ****       129.0000 137.0000 123.2500 Du        
  42276 ****       129.0000 137.0000 123.5000 Du        
  42277 ****       129.0000 137.0000 123.7500 Du        
  42278 ****       129.0000 137.0000 144.2500 Du        
  42279 ****       129.0000 137.0000 144.5000 Du        
  42280 ****       129.0000 137.0000 144.7500 Du        
  42281 ****       129.0000 137.0000 145.0000 Du        
  42282 ****       129.0000 137.0000 145.2500 Du        
  42283 ****       129.0000 137.0000 145.5000 Du        
  42284 ****       129.0000 137.2500 122.7500 Du        
  42285 ****       129.0000 137.2500 123.0000 Du        
  42286 ****       129.0000 137.2500 123.2500 Du        
  42287 ****       129.0000 137.2500 123.5000 Du        
  42288 ****       129.0000 137.2500 123.7500 Du        
  42289 ****       129.0000 137.2500 144.5000 Du        
  42290 ****       129.0000 137.2500 144.7500 Du        
  42291 ****       129.0000 137.2500 145.0000 Du        
  42292 ****       129.0000 137.2500 145.2500 Du        
  42293 ****       129.0000 137.5000 122.7500 Du        
  42294 ****       129.0000 137.5000 123.0000 Du        
  42295 ****       129.0000 137.5000 123.2500 Du        
  42296 ****       129.0000 137.5000 123.5000 Du        
  42297 ****       129.0000 137.5000 123.7500 Du        
  42298 ****       129.0000 144.0000 112.7500 Du        
  42299 ****       129.0000 144.2500 112.2500 Du        
  42300 ****       129.0000 144.2500 112.5000 Du        
  42301 ****       129.0000 144.2500 112.7500 Du        
  42302 ****       129.0000 145.5000 125.0000 Du        
  42303 ****       129.0000 145.7500 124.7500 Du        
  42304 ****       129.0000 145.7500 125.0000 Du        
  42305 ****       129.0000 145.7500 125.2500 Du        
  42306 ****       129.0000 145.7500 125.5000 Du        
  42307 ****       129.0000 145.7500 125.7500 Du        
  42308 ****       129.0000 145.7500 126.0000 Du        
  42309 ****       129.0000 146.0000 124.7500 Du        
  42310 ****       129.0000 146.0000 125.0000 Du        
  42311 ****       129.0000 146.0000 125.2500 Du        
  42312 ****       129.0000 146.0000 125.5000 Du        
  42313 ****       129.0000 146.0000 125.7500 Du        
  42314 ****       129.0000 146.0000 126.0000 Du        
  42315 ****       129.0000 146.0000 126.2500 Du        
  42316 ****       129.0000 146.2500 122.2500 Du        
  42317 ****       129.0000 146.2500 125.7500 Du        
  42318 ****       129.0000 146.7500 122.5000 Du        
  42319 ****       129.0000 146.7500 122.7500 Du        
  42320 ****       129.0000 147.0000 122.7500 Du        
  42321 ****       129.0000 149.5000 136.5000 Du        
  42322 ****       129.0000 149.5000 136.7500 Du        
  42323 ****       129.0000 149.7500 136.5000 Du        
  42324 ****       129.0000 150.0000 136.2500 Du        
  42325 ****       129.0000 150.0000 136.5000 Du        
  42326 ****       129.0000 150.2500 136.2500 Du        
  42327 ****       129.0000 151.2500 135.7500 Du        
  42328 ****       129.0000 151.5000 135.2500 Du        
  42329 ****       129.0000 151.5000 135.5000 Du        
  42330 ****       129.0000 151.5000 135.7500 Du        
  42331 ****       129.0000 151.7500 135.0000 Du        
  42332 ****       129.0000 151.7500 135.2500 Du        
  42333 ****       129.0000 151.7500 135.5000 Du        
  42334 ****       129.0000 151.7500 135.7500 Du        
  42335 ****       129.0000 152.0000 134.7500 Du        
  42336 ****       129.0000 152.0000 135.0000 Du        
  42337 ****       129.0000 152.0000 135.2500 Du        
  42338 ****       129.0000 152.0000 135.5000 Du        
  42339 ****       129.0000 152.0000 135.7500 Du        
  42340 ****       129.0000 152.2500 134.7500 Du        
  42341 ****       129.0000 152.2500 135.0000 Du        
  42342 ****       129.0000 152.2500 135.2500 Du        
  42343 ****       129.0000 152.2500 135.5000 Du        
  42344 ****       129.0000 152.2500 135.7500 Du        
  42345 ****       129.0000 152.5000 134.7500 Du        
  42346 ****       129.0000 152.5000 135.0000 Du        
  42347 ****       129.0000 152.5000 135.2500 Du        
  42348 ****       129.0000 152.5000 135.5000 Du        
  42349 ****       129.0000 152.5000 135.7500 Du        
  42350 ****       129.0000 152.7500 135.0000 Du        
  42351 ****       129.0000 152.7500 135.2500 Du        
  42352 ****       129.0000 152.7500 135.5000 Du        
  42353 ****       129.0000 152.7500 135.7500 Du        
  42354 ****       129.0000 153.0000 135.2500 Du        
  42355 ****       129.0000 153.0000 135.5000 Du        
  42356 ****       129.0000 153.0000 135.7500 Du        
  42357 ****       129.0000 155.2500 126.2500 Du        
  42358 ****       129.0000 155.2500 126.7500 Du        
  42359 ****       129.0000 155.5000 125.7500 Du        
  42360 ****       129.0000 155.5000 126.0000 Du        
  42361 ****       129.0000 155.5000 126.2500 Du        
  42362 ****       129.0000 155.5000 126.5000 Du        
  42363 ****       129.0000 155.5000 126.7500 Du        
  42364 ****       129.0000 155.5000 127.0000 Du        
  42365 ****       129.0000 155.5000 128.7500 Du        
  42366 ****       129.0000 155.5000 129.0000 Du        
  42367 ****       129.0000 155.5000 129.2500 Du        
  42368 ****       129.0000 155.5000 129.5000 Du        
  42369 ****       129.0000 155.5000 129.7500 Du        
  42370 ****       129.0000 155.7500 125.5000 Du        
  42371 ****       129.0000 155.7500 125.7500 Du        
  42372 ****       129.0000 155.7500 126.0000 Du        
  42373 ****       129.0000 155.7500 126.2500 Du        
  42374 ****       129.0000 155.7500 126.5000 Du        
  42375 ****       129.0000 155.7500 126.7500 Du        
  42376 ****       129.0000 155.7500 127.0000 Du        
  42377 ****       129.0000 155.7500 129.0000 Du        
  42378 ****       129.0000 155.7500 129.2500 Du        
  42379 ****       129.0000 155.7500 129.5000 Du        
  42380 ****       129.0000 155.7500 129.7500 Du        
  42381 ****       129.0000 156.0000 125.5000 Du        
  42382 ****       129.0000 156.0000 125.7500 Du        
  42383 ****       129.0000 156.0000 126.0000 Du        
  42384 ****       129.0000 156.0000 126.2500 Du        
  42385 ****       129.0000 156.0000 126.5000 Du        
  42386 ****       129.0000 156.2500 125.7500 Du        
  42387 ****       129.0000 156.2500 126.0000 Du        
  42388 ****       129.0000 156.2500 126.2500 Du        
  42389 ****       129.0000 156.5000 125.7500 Du        
  42390 ****       129.0000 157.0000 116.0000 Du        
  42391 ****       129.0000 157.0000 116.2500 Du        
  42392 ****       129.0000 157.0000 116.5000 Du        
  42393 ****       129.0000 157.0000 116.7500 Du        
  42394 ****       129.0000 157.2500 115.5000 Du        
  42395 ****       129.0000 157.2500 115.7500 Du        
  42396 ****       129.0000 157.2500 116.0000 Du        
  42397 ****       129.0000 157.2500 116.2500 Du        
  42398 ****       129.0000 157.2500 116.5000 Du        
  42399 ****       129.0000 157.5000 115.0000 Du        
  42400 ****       129.0000 157.5000 115.2500 Du        
  42401 ****       129.0000 157.5000 115.5000 Du        
  42402 ****       129.0000 157.5000 115.7500 Du        
  42403 ****       129.0000 157.5000 116.0000 Du        
  42404 ****       129.0000 157.5000 116.2500 Du        
  42405 ****       129.0000 157.5000 116.5000 Du        
  42406 ****       129.0000 157.7500 115.0000 Du        
  42407 ****       129.0000 157.7500 115.2500 Du        
  42408 ****       129.0000 157.7500 115.5000 Du        
  42409 ****       129.0000 157.7500 115.7500 Du        
  42410 ****       129.0000 157.7500 116.0000 Du        
  42411 ****       129.0000 157.7500 116.2500 Du        
  42412 ****       129.0000 157.7500 116.5000 Du        
  42413 ****       129.0000 158.0000 115.0000 Du        
  42414 ****       129.0000 158.0000 115.2500 Du        
  42415 ****       129.0000 158.0000 115.5000 Du        
  42416 ****       129.0000 158.0000 115.7500 Du        
  42417 ****       129.0000 158.0000 116.0000 Du        
  42418 ****       129.0000 158.0000 116.2500 Du        
  42419 ****       129.0000 158.2500 115.0000 Du        
  42420 ****       129.0000 158.2500 115.2500 Du        
  42421 ****       129.0000 158.2500 115.5000 Du        
  42422 ****       129.0000 158.2500 115.7500 Du        
  42423 ****       129.0000 158.2500 116.0000 Du        
  42424 ****       129.0000 158.2500 116.2500 Du        
  42425 ****       129.0000 158.5000 115.5000 Du        
  42426 ****       129.0000 158.5000 115.7500 Du        
  42427 ****       129.0000 158.5000 116.0000 Du        
  42428 ****       129.0000 158.7500 115.5000 Du        
  42429 ****       129.0000 158.7500 115.7500 Du        
  42430 ****       129.0000 158.7500 116.0000 Du        
  42431 ****       129.0000 159.0000 115.5000 Du        
  42432 ****       129.0000 159.0000 115.7500 Du        
  42433 ****       129.2500 136.5000 144.2500 Du        
  42434 ****       129.2500 136.5000 144.5000 Du        
  42435 ****       129.2500 136.7500 123.2500 Du        
  42436 ****       129.2500 136.7500 123.5000 Du        
  42437 ****       129.2500 136.7500 144.2500 Du        
  42438 ****       129.2500 136.7500 144.5000 Du        
  42439 ****       129.2500 136.7500 144.7500 Du        
  42440 ****       129.2500 136.7500 145.0000 Du        
  42441 ****       129.2500 137.0000 122.7500 Du        
  42442 ****       129.2500 137.0000 123.0000 Du        
  42443 ****       129.2500 137.0000 123.2500 Du        
  42444 ****       129.2500 137.0000 123.5000 Du        
  42445 ****       129.2500 137.0000 144.2500 Du        
  42446 ****       129.2500 137.0000 144.5000 Du        
  42447 ****       129.2500 137.0000 144.7500 Du        
  42448 ****       129.2500 137.0000 145.0000 Du        
  42449 ****       129.2500 137.2500 123.0000 Du        
  42450 ****       129.2500 137.2500 123.2500 Du        
  42451 ****       129.2500 137.2500 123.5000 Du        
  42452 ****       129.2500 137.5000 123.0000 Du        
  42453 ****       129.2500 137.5000 123.2500 Du        
  42454 ****       129.2500 137.5000 123.5000 Du        
  42455 ****       129.2500 144.0000 112.2500 Du        
  42456 ****       129.2500 144.0000 112.5000 Du        
  42457 ****       129.2500 144.0000 112.7500 Du        
  42458 ****       129.2500 144.2500 112.2500 Du        
  42459 ****       129.2500 144.2500 112.5000 Du        
  42460 ****       129.2500 144.2500 112.7500 Du        
  42461 ****       129.2500 144.5000 112.0000 Du        
  42462 ****       129.2500 144.5000 112.2500 Du        
  42463 ****       129.2500 145.0000 116.5000 Du        
  42464 ****       129.2500 145.5000 125.0000 Du        
  42465 ****       129.2500 145.5000 125.2500 Du        
  42466 ****       129.2500 145.7500 124.7500 Du        
  42467 ****       129.2500 145.7500 125.0000 Du        
  42468 ****       129.2500 145.7500 125.2500 Du        
  42469 ****       129.2500 145.7500 125.5000 Du        
  42470 ****       129.2500 145.7500 125.7500 Du        
  42471 ****       129.2500 145.7500 126.0000 Du        
  42472 ****       129.2500 146.0000 124.7500 Du        
  42473 ****       129.2500 146.0000 125.0000 Du        
  42474 ****       129.2500 146.0000 125.2500 Du        
  42475 ****       129.2500 146.0000 125.5000 Du        
  42476 ****       129.2500 146.0000 125.7500 Du        
  42477 ****       129.2500 146.0000 126.0000 Du        
  42478 ****       129.2500 146.0000 126.2500 Du        
  42479 ****       129.2500 146.2500 125.5000 Du        
  42480 ****       129.2500 146.2500 125.7500 Du        
  42481 ****       129.2500 146.2500 126.0000 Du        
  42482 ****       129.2500 146.2500 126.2500 Du        
  42483 ****       129.2500 146.7500 122.7500 Du        
  42484 ****       129.2500 147.0000 122.7500 Du        
  42485 ****       129.2500 151.7500 135.2500 Du        
  42486 ****       129.2500 151.7500 135.5000 Du        
  42487 ****       129.2500 152.0000 135.0000 Du        
  42488 ****       129.2500 152.0000 135.2500 Du        
  42489 ****       129.2500 152.0000 135.5000 Du        
  42490 ****       129.2500 152.0000 135.7500 Du        
  42491 ****       129.2500 152.2500 135.0000 Du        
  42492 ****       129.2500 152.2500 135.2500 Du        
  42493 ****       129.2500 152.2500 135.5000 Du        
  42494 ****       129.2500 152.2500 135.7500 Du        
  42495 ****       129.2500 152.5000 135.0000 Du        
  42496 ****       129.2500 152.5000 135.2500 Du        
  42497 ****       129.2500 152.5000 135.5000 Du        
  42498 ****       129.2500 152.7500 135.5000 Du        
  42499 ****       129.2500 155.2500 126.2500 Du        
  42500 ****       129.2500 155.5000 126.0000 Du        
  42501 ****       129.2500 155.5000 126.2500 Du        
  42502 ****       129.2500 155.5000 126.5000 Du        
  42503 ****       129.2500 155.5000 126.7500 Du        
  42504 ****       129.2500 155.5000 127.0000 Du        
  42505 ****       129.2500 155.5000 129.0000 Du        
  42506 ****       129.2500 155.5000 129.2500 Du        
  42507 ****       129.2500 155.5000 129.5000 Du        
  42508 ****       129.2500 155.7500 125.7500 Du        
  42509 ****       129.2500 155.7500 126.0000 Du        
  42510 ****       129.2500 155.7500 126.2500 Du        
  42511 ****       129.2500 155.7500 126.5000 Du        
  42512 ****       129.2500 155.7500 126.7500 Du        
  42513 ****       129.2500 155.7500 127.0000 Du        
  42514 ****       129.2500 155.7500 129.0000 Du        
  42515 ****       129.2500 155.7500 129.2500 Du        
  42516 ****       129.2500 155.7500 129.5000 Du        
  42517 ****       129.2500 156.0000 125.7500 Du        
  42518 ****       129.2500 156.0000 126.0000 Du        
  42519 ****       129.2500 156.0000 126.2500 Du        
  42520 ****       129.2500 156.0000 126.5000 Du        
  42521 ****       129.2500 156.2500 125.7500 Du        
  42522 ****       129.2500 156.2500 126.0000 Du        
  42523 ****       129.2500 156.2500 126.2500 Du        
  42524 ****       129.2500 157.0000 116.2500 Du        
  42525 ****       129.2500 157.0000 116.5000 Du        
  42526 ****       129.2500 157.0000 116.7500 Du        
  42527 ****       129.2500 157.2500 115.5000 Du        
  42528 ****       129.2500 157.2500 115.7500 Du        
  42529 ****       129.2500 157.2500 116.0000 Du        
  42530 ****       129.2500 157.2500 116.2500 Du        
  42531 ****       129.2500 157.2500 116.5000 Du        
  42532 ****       129.2500 157.5000 115.2500 Du        
  42533 ****       129.2500 157.5000 115.5000 Du        
  42534 ****       129.2500 157.5000 115.7500 Du        
  42535 ****       129.2500 157.5000 116.0000 Du        
  42536 ****       129.2500 157.5000 116.2500 Du        
  42537 ****       129.2500 157.5000 116.5000 Du        
  42538 ****       129.2500 157.7500 115.0000 Du        
  42539 ****       129.2500 157.7500 115.2500 Du        
  42540 ****       129.2500 157.7500 115.5000 Du        
  42541 ****       129.2500 157.7500 115.7500 Du        
  42542 ****       129.2500 157.7500 116.0000 Du        
  42543 ****       129.2500 157.7500 116.2500 Du        
  42544 ****       129.2500 157.7500 116.5000 Du        
  42545 ****       129.2500 158.0000 114.7500 Du        
  42546 ****       129.2500 158.0000 115.0000 Du        
  42547 ****       129.2500 158.0000 115.2500 Du        
  42548 ****       129.2500 158.0000 115.5000 Du        
  42549 ****       129.2500 158.0000 115.7500 Du        
  42550 ****       129.2500 158.0000 116.0000 Du        
  42551 ****       129.2500 158.0000 116.2500 Du        
  42552 ****       129.2500 158.0000 116.5000 Du        
  42553 ****       129.2500 158.2500 115.0000 Du        
  42554 ****       129.2500 158.2500 115.2500 Du        
  42555 ****       129.2500 158.2500 115.5000 Du        
  42556 ****       129.2500 158.2500 115.7500 Du        
  42557 ****       129.2500 158.2500 116.0000 Du        
  42558 ****       129.2500 158.2500 116.2500 Du        
  42559 ****       129.2500 158.5000 115.5000 Du        
  42560 ****       129.2500 158.5000 115.7500 Du        
  42561 ****       129.2500 158.5000 116.0000 Du        
  42562 ****       129.2500 158.5000 116.2500 Du        
  42563 ****       129.2500 158.7500 115.5000 Du        
  42564 ****       129.2500 158.7500 115.7500 Du        
  42565 ****       129.2500 158.7500 116.0000 Du        
  42566 ****       129.2500 159.0000 115.5000 Du        
  42567 ****       129.2500 159.0000 115.7500 Du        
  42568 ****       129.5000 136.5000 123.5000 Du        
  42569 ****       129.5000 136.7500 122.7500 Du        
  42570 ****       129.5000 136.7500 123.0000 Du        
  42571 ****       129.5000 136.7500 123.2500 Du        
  42572 ****       129.5000 136.7500 123.5000 Du        
  42573 ****       129.5000 137.0000 122.7500 Du        
  42574 ****       129.5000 137.0000 123.0000 Du        
  42575 ****       129.5000 137.0000 123.2500 Du        
  42576 ****       129.5000 137.0000 123.5000 Du        
  42577 ****       129.5000 137.2500 123.0000 Du        
  42578 ****       129.5000 137.2500 123.2500 Du        
  42579 ****       129.5000 137.2500 123.5000 Du        
  42580 ****       129.5000 144.0000 112.5000 Du        
  42581 ****       129.5000 144.0000 112.7500 Du        
  42582 ****       129.5000 144.2500 112.2500 Du        
  42583 ****       129.5000 144.2500 112.5000 Du        
  42584 ****       129.5000 145.0000 116.2500 Du        
  42585 ****       129.5000 145.0000 116.5000 Du        
  42586 ****       129.5000 145.0000 116.7500 Du        
  42587 ****       129.5000 145.0000 117.0000 Du        
  42588 ****       129.5000 145.0000 117.2500 Du        
  42589 ****       129.5000 145.0000 117.5000 Du        
  42590 ****       129.5000 145.2500 116.5000 Du        
  42591 ****       129.5000 145.2500 116.7500 Du        
  42592 ****       129.5000 145.2500 117.0000 Du        
  42593 ****       129.5000 145.5000 125.5000 Du        
  42594 ****       129.5000 145.7500 125.0000 Du        
  42595 ****       129.5000 145.7500 125.2500 Du        
  42596 ****       129.5000 145.7500 125.5000 Du        
  42597 ****       129.5000 145.7500 125.7500 Du        
  42598 ****       129.5000 145.7500 126.0000 Du        
  42599 ****       129.5000 146.0000 124.7500 Du        
  42600 ****       129.5000 146.0000 125.0000 Du        
  42601 ****       129.5000 146.0000 125.2500 Du        
  42602 ****       129.5000 146.0000 125.5000 Du        
  42603 ****       129.5000 146.0000 125.7500 Du        
  42604 ****       129.5000 146.0000 126.0000 Du        
  42605 ****       129.5000 146.0000 126.2500 Du        
  42606 ****       129.5000 146.2500 125.0000 Du        
  42607 ****       129.5000 146.2500 125.5000 Du        
  42608 ****       129.5000 146.2500 125.7500 Du        
  42609 ****       129.5000 146.2500 126.0000 Du        
  42610 ****       129.5000 146.2500 126.2500 Du        
  42611 ****       129.5000 146.7500 122.7500 Du        
  42612 ****       129.5000 146.7500 123.0000 Du        
  42613 ****       129.5000 147.0000 122.5000 Du        
  42614 ****       129.5000 147.0000 122.7500 Du        
  42615 ****       129.5000 147.0000 123.0000 Du        
  42616 ****       129.5000 147.0000 123.2500 Du        
  42617 ****       129.5000 147.2500 123.0000 Du        
  42618 ****       129.5000 155.2500 126.7500 Du        
  42619 ****       129.5000 155.2500 127.0000 Du        
  42620 ****       129.5000 155.5000 126.0000 Du        
  42621 ****       129.5000 155.5000 126.2500 Du        
  42622 ****       129.5000 155.5000 126.5000 Du        
  42623 ****       129.5000 155.5000 126.7500 Du        
  42624 ****       129.5000 155.5000 127.0000 Du        
  42625 ****       129.5000 155.5000 127.2500 Du        
  42626 ****       129.5000 155.5000 129.0000 Du        
  42627 ****       129.5000 155.7500 126.0000 Du        
  42628 ****       129.5000 155.7500 126.2500 Du        
  42629 ****       129.5000 155.7500 126.5000 Du        
  42630 ****       129.5000 155.7500 126.7500 Du        
  42631 ****       129.5000 155.7500 127.0000 Du        
  42632 ****       129.5000 155.7500 129.0000 Du        
  42633 ****       129.5000 156.0000 125.7500 Du        
  42634 ****       129.5000 156.0000 126.0000 Du        
  42635 ****       129.5000 156.0000 126.2500 Du        
  42636 ****       129.5000 156.0000 126.5000 Du        
  42637 ****       129.5000 156.0000 126.7500 Du        
  42638 ****       129.5000 156.2500 126.0000 Du        
  42639 ****       129.5000 156.2500 126.2500 Du        
  42640 ****       129.5000 156.5000 139.0000 Du        
  42641 ****       129.5000 156.5000 139.2500 Du        
  42642 ****       129.5000 156.7500 138.7500 Du        
  42643 ****       129.5000 156.7500 139.0000 Du        
  42644 ****       129.5000 156.7500 139.2500 Du        
  42645 ****       129.5000 157.2500 116.0000 Du        
  42646 ****       129.5000 157.2500 116.2500 Du        
  42647 ****       129.5000 157.2500 116.5000 Du        
  42648 ****       129.5000 157.5000 115.2500 Du        
  42649 ****       129.5000 157.5000 115.5000 Du        
  42650 ****       129.5000 157.5000 115.7500 Du        
  42651 ****       129.5000 157.5000 116.0000 Du        
  42652 ****       129.5000 157.5000 116.2500 Du        
  42653 ****       129.5000 157.5000 116.5000 Du        
  42654 ****       129.5000 157.7500 115.0000 Du        
  42655 ****       129.5000 157.7500 115.2500 Du        
  42656 ****       129.5000 157.7500 115.5000 Du        
  42657 ****       129.5000 157.7500 115.7500 Du        
  42658 ****       129.5000 157.7500 116.0000 Du        
  42659 ****       129.5000 157.7500 116.2500 Du        
  42660 ****       129.5000 157.7500 116.5000 Du        
  42661 ****       129.5000 158.0000 114.7500 Du        
  42662 ****       129.5000 158.0000 115.0000 Du        
  42663 ****       129.5000 158.0000 115.2500 Du        
  42664 ****       129.5000 158.0000 115.5000 Du        
  42665 ****       129.5000 158.0000 115.7500 Du        
  42666 ****       129.5000 158.0000 116.0000 Du        
  42667 ****       129.5000 158.0000 116.2500 Du        
  42668 ****       129.5000 158.0000 116.5000 Du        
  42669 ****       129.5000 158.0000 136.0000 Du        
  42670 ****       129.5000 158.2500 115.0000 Du        
  42671 ****       129.5000 158.2500 115.2500 Du        
  42672 ****       129.5000 158.2500 115.5000 Du        
  42673 ****       129.5000 158.2500 115.7500 Du        
  42674 ****       129.5000 158.2500 116.0000 Du        
  42675 ****       129.5000 158.2500 116.2500 Du        
  42676 ****       129.5000 158.2500 116.5000 Du        
  42677 ****       129.5000 158.2500 135.7500 Du        
  42678 ****       129.5000 158.2500 136.0000 Du        
  42679 ****       129.5000 158.5000 115.2500 Du        
  42680 ****       129.5000 158.5000 115.5000 Du        
  42681 ****       129.5000 158.5000 115.7500 Du        
  42682 ****       129.5000 158.5000 116.0000 Du        
  42683 ****       129.5000 158.5000 116.2500 Du        
  42684 ****       129.5000 158.5000 135.7500 Du        
  42685 ****       129.5000 158.5000 136.0000 Du        
  42686 ****       129.5000 158.7500 115.2500 Du        
  42687 ****       129.5000 158.7500 115.5000 Du        
  42688 ****       129.5000 158.7500 115.7500 Du        
  42689 ****       129.5000 158.7500 116.0000 Du        
  42690 ****       129.5000 159.0000 115.5000 Du        
  42691 ****       129.5000 159.0000 115.7500 Du        
  42692 ****       129.7500 136.7500 123.2500 Du        
  42693 ****       129.7500 136.7500 123.5000 Du        
  42694 ****       129.7500 137.0000 123.0000 Du        
  42695 ****       129.7500 137.0000 123.2500 Du        
  42696 ****       129.7500 144.0000 112.2500 Du        
  42697 ****       129.7500 144.0000 112.5000 Du        
  42698 ****       129.7500 144.0000 112.7500 Du        
  42699 ****       129.7500 144.2500 112.0000 Du        
  42700 ****       129.7500 144.2500 112.2500 Du        
  42701 ****       129.7500 144.2500 112.5000 Du        
  42702 ****       129.7500 144.2500 118.2500 Du        
  42703 ****       129.7500 144.2500 118.5000 Du        
  42704 ****       129.7500 144.5000 117.7500 Du        
  42705 ****       129.7500 144.5000 118.0000 Du        
  42706 ****       129.7500 144.5000 118.2500 Du        
  42707 ****       129.7500 144.5000 118.5000 Du        
  42708 ****       129.7500 144.5000 118.7500 Du        
  42709 ****       129.7500 144.7500 116.0000 Du        
  42710 ****       129.7500 144.7500 116.2500 Du        
  42711 ****       129.7500 144.7500 116.5000 Du        
  42712 ****       129.7500 144.7500 116.7500 Du        
  42713 ****       129.7500 144.7500 117.0000 Du        
  42714 ****       129.7500 144.7500 117.2500 Du        
  42715 ****       129.7500 144.7500 117.5000 Du        
  42716 ****       129.7500 144.7500 117.7500 Du        
  42717 ****       129.7500 144.7500 118.0000 Du        
  42718 ****       129.7500 144.7500 118.2500 Du        
  42719 ****       129.7500 144.7500 118.5000 Du        
  42720 ****       129.7500 145.0000 116.2500 Du        
  42721 ****       129.7500 145.0000 116.5000 Du        
  42722 ****       129.7500 145.0000 116.7500 Du        
  42723 ****       129.7500 145.0000 117.0000 Du        
  42724 ****       129.7500 145.0000 117.2500 Du        
  42725 ****       129.7500 145.0000 117.5000 Du        
  42726 ****       129.7500 145.0000 117.7500 Du        
  42727 ****       129.7500 145.0000 118.0000 Du        
  42728 ****       129.7500 145.2500 116.5000 Du        
  42729 ****       129.7500 145.2500 116.7500 Du        
  42730 ****       129.7500 145.2500 117.0000 Du        
  42731 ****       129.7500 145.2500 117.2500 Du        
  42732 ****       129.7500 145.7500 125.5000 Du        
  42733 ****       129.7500 146.0000 125.0000 Du        
  42734 ****       129.7500 146.0000 125.2500 Du        
  42735 ****       129.7500 146.0000 125.5000 Du        
  42736 ****       129.7500 146.0000 125.7500 Du        
  42737 ****       129.7500 146.0000 126.0000 Du        
  42738 ****       129.7500 146.2500 125.5000 Du        
  42739 ****       129.7500 146.2500 125.7500 Du        
  42740 ****       129.7500 146.2500 126.0000 Du        
  42741 ****       129.7500 146.2500 126.2500 Du        
  42742 ****       129.7500 146.7500 122.2500 Du        
  42743 ****       129.7500 147.0000 122.2500 Du        
  42744 ****       129.7500 147.0000 122.5000 Du        
  42745 ****       129.7500 147.0000 122.7500 Du        
  42746 ****       129.7500 147.0000 123.0000 Du        
  42747 ****       129.7500 147.0000 123.2500 Du        
  42748 ****       129.7500 147.2500 122.5000 Du        
  42749 ****       129.7500 147.2500 122.7500 Du        
  42750 ****       129.7500 147.2500 123.0000 Du        
  42751 ****       129.7500 147.2500 123.2500 Du        
  42752 ****       129.7500 147.5000 123.0000 Du        
  42753 ****       129.7500 152.7500 144.7500 Du        
  42754 ****       129.7500 153.0000 144.7500 Du        
  42755 ****       129.7500 155.2500 126.7500 Du        
  42756 ****       129.7500 155.2500 127.0000 Du        
  42757 ****       129.7500 155.5000 126.2500 Du        
  42758 ****       129.7500 155.5000 126.5000 Du        
  42759 ****       129.7500 155.5000 126.7500 Du        
  42760 ****       129.7500 155.5000 127.0000 Du        
  42761 ****       129.7500 155.5000 127.2500 Du        
  42762 ****       129.7500 155.5000 127.7500 Du        
  42763 ****       129.7500 155.5000 128.0000 Du        
  42764 ****       129.7500 155.5000 128.2500 Du        
  42765 ****       129.7500 155.5000 129.0000 Du        
  42766 ****       129.7500 155.7500 126.0000 Du        
  42767 ****       129.7500 155.7500 126.2500 Du        
  42768 ****       129.7500 155.7500 126.5000 Du        
  42769 ****       129.7500 155.7500 126.7500 Du        
  42770 ****       129.7500 155.7500 127.0000 Du        
  42771 ****       129.7500 155.7500 127.2500 Du        
  42772 ****       129.7500 155.7500 128.0000 Du        
  42773 ****       129.7500 155.7500 128.2500 Du        
  42774 ****       129.7500 155.7500 129.0000 Du        
  42775 ****       129.7500 156.0000 126.0000 Du        
  42776 ****       129.7500 156.0000 126.2500 Du        
  42777 ****       129.7500 156.0000 126.5000 Du        
  42778 ****       129.7500 156.0000 126.7500 Du        
  42779 ****       129.7500 156.0000 127.0000 Du        
  42780 ****       129.7500 156.2500 126.0000 Du        
  42781 ****       129.7500 156.2500 126.2500 Du        
  42782 ****       129.7500 156.2500 126.5000 Du        
  42783 ****       129.7500 156.5000 137.7500 Du        
  42784 ****       129.7500 156.5000 138.0000 Du        
  42785 ****       129.7500 156.5000 138.2500 Du        
  42786 ****       129.7500 156.5000 138.5000 Du        
  42787 ****       129.7500 156.5000 138.7500 Du        
  42788 ****       129.7500 156.7500 137.5000 Du        
  42789 ****       129.7500 156.7500 137.7500 Du        
  42790 ****       129.7500 156.7500 138.0000 Du        
  42791 ****       129.7500 156.7500 138.2500 Du        
  42792 ****       129.7500 156.7500 138.5000 Du        
  42793 ****       129.7500 156.7500 138.7500 Du        
  42794 ****       129.7500 156.7500 139.0000 Du        
  42795 ****       129.7500 156.7500 139.2500 Du        
  42796 ****       129.7500 157.0000 137.5000 Du        
  42797 ****       129.7500 157.0000 137.7500 Du        
  42798 ****       129.7500 157.0000 138.0000 Du        
  42799 ****       129.7500 157.0000 138.2500 Du        
  42800 ****       129.7500 157.0000 138.5000 Du        
  42801 ****       129.7500 157.0000 138.7500 Du        
  42802 ****       129.7500 157.0000 139.0000 Du        
  42803 ****       129.7500 157.0000 139.2500 Du        
  42804 ****       129.7500 157.2500 116.0000 Du        
  42805 ****       129.7500 157.2500 116.2500 Du        
  42806 ****       129.7500 157.2500 116.5000 Du        
  42807 ****       129.7500 157.2500 138.5000 Du        
  42808 ****       129.7500 157.2500 138.7500 Du        
  42809 ****       129.7500 157.2500 139.0000 Du        
  42810 ****       129.7500 157.5000 115.5000 Du        
  42811 ****       129.7500 157.5000 115.7500 Du        
  42812 ****       129.7500 157.5000 116.0000 Du        
  42813 ****       129.7500 157.5000 116.2500 Du        
  42814 ****       129.7500 157.5000 116.5000 Du        
  42815 ****       129.7500 157.7500 115.0000 Du        
  42816 ****       129.7500 157.7500 115.2500 Du        
  42817 ****       129.7500 157.7500 115.5000 Du        
  42818 ****       129.7500 157.7500 115.7500 Du        
  42819 ****       129.7500 157.7500 116.0000 Du        
  42820 ****       129.7500 157.7500 116.2500 Du        
  42821 ****       129.7500 157.7500 116.5000 Du        
  42822 ****       129.7500 158.0000 115.0000 Du        
  42823 ****       129.7500 158.0000 115.2500 Du        
  42824 ****       129.7500 158.0000 115.5000 Du        
  42825 ****       129.7500 158.0000 115.7500 Du        
  42826 ****       129.7500 158.0000 116.0000 Du        
  42827 ****       129.7500 158.0000 116.2500 Du        
  42828 ****       129.7500 158.0000 116.5000 Du        
  42829 ****       129.7500 158.0000 136.2500 Du        
  42830 ****       129.7500 158.0000 136.5000 Du        
  42831 ****       129.7500 158.0000 136.7500 Du        
  42832 ****       129.7500 158.2500 115.0000 Du        
  42833 ****       129.7500 158.2500 115.2500 Du        
  42834 ****       129.7500 158.2500 115.5000 Du        
  42835 ****       129.7500 158.2500 115.7500 Du        
  42836 ****       129.7500 158.2500 116.0000 Du        
  42837 ****       129.7500 158.2500 116.2500 Du        
  42838 ****       129.7500 158.2500 116.5000 Du        
  42839 ****       129.7500 158.2500 136.0000 Du        
  42840 ****       129.7500 158.2500 136.2500 Du        
  42841 ****       129.7500 158.2500 136.5000 Du        
  42842 ****       129.7500 158.2500 136.7500 Du        
  42843 ****       129.7500 158.5000 115.2500 Du        
  42844 ****       129.7500 158.5000 115.5000 Du        
  42845 ****       129.7500 158.5000 115.7500 Du        
  42846 ****       129.7500 158.5000 116.0000 Du        
  42847 ****       129.7500 158.5000 116.2500 Du        
  42848 ****       129.7500 158.5000 136.0000 Du        
  42849 ****       129.7500 158.5000 136.2500 Du        
  42850 ****       129.7500 158.5000 136.5000 Du        
  42851 ****       129.7500 158.5000 136.7500 Du        
  42852 ****       129.7500 158.5000 137.0000 Du        
  42853 ****       129.7500 158.7500 115.2500 Du        
  42854 ****       129.7500 158.7500 115.5000 Du        
  42855 ****       129.7500 158.7500 115.7500 Du        
  42856 ****       129.7500 158.7500 116.0000 Du        
  42857 ****       129.7500 158.7500 136.0000 Du        
  42858 ****       129.7500 158.7500 136.2500 Du        
  42859 ****       129.7500 158.7500 136.5000 Du        
  42860 ****       129.7500 158.7500 136.7500 Du        
  42861 ****       129.7500 158.7500 137.0000 Du        
  42862 ****       129.7500 159.0000 136.5000 Du        
  42863 ****       129.7500 159.0000 136.7500 Du        
  42864 ****       130.0000 144.0000 112.2500 Du        
  42865 ****       130.0000 144.0000 112.5000 Du        
  42866 ****       130.0000 144.0000 118.2500 Du        
  42867 ****       130.0000 144.2500 112.2500 Du        
  42868 ****       130.0000 144.2500 112.5000 Du        
  42869 ****       130.0000 144.2500 117.7500 Du        
  42870 ****       130.0000 144.2500 118.0000 Du        
  42871 ****       130.0000 144.2500 118.2500 Du        
  42872 ****       130.0000 144.2500 118.5000 Du        
  42873 ****       130.0000 144.5000 116.0000 Du        
  42874 ****       130.0000 144.5000 116.2500 Du        
  42875 ****       130.0000 144.5000 116.5000 Du        
  42876 ****       130.0000 144.5000 116.7500 Du        
  42877 ****       130.0000 144.5000 117.0000 Du        
  42878 ****       130.0000 144.5000 117.2500 Du        
  42879 ****       130.0000 144.5000 117.5000 Du        
  42880 ****       130.0000 144.5000 117.7500 Du        
  42881 ****       130.0000 144.5000 118.0000 Du        
  42882 ****       130.0000 144.5000 118.2500 Du        
  42883 ****       130.0000 144.5000 118.5000 Du        
  42884 ****       130.0000 144.7500 116.0000 Du        
  42885 ****       130.0000 144.7500 116.2500 Du        
  42886 ****       130.0000 144.7500 116.5000 Du        
  42887 ****       130.0000 144.7500 116.7500 Du        
  42888 ****       130.0000 144.7500 117.0000 Du        
  42889 ****       130.0000 144.7500 117.2500 Du        
  42890 ****       130.0000 144.7500 117.5000 Du        
  42891 ****       130.0000 144.7500 117.7500 Du        
  42892 ****       130.0000 144.7500 118.0000 Du        
  42893 ****       130.0000 144.7500 118.2500 Du        
  42894 ****       130.0000 144.7500 118.5000 Du        
  42895 ****       130.0000 145.0000 116.2500 Du        
  42896 ****       130.0000 145.0000 116.5000 Du        
  42897 ****       130.0000 145.0000 116.7500 Du        
  42898 ****       130.0000 145.0000 117.0000 Du        
  42899 ****       130.0000 145.0000 117.2500 Du        
  42900 ****       130.0000 145.0000 117.5000 Du        
  42901 ****       130.0000 145.0000 117.7500 Du        
  42902 ****       130.0000 145.0000 118.0000 Du        
  42903 ****       130.0000 145.0000 118.2500 Du        
  42904 ****       130.0000 145.2500 116.5000 Du        
  42905 ****       130.0000 145.2500 116.7500 Du        
  42906 ****       130.0000 145.2500 117.0000 Du        
  42907 ****       130.0000 145.2500 117.2500 Du        
  42908 ****       130.0000 145.2500 117.5000 Du        
  42909 ****       130.0000 145.2500 117.7500 Du        
  42910 ****       130.0000 145.5000 116.7500 Du        
  42911 ****       130.0000 145.5000 117.0000 Du        
  42912 ****       130.0000 146.2500 125.2500 Du        
  42913 ****       130.0000 146.2500 125.5000 Du        
  42914 ****       130.0000 146.7500 122.2500 Du        
  42915 ****       130.0000 147.0000 122.0000 Du        
  42916 ****       130.0000 147.0000 122.2500 Du        
  42917 ****       130.0000 147.0000 122.5000 Du        
  42918 ****       130.0000 147.0000 122.7500 Du        
  42919 ****       130.0000 147.0000 123.0000 Du        
  42920 ****       130.0000 147.0000 123.2500 Du        
  42921 ****       130.0000 147.2500 122.2500 Du        
  42922 ****       130.0000 147.2500 122.5000 Du        
  42923 ****       130.0000 147.2500 122.7500 Du        
  42924 ****       130.0000 147.2500 123.0000 Du        
  42925 ****       130.0000 147.2500 123.2500 Du        
  42926 ****       130.0000 147.5000 122.5000 Du        
  42927 ****       130.0000 147.5000 122.7500 Du        
  42928 ****       130.0000 147.5000 123.0000 Du        
  42929 ****       130.0000 147.7500 122.7500 Du        
  42930 ****       130.0000 152.5000 144.5000 Du        
  42931 ****       130.0000 152.5000 144.7500 Du        
  42932 ****       130.0000 152.5000 145.0000 Du        
  42933 ****       130.0000 152.7500 144.5000 Du        
  42934 ****       130.0000 152.7500 144.7500 Du        
  42935 ****       130.0000 152.7500 145.0000 Du        
  42936 ****       130.0000 153.0000 144.5000 Du        
  42937 ****       130.0000 153.0000 144.7500 Du        
  42938 ****       130.0000 153.0000 145.0000 Du        
  42939 ****       130.0000 153.0000 145.2500 Du        
  42940 ****       130.0000 153.2500 144.5000 Du        
  42941 ****       130.0000 153.2500 144.7500 Du        
  42942 ****       130.0000 153.2500 145.0000 Du        
  42943 ****       130.0000 153.2500 145.2500 Du        
  42944 ****       130.0000 153.5000 144.7500 Du        
  42945 ****       130.0000 153.5000 145.0000 Du        
  42946 ****       130.0000 153.5000 145.2500 Du        
  42947 ****       130.0000 153.7500 145.0000 Du        
  42948 ****       130.0000 153.7500 145.2500 Du        
  42949 ****       130.0000 155.2500 126.7500 Du        
  42950 ****       130.0000 155.2500 127.0000 Du        
  42951 ****       130.0000 155.5000 126.2500 Du        
  42952 ****       130.0000 155.5000 126.5000 Du        
  42953 ****       130.0000 155.5000 126.7500 Du        
  42954 ****       130.0000 155.5000 127.0000 Du        
  42955 ****       130.0000 155.5000 127.2500 Du        
  42956 ****       130.0000 155.5000 127.7500 Du        
  42957 ****       130.0000 155.5000 128.0000 Du        
  42958 ****       130.0000 155.5000 128.2500 Du        
  42959 ****       130.0000 155.5000 129.0000 Du        
  42960 ****       130.0000 155.7500 126.0000 Du        
  42961 ****       130.0000 155.7500 126.2500 Du        
  42962 ****       130.0000 155.7500 126.5000 Du        
  42963 ****       130.0000 155.7500 126.7500 Du        
  42964 ****       130.0000 155.7500 127.0000 Du        
  42965 ****       130.0000 155.7500 127.2500 Du        
  42966 ****       130.0000 155.7500 127.5000 Du        
  42967 ****       130.0000 155.7500 127.7500 Du        
  42968 ****       130.0000 155.7500 128.0000 Du        
  42969 ****       130.0000 155.7500 128.2500 Du        
  42970 ****       130.0000 155.7500 129.0000 Du        
  42971 ****       130.0000 156.0000 126.0000 Du        
  42972 ****       130.0000 156.0000 126.2500 Du        
  42973 ****       130.0000 156.0000 126.5000 Du        
  42974 ****       130.0000 156.0000 126.7500 Du        
  42975 ****       130.0000 156.0000 127.0000 Du        
  42976 ****       130.0000 156.0000 127.2500 Du        
  42977 ****       130.0000 156.2500 126.0000 Du        
  42978 ****       130.0000 156.2500 126.2500 Du        
  42979 ****       130.0000 156.2500 126.5000 Du        
  42980 ****       130.0000 156.2500 126.7500 Du        
  42981 ****       130.0000 156.5000 126.2500 Du        
  42982 ****       130.0000 156.5000 137.7500 Du        
  42983 ****       130.0000 156.5000 138.0000 Du        
  42984 ****       130.0000 156.5000 138.2500 Du        
  42985 ****       130.0000 156.5000 138.5000 Du        
  42986 ****       130.0000 156.7500 137.5000 Du        
  42987 ****       130.0000 156.7500 137.7500 Du        
  42988 ****       130.0000 156.7500 138.0000 Du        
  42989 ****       130.0000 156.7500 138.2500 Du        
  42990 ****       130.0000 156.7500 138.5000 Du        
  42991 ****       130.0000 156.7500 138.7500 Du        
  42992 ****       130.0000 156.7500 139.0000 Du        
  42993 ****       130.0000 156.7500 139.2500 Du        
  42994 ****       130.0000 157.0000 137.2500 Du        
  42995 ****       130.0000 157.0000 137.5000 Du        
  42996 ****       130.0000 157.0000 137.7500 Du        
  42997 ****       130.0000 157.0000 138.0000 Du        
  42998 ****       130.0000 157.0000 138.2500 Du        
  42999 ****       130.0000 157.0000 138.5000 Du        
  43000 ****       130.0000 157.0000 138.7500 Du        
  43001 ****       130.0000 157.0000 139.0000 Du        
  43002 ****       130.0000 157.0000 139.2500 Du        
  43003 ****       130.0000 157.2500 116.2500 Du        
  43004 ****       130.0000 157.2500 116.5000 Du        
  43005 ****       130.0000 157.2500 137.0000 Du        
  43006 ****       130.0000 157.2500 137.2500 Du        
  43007 ****       130.0000 157.2500 137.5000 Du        
  43008 ****       130.0000 157.2500 137.7500 Du        
  43009 ****       130.0000 157.2500 138.0000 Du        
  43010 ****       130.0000 157.2500 138.2500 Du        
  43011 ****       130.0000 157.2500 138.5000 Du        
  43012 ****       130.0000 157.2500 138.7500 Du        
  43013 ****       130.0000 157.2500 139.0000 Du        
  43014 ****       130.0000 157.5000 115.7500 Du        
  43015 ****       130.0000 157.5000 116.0000 Du        
  43016 ****       130.0000 157.5000 116.2500 Du        
  43017 ****       130.0000 157.5000 116.5000 Du        
  43018 ****       130.0000 157.5000 136.7500 Du        
  43019 ****       130.0000 157.5000 137.0000 Du        
  43020 ****       130.0000 157.5000 137.2500 Du        
  43021 ****       130.0000 157.5000 137.5000 Du        
  43022 ****       130.0000 157.5000 137.7500 Du        
  43023 ****       130.0000 157.5000 138.0000 Du        
  43024 ****       130.0000 157.5000 138.2500 Du        
  43025 ****       130.0000 157.5000 138.5000 Du        
  43026 ****       130.0000 157.5000 138.7500 Du        
  43027 ****       130.0000 157.5000 139.0000 Du        
  43028 ****       130.0000 157.7500 115.2500 Du        
  43029 ****       130.0000 157.7500 115.5000 Du        
  43030 ****       130.0000 157.7500 115.7500 Du        
  43031 ****       130.0000 157.7500 116.0000 Du        
  43032 ****       130.0000 157.7500 116.2500 Du        
  43033 ****       130.0000 157.7500 116.5000 Du        
  43034 ****       130.0000 157.7500 136.5000 Du        
  43035 ****       130.0000 157.7500 136.7500 Du        
  43036 ****       130.0000 157.7500 137.0000 Du        
  43037 ****       130.0000 157.7500 137.2500 Du        
  43038 ****       130.0000 157.7500 137.5000 Du        
  43039 ****       130.0000 157.7500 137.7500 Du        
  43040 ****       130.0000 157.7500 138.0000 Du        
  43041 ****       130.0000 157.7500 138.2500 Du        
  43042 ****       130.0000 157.7500 138.5000 Du        
  43043 ****       130.0000 157.7500 138.7500 Du        
  43044 ****       130.0000 158.0000 115.0000 Du        
  43045 ****       130.0000 158.0000 115.2500 Du        
  43046 ****       130.0000 158.0000 115.5000 Du        
  43047 ****       130.0000 158.0000 115.7500 Du        
  43048 ****       130.0000 158.0000 116.0000 Du        
  43049 ****       130.0000 158.0000 116.2500 Du        
  43050 ****       130.0000 158.0000 116.5000 Du        
  43051 ****       130.0000 158.0000 136.2500 Du        
  43052 ****       130.0000 158.0000 136.5000 Du        
  43053 ****       130.0000 158.0000 136.7500 Du        
  43054 ****       130.0000 158.0000 137.0000 Du        
  43055 ****       130.0000 158.0000 137.2500 Du        
  43056 ****       130.0000 158.0000 137.5000 Du        
  43057 ****       130.0000 158.0000 137.7500 Du        
  43058 ****       130.0000 158.0000 138.0000 Du        
  43059 ****       130.0000 158.0000 138.2500 Du        
  43060 ****       130.0000 158.0000 138.5000 Du        
  43061 ****       130.0000 158.0000 138.7500 Du        
  43062 ****       130.0000 158.2500 115.0000 Du        
  43063 ****       130.0000 158.2500 115.2500 Du        
  43064 ****       130.0000 158.2500 115.5000 Du        
  43065 ****       130.0000 158.2500 115.7500 Du        
  43066 ****       130.0000 158.2500 116.0000 Du        
  43067 ****       130.0000 158.2500 116.2500 Du        
  43068 ****       130.0000 158.2500 116.5000 Du        
  43069 ****       130.0000 158.2500 136.2500 Du        
  43070 ****       130.0000 158.2500 136.5000 Du        
  43071 ****       130.0000 158.2500 136.7500 Du        
  43072 ****       130.0000 158.2500 137.0000 Du        
  43073 ****       130.0000 158.2500 137.2500 Du        
  43074 ****       130.0000 158.2500 137.5000 Du        
  43075 ****       130.0000 158.2500 137.7500 Du        
  43076 ****       130.0000 158.2500 138.0000 Du        
  43077 ****       130.0000 158.2500 138.2500 Du        
  43078 ****       130.0000 158.2500 138.5000 Du        
  43079 ****       130.0000 158.5000 115.0000 Du        
  43080 ****       130.0000 158.5000 115.2500 Du        
  43081 ****       130.0000 158.5000 115.5000 Du        
  43082 ****       130.0000 158.5000 115.7500 Du        
  43083 ****       130.0000 158.5000 116.0000 Du        
  43084 ****       130.0000 158.5000 116.2500 Du        
  43085 ****       130.0000 158.5000 136.2500 Du        
  43086 ****       130.0000 158.5000 136.5000 Du        
  43087 ****       130.0000 158.5000 136.7500 Du        
  43088 ****       130.0000 158.5000 137.0000 Du        
  43089 ****       130.0000 158.5000 137.2500 Du        
  43090 ****       130.0000 158.5000 137.5000 Du        
  43091 ****       130.0000 158.5000 137.7500 Du        
  43092 ****       130.0000 158.5000 138.0000 Du        
  43093 ****       130.0000 158.5000 138.2500 Du        
  43094 ****       130.0000 158.5000 138.5000 Du        
  43095 ****       130.0000 158.7500 115.2500 Du        
  43096 ****       130.0000 158.7500 115.5000 Du        
  43097 ****       130.0000 158.7500 115.7500 Du        
  43098 ****       130.0000 158.7500 116.0000 Du        
  43099 ****       130.0000 158.7500 136.2500 Du        
  43100 ****       130.0000 158.7500 136.5000 Du        
  43101 ****       130.0000 158.7500 136.7500 Du        
  43102 ****       130.0000 158.7500 137.0000 Du        
  43103 ****       130.0000 158.7500 137.2500 Du        
  43104 ****       130.0000 158.7500 137.5000 Du        
  43105 ****       130.0000 158.7500 137.7500 Du        
  43106 ****       130.0000 158.7500 138.0000 Du        
  43107 ****       130.0000 158.7500 138.2500 Du        
  43108 ****       130.0000 158.7500 138.5000 Du        
  43109 ****       130.0000 159.0000 136.5000 Du        
  43110 ****       130.0000 159.0000 136.7500 Du        
  43111 ****       130.0000 159.0000 137.0000 Du        
  43112 ****       130.0000 159.0000 137.2500 Du        
  43113 ****       130.0000 159.0000 137.5000 Du        
  43114 ****       130.0000 159.0000 137.7500 Du        
  43115 ****       130.0000 159.0000 138.0000 Du        
  43116 ****       130.0000 159.0000 138.2500 Du        
  43117 ****       130.0000 159.0000 138.5000 Du        
  43118 ****       130.2500 144.0000 117.7500 Du        
  43119 ****       130.2500 144.0000 118.0000 Du        
  43120 ****       130.2500 144.0000 118.2500 Du        
  43121 ****       130.2500 144.2500 116.5000 Du        
  43122 ****       130.2500 144.2500 116.7500 Du        
  43123 ****       130.2500 144.2500 117.0000 Du        
  43124 ****       130.2500 144.2500 117.2500 Du        
  43125 ****       130.2500 144.2500 117.5000 Du        
  43126 ****       130.2500 144.2500 117.7500 Du        
  43127 ****       130.2500 144.2500 118.0000 Du        
  43128 ****       130.2500 144.2500 118.2500 Du        
  43129 ****       130.2500 144.5000 115.7500 Du        
  43130 ****       130.2500 144.5000 116.0000 Du        
  43131 ****       130.2500 144.5000 116.2500 Du        
  43132 ****       130.2500 144.5000 116.5000 Du        
  43133 ****       130.2500 144.5000 116.7500 Du        
  43134 ****       130.2500 144.5000 117.0000 Du        
  43135 ****       130.2500 144.5000 117.2500 Du        
  43136 ****       130.2500 144.5000 117.5000 Du        
  43137 ****       130.2500 144.5000 117.7500 Du        
  43138 ****       130.2500 144.5000 118.0000 Du        
  43139 ****       130.2500 144.5000 118.2500 Du        
  43140 ****       130.2500 144.5000 118.5000 Du        
  43141 ****       130.2500 144.7500 116.0000 Du        
  43142 ****       130.2500 144.7500 116.2500 Du        
  43143 ****       130.2500 144.7500 116.5000 Du        
  43144 ****       130.2500 144.7500 116.7500 Du        
  43145 ****       130.2500 144.7500 117.0000 Du        
  43146 ****       130.2500 144.7500 117.2500 Du        
  43147 ****       130.2500 144.7500 117.5000 Du        
  43148 ****       130.2500 144.7500 117.7500 Du        
  43149 ****       130.2500 144.7500 118.0000 Du        
  43150 ****       130.2500 144.7500 118.2500 Du        
  43151 ****       130.2500 144.7500 118.5000 Du        
  43152 ****       130.2500 145.0000 116.2500 Du        
  43153 ****       130.2500 145.0000 116.5000 Du        
  43154 ****       130.2500 145.0000 116.7500 Du        
  43155 ****       130.2500 145.0000 117.0000 Du        
  43156 ****       130.2500 145.0000 117.2500 Du        
  43157 ****       130.2500 145.0000 117.5000 Du        
  43158 ****       130.2500 145.0000 117.7500 Du        
  43159 ****       130.2500 145.0000 118.0000 Du        
  43160 ****       130.2500 145.0000 118.2500 Du        
  43161 ****       130.2500 145.0000 118.5000 Du        
  43162 ****       130.2500 145.2500 116.5000 Du        
  43163 ****       130.2500 145.2500 116.7500 Du        
  43164 ****       130.2500 145.2500 117.0000 Du        
  43165 ****       130.2500 145.2500 117.2500 Du        
  43166 ****       130.2500 145.2500 117.5000 Du        
  43167 ****       130.2500 145.2500 117.7500 Du        
  43168 ****       130.2500 145.2500 118.0000 Du        
  43169 ****       130.2500 145.2500 147.0000 Du        
  43170 ****       130.2500 145.5000 116.5000 Du        
  43171 ****       130.2500 145.5000 116.7500 Du        
  43172 ****       130.2500 145.5000 117.0000 Du        
  43173 ****       130.2500 145.5000 117.2500 Du        
  43174 ****       130.2500 147.0000 122.0000 Du        
  43175 ****       130.2500 147.0000 122.2500 Du        
  43176 ****       130.2500 147.0000 122.5000 Du        
  43177 ****       130.2500 147.0000 122.7500 Du        
  43178 ****       130.2500 147.0000 123.0000 Du        
  43179 ****       130.2500 147.0000 123.2500 Du        
  43180 ****       130.2500 147.2500 122.0000 Du        
  43181 ****       130.2500 147.2500 122.2500 Du        
  43182 ****       130.2500 147.2500 122.5000 Du        
  43183 ****       130.2500 147.2500 122.7500 Du        
  43184 ****       130.2500 147.2500 123.0000 Du        
  43185 ****       130.2500 147.2500 123.2500 Du        
  43186 ****       130.2500 147.5000 122.2500 Du        
  43187 ****       130.2500 147.5000 122.5000 Du        
  43188 ****       130.2500 147.5000 122.7500 Du        
  43189 ****       130.2500 147.5000 123.0000 Du        
  43190 ****       130.2500 147.5000 123.2500 Du        
  43191 ****       130.2500 147.7500 122.2500 Du        
  43192 ****       130.2500 147.7500 122.5000 Du        
  43193 ****       130.2500 147.7500 122.7500 Du        
  43194 ****       130.2500 147.7500 123.0000 Du        
  43195 ****       130.2500 147.7500 123.2500 Du        
  43196 ****       130.2500 148.0000 122.7500 Du        
  43197 ****       130.2500 148.0000 123.0000 Du        
  43198 ****       130.2500 148.0000 123.2500 Du        
  43199 ****       130.2500 152.5000 144.5000 Du        
  43200 ****       130.2500 152.5000 144.7500 Du        
  43201 ****       130.2500 152.5000 145.0000 Du        
  43202 ****       130.2500 152.7500 144.2500 Du        
  43203 ****       130.2500 152.7500 144.5000 Du        
  43204 ****       130.2500 152.7500 144.7500 Du        
  43205 ****       130.2500 152.7500 145.0000 Du        
  43206 ****       130.2500 152.7500 145.2500 Du        
  43207 ****       130.2500 153.0000 144.2500 Du        
  43208 ****       130.2500 153.0000 144.5000 Du        
  43209 ****       130.2500 153.0000 144.7500 Du        
  43210 ****       130.2500 153.0000 145.0000 Du        
  43211 ****       130.2500 153.0000 145.2500 Du        
  43212 ****       130.2500 153.2500 144.2500 Du        
  43213 ****       130.2500 153.2500 144.5000 Du        
  43214 ****       130.2500 153.2500 144.7500 Du        
  43215 ****       130.2500 153.2500 145.0000 Du        
  43216 ****       130.2500 153.2500 145.2500 Du        
  43217 ****       130.2500 153.5000 144.2500 Du        
  43218 ****       130.2500 153.5000 144.5000 Du        
  43219 ****       130.2500 153.5000 144.7500 Du        
  43220 ****       130.2500 153.5000 145.0000 Du        
  43221 ****       130.2500 153.5000 145.2500 Du        
  43222 ****       130.2500 153.7500 144.2500 Du        
  43223 ****       130.2500 153.7500 144.5000 Du        
  43224 ****       130.2500 153.7500 144.7500 Du        
  43225 ****       130.2500 153.7500 145.0000 Du        
  43226 ****       130.2500 153.7500 145.2500 Du        
  43227 ****       130.2500 153.7500 145.5000 Du        
  43228 ****       130.2500 154.0000 144.2500 Du        
  43229 ****       130.2500 154.0000 144.5000 Du        
  43230 ****       130.2500 154.0000 144.7500 Du        
  43231 ****       130.2500 154.0000 145.0000 Du        
  43232 ****       130.2500 154.0000 145.2500 Du        
  43233 ****       130.2500 154.0000 145.5000 Du        
  43234 ****       130.2500 154.0000 145.7500 Du        
  43235 ****       130.2500 154.2500 144.7500 Du        
  43236 ****       130.2500 154.2500 145.0000 Du        
  43237 ****       130.2500 154.2500 145.2500 Du        
  43238 ****       130.2500 154.2500 145.5000 Du        
  43239 ****       130.2500 155.0000 127.0000 Du        
  43240 ****       130.2500 155.2500 126.7500 Du        
  43241 ****       130.2500 155.2500 127.0000 Du        
  43242 ****       130.2500 155.5000 126.2500 Du        
  43243 ****       130.2500 155.5000 126.5000 Du        
  43244 ****       130.2500 155.5000 126.7500 Du        
  43245 ****       130.2500 155.5000 127.0000 Du        
  43246 ****       130.2500 155.5000 127.2500 Du        
  43247 ****       130.2500 155.5000 127.7500 Du        
  43248 ****       130.2500 155.5000 128.0000 Du        
  43249 ****       130.2500 155.5000 128.2500 Du        
  43250 ****       130.2500 155.5000 129.0000 Du        
  43251 ****       130.2500 155.7500 126.2500 Du        
  43252 ****       130.2500 155.7500 126.5000 Du        
  43253 ****       130.2500 155.7500 126.7500 Du        
  43254 ****       130.2500 155.7500 127.0000 Du        
  43255 ****       130.2500 155.7500 127.2500 Du        
  43256 ****       130.2500 155.7500 127.5000 Du        
  43257 ****       130.2500 155.7500 127.7500 Du        
  43258 ****       130.2500 155.7500 128.0000 Du        
  43259 ****       130.2500 155.7500 128.2500 Du        
  43260 ****       130.2500 156.0000 126.0000 Du        
  43261 ****       130.2500 156.0000 126.2500 Du        
  43262 ****       130.2500 156.0000 126.5000 Du        
  43263 ****       130.2500 156.0000 126.7500 Du        
  43264 ****       130.2500 156.0000 127.0000 Du        
  43265 ****       130.2500 156.0000 127.2500 Du        
  43266 ****       130.2500 156.2500 126.0000 Du        
  43267 ****       130.2500 156.2500 126.2500 Du        
  43268 ****       130.2500 156.2500 126.5000 Du        
  43269 ****       130.2500 156.2500 126.7500 Du        
  43270 ****       130.2500 156.2500 127.0000 Du        
  43271 ****       130.2500 156.5000 126.2500 Du        
  43272 ****       130.2500 156.5000 137.7500 Du        
  43273 ****       130.2500 156.5000 138.0000 Du        
  43274 ****       130.2500 156.5000 138.2500 Du        
  43275 ****       130.2500 156.7500 137.5000 Du        
  43276 ****       130.2500 156.7500 137.7500 Du        
  43277 ****       130.2500 156.7500 138.0000 Du        
  43278 ****       130.2500 156.7500 138.2500 Du        
  43279 ****       130.2500 156.7500 138.5000 Du        
  43280 ****       130.2500 156.7500 138.7500 Du        
  43281 ****       130.2500 156.7500 139.0000 Du        
  43282 ****       130.2500 156.7500 139.2500 Du        
  43283 ****       130.2500 157.0000 137.2500 Du        
  43284 ****       130.2500 157.0000 137.5000 Du        
  43285 ****       130.2500 157.0000 137.7500 Du        
  43286 ****       130.2500 157.0000 138.0000 Du        
  43287 ****       130.2500 157.0000 138.2500 Du        
  43288 ****       130.2500 157.0000 138.5000 Du        
  43289 ****       130.2500 157.0000 138.7500 Du        
  43290 ****       130.2500 157.0000 139.0000 Du        
  43291 ****       130.2500 157.0000 139.2500 Du        
  43292 ****       130.2500 157.2500 116.5000 Du        
  43293 ****       130.2500 157.2500 137.0000 Du        
  43294 ****       130.2500 157.2500 137.2500 Du        
  43295 ****       130.2500 157.2500 137.5000 Du        
  43296 ****       130.2500 157.2500 137.7500 Du        
  43297 ****       130.2500 157.2500 138.0000 Du        
  43298 ****       130.2500 157.2500 138.2500 Du        
  43299 ****       130.2500 157.2500 138.5000 Du        
  43300 ****       130.2500 157.2500 138.7500 Du        
  43301 ****       130.2500 157.2500 139.0000 Du        
  43302 ****       130.2500 157.2500 139.2500 Du        
  43303 ****       130.2500 157.5000 115.7500 Du        
  43304 ****       130.2500 157.5000 116.0000 Du        
  43305 ****       130.2500 157.5000 116.2500 Du        
  43306 ****       130.2500 157.5000 116.5000 Du        
  43307 ****       130.2500 157.5000 137.0000 Du        
  43308 ****       130.2500 157.5000 137.2500 Du        
  43309 ****       130.2500 157.5000 137.5000 Du        
  43310 ****       130.2500 157.5000 137.7500 Du        
  43311 ****       130.2500 157.5000 138.0000 Du        
  43312 ****       130.2500 157.5000 138.2500 Du        
  43313 ****       130.2500 157.5000 138.5000 Du        
  43314 ****       130.2500 157.5000 138.7500 Du        
  43315 ****       130.2500 157.5000 139.0000 Du        
  43316 ****       130.2500 157.7500 115.2500 Du        
  43317 ****       130.2500 157.7500 115.5000 Du        
  43318 ****       130.2500 157.7500 115.7500 Du        
  43319 ****       130.2500 157.7500 116.0000 Du        
  43320 ****       130.2500 157.7500 116.2500 Du        
  43321 ****       130.2500 157.7500 116.5000 Du        
  43322 ****       130.2500 157.7500 136.5000 Du        
  43323 ****       130.2500 157.7500 136.7500 Du        
  43324 ****       130.2500 157.7500 137.0000 Du        
  43325 ****       130.2500 157.7500 137.2500 Du        
  43326 ****       130.2500 157.7500 137.5000 Du        
  43327 ****       130.2500 157.7500 137.7500 Du        
  43328 ****       130.2500 157.7500 138.0000 Du        
  43329 ****       130.2500 157.7500 138.2500 Du        
  43330 ****       130.2500 157.7500 138.5000 Du        
  43331 ****       130.2500 157.7500 138.7500 Du        
  43332 ****       130.2500 158.0000 115.0000 Du        
  43333 ****       130.2500 158.0000 115.2500 Du        
  43334 ****       130.2500 158.0000 115.5000 Du        
  43335 ****       130.2500 158.0000 115.7500 Du        
  43336 ****       130.2500 158.0000 116.0000 Du        
  43337 ****       130.2500 158.0000 116.2500 Du        
  43338 ****       130.2500 158.0000 116.5000 Du        
  43339 ****       130.2500 158.0000 136.5000 Du        
  43340 ****       130.2500 158.0000 136.7500 Du        
  43341 ****       130.2500 158.0000 137.0000 Du        
  43342 ****       130.2500 158.0000 137.2500 Du        
  43343 ****       130.2500 158.0000 137.5000 Du        
  43344 ****       130.2500 158.0000 137.7500 Du        
  43345 ****       130.2500 158.0000 138.0000 Du        
  43346 ****       130.2500 158.0000 138.2500 Du        
  43347 ****       130.2500 158.0000 138.5000 Du        
  43348 ****       130.2500 158.0000 138.7500 Du        
  43349 ****       130.2500 158.2500 115.0000 Du        
  43350 ****       130.2500 158.2500 115.2500 Du        
  43351 ****       130.2500 158.2500 115.5000 Du        
  43352 ****       130.2500 158.2500 115.7500 Du        
  43353 ****       130.2500 158.2500 116.0000 Du        
  43354 ****       130.2500 158.2500 116.2500 Du        
  43355 ****       130.2500 158.2500 116.5000 Du        
  43356 ****       130.2500 158.2500 136.2500 Du        
  43357 ****       130.2500 158.2500 136.5000 Du        
  43358 ****       130.2500 158.2500 136.7500 Du        
  43359 ****       130.2500 158.2500 137.0000 Du        
  43360 ****       130.2500 158.2500 137.2500 Du        
  43361 ****       130.2500 158.2500 137.5000 Du        
  43362 ****       130.2500 158.2500 137.7500 Du        
  43363 ****       130.2500 158.2500 138.0000 Du        
  43364 ****       130.2500 158.2500 138.2500 Du        
  43365 ****       130.2500 158.2500 138.5000 Du        
  43366 ****       130.2500 158.2500 138.7500 Du        
  43367 ****       130.2500 158.5000 115.2500 Du        
  43368 ****       130.2500 158.5000 115.5000 Du        
  43369 ****       130.2500 158.5000 115.7500 Du        
  43370 ****       130.2500 158.5000 116.0000 Du        
  43371 ****       130.2500 158.5000 116.2500 Du        
  43372 ****       130.2500 158.5000 136.2500 Du        
  43373 ****       130.2500 158.5000 136.5000 Du        
  43374 ****       130.2500 158.5000 136.7500 Du        
  43375 ****       130.2500 158.5000 137.0000 Du        
  43376 ****       130.2500 158.5000 137.2500 Du        
  43377 ****       130.2500 158.5000 137.5000 Du        
  43378 ****       130.2500 158.5000 137.7500 Du        
  43379 ****       130.2500 158.5000 138.0000 Du        
  43380 ****       130.2500 158.5000 138.2500 Du        
  43381 ****       130.2500 158.5000 138.5000 Du        
  43382 ****       130.2500 158.5000 138.7500 Du        
  43383 ****       130.2500 158.7500 115.2500 Du        
  43384 ****       130.2500 158.7500 115.5000 Du        
  43385 ****       130.2500 158.7500 115.7500 Du        
  43386 ****       130.2500 158.7500 116.0000 Du        
  43387 ****       130.2500 158.7500 136.2500 Du        
  43388 ****       130.2500 158.7500 136.5000 Du        
  43389 ****       130.2500 158.7500 136.7500 Du        
  43390 ****       130.2500 158.7500 137.0000 Du        
  43391 ****       130.2500 158.7500 137.2500 Du        
  43392 ****       130.2500 158.7500 137.5000 Du        
  43393 ****       130.2500 158.7500 137.7500 Du        
  43394 ****       130.2500 158.7500 138.0000 Du        
  43395 ****       130.2500 158.7500 138.2500 Du        
  43396 ****       130.2500 158.7500 138.5000 Du        
  43397 ****       130.2500 158.7500 138.7500 Du        
  43398 ****       130.2500 159.0000 136.5000 Du        
  43399 ****       130.2500 159.0000 136.7500 Du        
  43400 ****       130.2500 159.0000 137.0000 Du        
  43401 ****       130.2500 159.0000 137.2500 Du        
  43402 ****       130.2500 159.0000 137.5000 Du        
  43403 ****       130.2500 159.0000 137.7500 Du        
  43404 ****       130.2500 159.0000 138.0000 Du        
  43405 ****       130.2500 159.0000 138.2500 Du        
  43406 ****       130.2500 159.0000 138.5000 Du        
  43407 ****       130.2500 159.0000 138.7500 Du        
  43408 ****       130.5000 141.2500 136.5000 Du        
  43409 ****       130.5000 143.7500 117.5000 Du        
  43410 ****       130.5000 143.7500 117.7500 Du        
  43411 ****       130.5000 143.7500 118.0000 Du        
  43412 ****       130.5000 144.0000 116.7500 Du        
  43413 ****       130.5000 144.0000 117.0000 Du        
  43414 ****       130.5000 144.0000 117.2500 Du        
  43415 ****       130.5000 144.0000 117.5000 Du        
  43416 ****       130.5000 144.0000 117.7500 Du        
  43417 ****       130.5000 144.0000 118.0000 Du        
  43418 ****       130.5000 144.2500 116.0000 Du        
  43419 ****       130.5000 144.2500 116.2500 Du        
  43420 ****       130.5000 144.2500 116.5000 Du        
  43421 ****       130.5000 144.2500 116.7500 Du        
  43422 ****       130.5000 144.2500 117.0000 Du        
  43423 ****       130.5000 144.2500 117.2500 Du        
  43424 ****       130.5000 144.2500 117.5000 Du        
  43425 ****       130.5000 144.2500 117.7500 Du        
  43426 ****       130.5000 144.2500 118.0000 Du        
  43427 ****       130.5000 144.5000 116.0000 Du        
  43428 ****       130.5000 144.5000 116.2500 Du        
  43429 ****       130.5000 144.5000 116.5000 Du        
  43430 ****       130.5000 144.5000 116.7500 Du        
  43431 ****       130.5000 144.5000 117.0000 Du        
  43432 ****       130.5000 144.5000 117.2500 Du        
  43433 ****       130.5000 144.5000 117.5000 Du        
  43434 ****       130.5000 144.5000 117.7500 Du        
  43435 ****       130.5000 144.5000 118.0000 Du        
  43436 ****       130.5000 144.5000 118.2500 Du        
  43437 ****       130.5000 144.7500 116.0000 Du        
  43438 ****       130.5000 144.7500 116.2500 Du        
  43439 ****       130.5000 144.7500 116.5000 Du        
  43440 ****       130.5000 144.7500 116.7500 Du        
  43441 ****       130.5000 144.7500 117.0000 Du        
  43442 ****       130.5000 144.7500 117.2500 Du        
  43443 ****       130.5000 144.7500 117.5000 Du        
  43444 ****       130.5000 144.7500 117.7500 Du        
  43445 ****       130.5000 144.7500 118.0000 Du        
  43446 ****       130.5000 144.7500 118.2500 Du        
  43447 ****       130.5000 145.0000 116.2500 Du        
  43448 ****       130.5000 145.0000 116.5000 Du        
  43449 ****       130.5000 145.0000 116.7500 Du        
  43450 ****       130.5000 145.0000 117.0000 Du        
  43451 ****       130.5000 145.0000 117.2500 Du        
  43452 ****       130.5000 145.0000 117.5000 Du        
  43453 ****       130.5000 145.0000 117.7500 Du        
  43454 ****       130.5000 145.0000 118.0000 Du        
  43455 ****       130.5000 145.0000 118.2500 Du        
  43456 ****       130.5000 145.0000 147.0000 Du        
  43457 ****       130.5000 145.2500 116.5000 Du        
  43458 ****       130.5000 145.2500 116.7500 Du        
  43459 ****       130.5000 145.2500 117.0000 Du        
  43460 ****       130.5000 145.2500 117.2500 Du        
  43461 ****       130.5000 145.2500 117.5000 Du        
  43462 ****       130.5000 145.2500 117.7500 Du        
  43463 ****       130.5000 145.2500 118.0000 Du        
  43464 ****       130.5000 145.2500 146.7500 Du        
  43465 ****       130.5000 145.2500 147.0000 Du        
  43466 ****       130.5000 145.5000 116.5000 Du        
  43467 ****       130.5000 145.5000 116.7500 Du        
  43468 ****       130.5000 145.5000 117.0000 Du        
  43469 ****       130.5000 145.5000 117.2500 Du        
  43470 ****       130.5000 145.5000 117.5000 Du        
  43471 ****       130.5000 145.7500 116.7500 Du        
  43472 ****       130.5000 145.7500 117.0000 Du        
  43473 ****       130.5000 145.7500 146.7500 Du        
  43474 ****       130.5000 146.0000 146.2500 Du        
  43475 ****       130.5000 146.2500 146.2500 Du        
  43476 ****       130.5000 146.7500 127.7500 Du        
  43477 ****       130.5000 146.7500 128.0000 Du        
  43478 ****       130.5000 146.7500 128.2500 Du        
  43479 ****       130.5000 147.0000 121.7500 Du        
  43480 ****       130.5000 147.0000 122.0000 Du        
  43481 ****       130.5000 147.0000 122.2500 Du        
  43482 ****       130.5000 147.0000 122.5000 Du        
  43483 ****       130.5000 147.0000 122.7500 Du        
  43484 ****       130.5000 147.0000 123.0000 Du        
  43485 ****       130.5000 147.0000 123.2500 Du        
  43486 ****       130.5000 147.0000 128.0000 Du        
  43487 ****       130.5000 147.0000 128.2500 Du        
  43488 ****       130.5000 147.0000 128.5000 Du        
  43489 ****       130.5000 147.0000 128.7500 Du        
  43490 ****       130.5000 147.2500 121.7500 Du        
  43491 ****       130.5000 147.2500 122.0000 Du        
  43492 ****       130.5000 147.2500 122.2500 Du        
  43493 ****       130.5000 147.2500 122.5000 Du        
  43494 ****       130.5000 147.2500 122.7500 Du        
  43495 ****       130.5000 147.2500 123.0000 Du        
  43496 ****       130.5000 147.2500 123.2500 Du        
  43497 ****       130.5000 147.5000 122.0000 Du        
  43498 ****       130.5000 147.5000 122.2500 Du        
  43499 ****       130.5000 147.5000 122.5000 Du        
  43500 ****       130.5000 147.5000 122.7500 Du        
  43501 ****       130.5000 147.5000 123.0000 Du        
  43502 ****       130.5000 147.5000 123.2500 Du        
  43503 ****       130.5000 147.7500 122.0000 Du        
  43504 ****       130.5000 147.7500 122.2500 Du        
  43505 ****       130.5000 147.7500 122.5000 Du        
  43506 ****       130.5000 147.7500 122.7500 Du        
  43507 ****       130.5000 147.7500 123.0000 Du        
  43508 ****       130.5000 147.7500 123.2500 Du        
  43509 ****       130.5000 148.0000 122.0000 Du        
  43510 ****       130.5000 148.0000 122.2500 Du        
  43511 ****       130.5000 148.0000 122.5000 Du        
  43512 ****       130.5000 148.0000 122.7500 Du        
  43513 ****       130.5000 148.0000 123.0000 Du        
  43514 ****       130.5000 148.0000 123.2500 Du        
  43515 ****       130.5000 148.2500 122.2500 Du        
  43516 ****       130.5000 148.2500 122.5000 Du        
  43517 ****       130.5000 148.2500 122.7500 Du        
  43518 ****       130.5000 148.2500 123.0000 Du        
  43519 ****       130.5000 148.2500 123.2500 Du        
  43520 ****       130.5000 151.2500 144.2500 Du        
  43521 ****       130.5000 151.5000 144.2500 Du        
  43522 ****       130.5000 151.5000 144.5000 Du        
  43523 ****       130.5000 151.5000 144.7500 Du        
  43524 ****       130.5000 151.7500 144.2500 Du        
  43525 ****       130.5000 151.7500 144.5000 Du        
  43526 ****       130.5000 151.7500 144.7500 Du        
  43527 ****       130.5000 152.0000 144.2500 Du        
  43528 ****       130.5000 152.0000 144.5000 Du        
  43529 ****       130.5000 152.0000 144.7500 Du        
  43530 ****       130.5000 152.2500 144.2500 Du        
  43531 ****       130.5000 152.2500 144.5000 Du        
  43532 ****       130.5000 152.2500 144.7500 Du        
  43533 ****       130.5000 152.5000 144.2500 Du        
  43534 ****       130.5000 152.5000 144.5000 Du        
  43535 ****       130.5000 152.5000 144.7500 Du        
  43536 ****       130.5000 152.5000 145.0000 Du        
  43537 ****       130.5000 152.5000 145.2500 Du        
  43538 ****       130.5000 152.7500 144.2500 Du        
  43539 ****       130.5000 152.7500 144.5000 Du        
  43540 ****       130.5000 152.7500 144.7500 Du        
  43541 ****       130.5000 152.7500 145.0000 Du        
  43542 ****       130.5000 152.7500 145.2500 Du        
  43543 ****       130.5000 153.0000 144.2500 Du        
  43544 ****       130.5000 153.0000 144.5000 Du        
  43545 ****       130.5000 153.0000 144.7500 Du        
  43546 ****       130.5000 153.0000 145.0000 Du        
  43547 ****       130.5000 153.0000 145.2500 Du        
  43548 ****       130.5000 153.0000 145.5000 Du        
  43549 ****       130.5000 153.2500 144.2500 Du        
  43550 ****       130.5000 153.2500 144.5000 Du        
  43551 ****       130.5000 153.2500 144.7500 Du        
  43552 ****       130.5000 153.2500 145.0000 Du        
  43553 ****       130.5000 153.2500 145.2500 Du        
  43554 ****       130.5000 153.2500 145.5000 Du        
  43555 ****       130.5000 153.5000 144.0000 Du        
  43556 ****       130.5000 153.5000 144.2500 Du        
  43557 ****       130.5000 153.5000 144.5000 Du        
  43558 ****       130.5000 153.5000 144.7500 Du        
  43559 ****       130.5000 153.5000 145.0000 Du        
  43560 ****       130.5000 153.5000 145.2500 Du        
  43561 ****       130.5000 153.5000 145.5000 Du        
  43562 ****       130.5000 153.5000 145.7500 Du        
  43563 ****       130.5000 153.7500 144.0000 Du        
  43564 ****       130.5000 153.7500 144.2500 Du        
  43565 ****       130.5000 153.7500 144.5000 Du        
  43566 ****       130.5000 153.7500 144.7500 Du        
  43567 ****       130.5000 153.7500 145.0000 Du        
  43568 ****       130.5000 153.7500 145.2500 Du        
  43569 ****       130.5000 153.7500 145.5000 Du        
  43570 ****       130.5000 153.7500 145.7500 Du        
  43571 ****       130.5000 154.0000 144.0000 Du        
  43572 ****       130.5000 154.0000 144.2500 Du        
  43573 ****       130.5000 154.0000 144.5000 Du        
  43574 ****       130.5000 154.0000 144.7500 Du        
  43575 ****       130.5000 154.0000 145.0000 Du        
  43576 ****       130.5000 154.0000 145.2500 Du        
  43577 ****       130.5000 154.0000 145.5000 Du        
  43578 ****       130.5000 154.0000 145.7500 Du        
  43579 ****       130.5000 154.2500 144.0000 Du        
  43580 ****       130.5000 154.2500 144.2500 Du        
  43581 ****       130.5000 154.2500 144.5000 Du        
  43582 ****       130.5000 154.2500 144.7500 Du        
  43583 ****       130.5000 154.2500 145.0000 Du        
  43584 ****       130.5000 154.2500 145.2500 Du        
  43585 ****       130.5000 154.2500 145.5000 Du        
  43586 ****       130.5000 154.5000 144.2500 Du        
  43587 ****       130.5000 154.5000 144.5000 Du        
  43588 ****       130.5000 154.5000 144.7500 Du        
  43589 ****       130.5000 154.5000 145.0000 Du        
  43590 ****       130.5000 154.5000 145.2500 Du        
  43591 ****       130.5000 154.7500 144.7500 Du        
  43592 ****       130.5000 154.7500 145.0000 Du        
  43593 ****       130.5000 155.2500 126.7500 Du        
  43594 ****       130.5000 155.2500 127.0000 Du        
  43595 ****       130.5000 155.2500 127.2500 Du        
  43596 ****       130.5000 155.5000 126.5000 Du        
  43597 ****       130.5000 155.5000 126.7500 Du        
  43598 ****       130.5000 155.5000 127.0000 Du        
  43599 ****       130.5000 155.5000 127.2500 Du        
  43600 ****       130.5000 155.5000 127.5000 Du        
  43601 ****       130.5000 155.5000 127.7500 Du        
  43602 ****       130.5000 155.5000 128.0000 Du        
  43603 ****       130.5000 155.5000 128.2500 Du        
  43604 ****       130.5000 155.7500 126.2500 Du        
  43605 ****       130.5000 155.7500 126.5000 Du        
  43606 ****       130.5000 155.7500 126.7500 Du        
  43607 ****       130.5000 155.7500 127.0000 Du        
  43608 ****       130.5000 155.7500 127.2500 Du        
  43609 ****       130.5000 155.7500 127.5000 Du        
  43610 ****       130.5000 155.7500 127.7500 Du        
  43611 ****       130.5000 155.7500 128.0000 Du        
  43612 ****       130.5000 156.0000 126.0000 Du        
  43613 ****       130.5000 156.0000 126.2500 Du        
  43614 ****       130.5000 156.0000 126.5000 Du        
  43615 ****       130.5000 156.0000 126.7500 Du        
  43616 ****       130.5000 156.0000 127.0000 Du        
  43617 ****       130.5000 156.0000 127.2500 Du        
  43618 ****       130.5000 156.0000 127.5000 Du        
  43619 ****       130.5000 156.0000 127.7500 Du        
  43620 ****       130.5000 156.2500 126.0000 Du        
  43621 ****       130.5000 156.2500 126.2500 Du        
  43622 ****       130.5000 156.2500 126.5000 Du        
  43623 ****       130.5000 156.2500 126.7500 Du        
  43624 ****       130.5000 156.2500 127.0000 Du        
  43625 ****       130.5000 156.2500 127.2500 Du        
  43626 ****       130.5000 156.5000 126.0000 Du        
  43627 ****       130.5000 156.5000 126.2500 Du        
  43628 ****       130.5000 156.5000 126.5000 Du        
  43629 ****       130.5000 156.5000 126.7500 Du        
  43630 ****       130.5000 156.5000 127.0000 Du        
  43631 ****       130.5000 156.5000 137.7500 Du        
  43632 ****       130.5000 156.5000 138.0000 Du        
  43633 ****       130.5000 156.7500 126.2500 Du        
  43634 ****       130.5000 156.7500 137.5000 Du        
  43635 ****       130.5000 156.7500 137.7500 Du        
  43636 ****       130.5000 156.7500 138.0000 Du        
  43637 ****       130.5000 156.7500 138.2500 Du        
  43638 ****       130.5000 156.7500 138.5000 Du        
  43639 ****       130.5000 156.7500 138.7500 Du        
  43640 ****       130.5000 156.7500 139.0000 Du        
  43641 ****       130.5000 156.7500 139.2500 Du        
  43642 ****       130.5000 157.0000 137.2500 Du        
  43643 ****       130.5000 157.0000 137.5000 Du        
  43644 ****       130.5000 157.0000 137.7500 Du        
  43645 ****       130.5000 157.0000 138.0000 Du        
  43646 ****       130.5000 157.0000 138.2500 Du        
  43647 ****       130.5000 157.0000 138.5000 Du        
  43648 ****       130.5000 157.0000 138.7500 Du        
  43649 ****       130.5000 157.0000 139.0000 Du        
  43650 ****       130.5000 157.0000 139.2500 Du        
  43651 ****       130.5000 157.2500 116.5000 Du        
  43652 ****       130.5000 157.2500 116.7500 Du        
  43653 ****       130.5000 157.2500 137.0000 Du        
  43654 ****       130.5000 157.2500 137.2500 Du        
  43655 ****       130.5000 157.2500 137.5000 Du        
  43656 ****       130.5000 157.2500 137.7500 Du        
  43657 ****       130.5000 157.2500 138.0000 Du        
  43658 ****       130.5000 157.2500 138.2500 Du        
  43659 ****       130.5000 157.2500 138.5000 Du        
  43660 ****       130.5000 157.2500 138.7500 Du        
  43661 ****       130.5000 157.2500 139.0000 Du        
  43662 ****       130.5000 157.2500 139.2500 Du        
  43663 ****       130.5000 157.5000 116.0000 Du        
  43664 ****       130.5000 157.5000 116.2500 Du        
  43665 ****       130.5000 157.5000 116.5000 Du        
  43666 ****       130.5000 157.5000 137.0000 Du        
  43667 ****       130.5000 157.5000 137.2500 Du        
  43668 ****       130.5000 157.5000 137.5000 Du        
  43669 ****       130.5000 157.5000 137.7500 Du        
  43670 ****       130.5000 157.5000 138.0000 Du        
  43671 ****       130.5000 157.5000 138.2500 Du        
  43672 ****       130.5000 157.5000 138.5000 Du        
  43673 ****       130.5000 157.5000 138.7500 Du        
  43674 ****       130.5000 157.5000 139.0000 Du        
  43675 ****       130.5000 157.7500 115.5000 Du        
  43676 ****       130.5000 157.7500 115.7500 Du        
  43677 ****       130.5000 157.7500 116.0000 Du        
  43678 ****       130.5000 157.7500 116.2500 Du        
  43679 ****       130.5000 157.7500 116.5000 Du        
  43680 ****       130.5000 157.7500 136.5000 Du        
  43681 ****       130.5000 157.7500 136.7500 Du        
  43682 ****       130.5000 157.7500 137.0000 Du        
  43683 ****       130.5000 157.7500 137.2500 Du        
  43684 ****       130.5000 157.7500 137.5000 Du        
  43685 ****       130.5000 157.7500 137.7500 Du        
  43686 ****       130.5000 157.7500 138.0000 Du        
  43687 ****       130.5000 157.7500 138.2500 Du        
  43688 ****       130.5000 157.7500 138.5000 Du        
  43689 ****       130.5000 157.7500 138.7500 Du        
  43690 ****       130.5000 157.7500 139.0000 Du        
  43691 ****       130.5000 158.0000 115.0000 Du        
  43692 ****       130.5000 158.0000 115.2500 Du        
  43693 ****       130.5000 158.0000 115.5000 Du        
  43694 ****       130.5000 158.0000 115.7500 Du        
  43695 ****       130.5000 158.0000 116.0000 Du        
  43696 ****       130.5000 158.0000 116.2500 Du        
  43697 ****       130.5000 158.0000 116.5000 Du        
  43698 ****       130.5000 158.0000 136.5000 Du        
  43699 ****       130.5000 158.0000 136.7500 Du        
  43700 ****       130.5000 158.0000 137.0000 Du        
  43701 ****       130.5000 158.0000 137.2500 Du        
  43702 ****       130.5000 158.0000 137.5000 Du        
  43703 ****       130.5000 158.0000 137.7500 Du        
  43704 ****       130.5000 158.0000 138.0000 Du        
  43705 ****       130.5000 158.0000 138.2500 Du        
  43706 ****       130.5000 158.0000 138.5000 Du        
  43707 ****       130.5000 158.0000 138.7500 Du        
  43708 ****       130.5000 158.0000 139.0000 Du        
  43709 ****       130.5000 158.2500 115.0000 Du        
  43710 ****       130.5000 158.2500 115.2500 Du        
  43711 ****       130.5000 158.2500 115.5000 Du        
  43712 ****       130.5000 158.2500 115.7500 Du        
  43713 ****       130.5000 158.2500 116.0000 Du        
  43714 ****       130.5000 158.2500 116.2500 Du        
  43715 ****       130.5000 158.2500 116.5000 Du        
  43716 ****       130.5000 158.2500 136.5000 Du        
  43717 ****       130.5000 158.2500 136.7500 Du        
  43718 ****       130.5000 158.2500 137.0000 Du        
  43719 ****       130.5000 158.2500 137.2500 Du        
  43720 ****       130.5000 158.2500 137.5000 Du        
  43721 ****       130.5000 158.2500 137.7500 Du        
  43722 ****       130.5000 158.2500 138.0000 Du        
  43723 ****       130.5000 158.2500 138.2500 Du        
  43724 ****       130.5000 158.2500 138.5000 Du        
  43725 ****       130.5000 158.2500 138.7500 Du        
  43726 ****       130.5000 158.5000 115.2500 Du        
  43727 ****       130.5000 158.5000 115.5000 Du        
  43728 ****       130.5000 158.5000 115.7500 Du        
  43729 ****       130.5000 158.5000 116.0000 Du        
  43730 ****       130.5000 158.5000 136.5000 Du        
  43731 ****       130.5000 158.5000 136.7500 Du        
  43732 ****       130.5000 158.5000 137.0000 Du        
  43733 ****       130.5000 158.5000 137.2500 Du        
  43734 ****       130.5000 158.5000 137.5000 Du        
  43735 ****       130.5000 158.5000 137.7500 Du        
  43736 ****       130.5000 158.5000 138.0000 Du        
  43737 ****       130.5000 158.5000 138.2500 Du        
  43738 ****       130.5000 158.5000 138.5000 Du        
  43739 ****       130.5000 158.5000 138.7500 Du        
  43740 ****       130.5000 158.7500 115.2500 Du        
  43741 ****       130.5000 158.7500 115.5000 Du        
  43742 ****       130.5000 158.7500 115.7500 Du        
  43743 ****       130.5000 158.7500 136.5000 Du        
  43744 ****       130.5000 158.7500 136.7500 Du        
  43745 ****       130.5000 158.7500 137.0000 Du        
  43746 ****       130.5000 158.7500 137.2500 Du        
  43747 ****       130.5000 158.7500 137.5000 Du        
  43748 ****       130.5000 158.7500 137.7500 Du        
  43749 ****       130.5000 158.7500 138.0000 Du        
  43750 ****       130.5000 158.7500 138.2500 Du        
  43751 ****       130.5000 158.7500 138.5000 Du        
  43752 ****       130.5000 158.7500 138.7500 Du        
  43753 ****       130.5000 159.0000 136.5000 Du        
  43754 ****       130.5000 159.0000 136.7500 Du        
  43755 ****       130.5000 159.0000 137.0000 Du        
  43756 ****       130.5000 159.0000 137.2500 Du        
  43757 ****       130.5000 159.0000 137.5000 Du        
  43758 ****       130.5000 159.0000 137.7500 Du        
  43759 ****       130.5000 159.0000 138.0000 Du        
  43760 ****       130.5000 159.0000 138.2500 Du        
  43761 ****       130.5000 159.0000 138.5000 Du        
  43762 ****       130.5000 159.0000 138.7500 Du        
  43763 ****       130.5000 159.2500 138.2500 Du        
  43764 ****       130.5000 159.2500 138.5000 Du        
  43765 ****       130.5000 159.2500 138.7500 Du        
  43766 ****       130.7500 141.2500 136.5000 Du        
  43767 ****       130.7500 141.2500 136.7500 Du        
  43768 ****       130.7500 141.2500 137.0000 Du        
  43769 ****       130.7500 141.5000 136.7500 Du        
  43770 ****       130.7500 141.5000 137.0000 Du        
  43771 ****       130.7500 143.5000 117.0000 Du        
  43772 ****       130.7500 143.5000 117.2500 Du        
  43773 ****       130.7500 143.5000 117.5000 Du        
  43774 ****       130.7500 143.5000 117.7500 Du        
  43775 ****       130.7500 143.7500 116.5000 Du        
  43776 ****       130.7500 143.7500 116.7500 Du        
  43777 ****       130.7500 143.7500 117.0000 Du        
  43778 ****       130.7500 143.7500 117.2500 Du        
  43779 ****       130.7500 143.7500 117.5000 Du        
  43780 ****       130.7500 143.7500 117.7500 Du        
  43781 ****       130.7500 144.0000 116.0000 Du        
  43782 ****       130.7500 144.0000 116.2500 Du        
  43783 ****       130.7500 144.0000 116.5000 Du        
  43784 ****       130.7500 144.0000 116.7500 Du        
  43785 ****       130.7500 144.0000 117.0000 Du        
  43786 ****       130.7500 144.0000 117.2500 Du        
  43787 ****       130.7500 144.0000 117.5000 Du        
  43788 ****       130.7500 144.0000 117.7500 Du        
  43789 ****       130.7500 144.2500 115.7500 Du        
  43790 ****       130.7500 144.2500 116.0000 Du        
  43791 ****       130.7500 144.2500 116.2500 Du        
  43792 ****       130.7500 144.2500 116.5000 Du        
  43793 ****       130.7500 144.2500 116.7500 Du        
  43794 ****       130.7500 144.2500 117.0000 Du        
  43795 ****       130.7500 144.2500 117.2500 Du        
  43796 ****       130.7500 144.2500 117.5000 Du        
  43797 ****       130.7500 144.2500 117.7500 Du        
  43798 ****       130.7500 144.2500 118.0000 Du        
  43799 ****       130.7500 144.5000 115.7500 Du        
  43800 ****       130.7500 144.5000 116.0000 Du        
  43801 ****       130.7500 144.5000 116.2500 Du        
  43802 ****       130.7500 144.5000 116.5000 Du        
  43803 ****       130.7500 144.5000 116.7500 Du        
  43804 ****       130.7500 144.5000 117.0000 Du        
  43805 ****       130.7500 144.5000 117.2500 Du        
  43806 ****       130.7500 144.5000 117.5000 Du        
  43807 ****       130.7500 144.5000 117.7500 Du        
  43808 ****       130.7500 144.5000 118.0000 Du        
  43809 ****       130.7500 144.7500 116.0000 Du        
  43810 ****       130.7500 144.7500 116.2500 Du        
  43811 ****       130.7500 144.7500 116.5000 Du        
  43812 ****       130.7500 144.7500 116.7500 Du        
  43813 ****       130.7500 144.7500 117.0000 Du        
  43814 ****       130.7500 144.7500 117.2500 Du        
  43815 ****       130.7500 144.7500 117.5000 Du        
  43816 ****       130.7500 144.7500 117.7500 Du        
  43817 ****       130.7500 144.7500 118.0000 Du        
  43818 ****       130.7500 145.0000 116.0000 Du        
  43819 ****       130.7500 145.0000 116.2500 Du        
  43820 ****       130.7500 145.0000 116.5000 Du        
  43821 ****       130.7500 145.0000 116.7500 Du        
  43822 ****       130.7500 145.0000 117.0000 Du        
  43823 ****       130.7500 145.0000 117.2500 Du        
  43824 ****       130.7500 145.0000 117.5000 Du        
  43825 ****       130.7500 145.0000 117.7500 Du        
  43826 ****       130.7500 145.0000 118.0000 Du        
  43827 ****       130.7500 145.0000 118.2500 Du        
  43828 ****       130.7500 145.0000 146.7500 Du        
  43829 ****       130.7500 145.0000 147.0000 Du        
  43830 ****       130.7500 145.2500 116.2500 Du        
  43831 ****       130.7500 145.2500 116.5000 Du        
  43832 ****       130.7500 145.2500 116.7500 Du        
  43833 ****       130.7500 145.2500 117.0000 Du        
  43834 ****       130.7500 145.2500 117.2500 Du        
  43835 ****       130.7500 145.2500 117.5000 Du        
  43836 ****       130.7500 145.2500 117.7500 Du        
  43837 ****       130.7500 145.2500 118.0000 Du        
  43838 ****       130.7500 145.2500 146.5000 Du        
  43839 ****       130.7500 145.2500 146.7500 Du        
  43840 ****       130.7500 145.2500 147.0000 Du        
  43841 ****       130.7500 145.5000 116.5000 Du        
  43842 ****       130.7500 145.5000 116.7500 Du        
  43843 ****       130.7500 145.5000 117.0000 Du        
  43844 ****       130.7500 145.5000 117.2500 Du        
  43845 ****       130.7500 145.5000 117.5000 Du        
  43846 ****       130.7500 145.5000 117.7500 Du        
  43847 ****       130.7500 145.5000 146.5000 Du        
  43848 ****       130.7500 145.5000 146.7500 Du        
  43849 ****       130.7500 145.5000 147.0000 Du        
  43850 ****       130.7500 145.7500 116.7500 Du        
  43851 ****       130.7500 145.7500 117.0000 Du        
  43852 ****       130.7500 145.7500 117.2500 Du        
  43853 ****       130.7500 145.7500 146.2500 Du        
  43854 ****       130.7500 145.7500 146.5000 Du        
  43855 ****       130.7500 145.7500 146.7500 Du        
  43856 ****       130.7500 146.0000 146.2500 Du        
  43857 ****       130.7500 146.0000 146.5000 Du        
  43858 ****       130.7500 146.0000 146.7500 Du        
  43859 ****       130.7500 146.2500 146.2500 Du        
  43860 ****       130.7500 146.2500 146.5000 Du        
  43861 ****       130.7500 146.2500 146.7500 Du        
  43862 ****       130.7500 146.5000 146.2500 Du        
  43863 ****       130.7500 146.7500 121.5000 Du        
  43864 ****       130.7500 146.7500 121.7500 Du        
  43865 ****       130.7500 146.7500 127.7500 Du        
  43866 ****       130.7500 146.7500 128.0000 Du        
  43867 ****       130.7500 146.7500 128.2500 Du        
  43868 ****       130.7500 146.7500 128.5000 Du        
  43869 ****       130.7500 146.7500 146.2500 Du        
  43870 ****       130.7500 147.0000 121.5000 Du        
  43871 ****       130.7500 147.0000 121.7500 Du        
  43872 ****       130.7500 147.0000 122.0000 Du        
  43873 ****       130.7500 147.0000 122.2500 Du        
  43874 ****       130.7500 147.0000 122.5000 Du        
  43875 ****       130.7500 147.0000 122.7500 Du        
  43876 ****       130.7500 147.0000 123.0000 Du        
  43877 ****       130.7500 147.0000 127.7500 Du        
  43878 ****       130.7500 147.0000 128.0000 Du        
  43879 ****       130.7500 147.0000 128.2500 Du        
  43880 ****       130.7500 147.0000 128.5000 Du        
  43881 ****       130.7500 147.0000 128.7500 Du        
  43882 ****       130.7500 147.0000 129.0000 Du        
  43883 ****       130.7500 147.2500 121.7500 Du        
  43884 ****       130.7500 147.2500 122.0000 Du        
  43885 ****       130.7500 147.2500 122.2500 Du        
  43886 ****       130.7500 147.2500 122.5000 Du        
  43887 ****       130.7500 147.2500 122.7500 Du        
  43888 ****       130.7500 147.2500 123.0000 Du        
  43889 ****       130.7500 147.2500 123.2500 Du        
  43890 ****       130.7500 147.2500 128.5000 Du        
  43891 ****       130.7500 147.2500 128.7500 Du        
  43892 ****       130.7500 147.2500 129.0000 Du        
  43893 ****       130.7500 147.5000 121.7500 Du        
  43894 ****       130.7500 147.5000 122.0000 Du        
  43895 ****       130.7500 147.5000 122.2500 Du        
  43896 ****       130.7500 147.5000 122.5000 Du        
  43897 ****       130.7500 147.5000 122.7500 Du        
  43898 ****       130.7500 147.5000 123.0000 Du        
  43899 ****       130.7500 147.5000 123.2500 Du        
  43900 ****       130.7500 147.7500 121.7500 Du        
  43901 ****       130.7500 147.7500 122.0000 Du        
  43902 ****       130.7500 147.7500 122.2500 Du        
  43903 ****       130.7500 147.7500 122.5000 Du        
  43904 ****       130.7500 147.7500 122.7500 Du        
  43905 ****       130.7500 147.7500 123.0000 Du        
  43906 ****       130.7500 147.7500 123.2500 Du        
  43907 ****       130.7500 147.7500 123.5000 Du        
  43908 ****       130.7500 148.0000 121.7500 Du        
  43909 ****       130.7500 148.0000 122.0000 Du        
  43910 ****       130.7500 148.0000 122.2500 Du        
  43911 ****       130.7500 148.0000 122.5000 Du        
  43912 ****       130.7500 148.0000 122.7500 Du        
  43913 ****       130.7500 148.0000 123.0000 Du        
  43914 ****       130.7500 148.0000 123.2500 Du        
  43915 ****       130.7500 148.0000 123.5000 Du        
  43916 ****       130.7500 148.2500 122.0000 Du        
  43917 ****       130.7500 148.2500 122.2500 Du        
  43918 ****       130.7500 148.2500 122.5000 Du        
  43919 ****       130.7500 148.2500 122.7500 Du        
  43920 ****       130.7500 148.2500 123.0000 Du        
  43921 ****       130.7500 148.2500 123.2500 Du        
  43922 ****       130.7500 148.5000 122.0000 Du        
  43923 ****       130.7500 148.5000 122.2500 Du        
  43924 ****       130.7500 148.5000 122.5000 Du        
  43925 ****       130.7500 148.5000 122.7500 Du        
  43926 ****       130.7500 148.5000 123.0000 Du        
  43927 ****       130.7500 151.0000 144.2500 Du        
  43928 ****       130.7500 151.2500 144.0000 Du        
  43929 ****       130.7500 151.2500 144.2500 Du        
  43930 ****       130.7500 151.2500 144.5000 Du        
  43931 ****       130.7500 151.5000 144.0000 Du        
  43932 ****       130.7500 151.5000 144.2500 Du        
  43933 ****       130.7500 151.5000 144.5000 Du        
  43934 ****       130.7500 151.5000 144.7500 Du        
  43935 ****       130.7500 151.7500 144.0000 Du        
  43936 ****       130.7500 151.7500 144.2500 Du        
  43937 ****       130.7500 151.7500 144.5000 Du        
  43938 ****       130.7500 151.7500 144.7500 Du        
  43939 ****       130.7500 151.7500 145.0000 Du        
  43940 ****       130.7500 152.0000 144.0000 Du        
  43941 ****       130.7500 152.0000 144.2500 Du        
  43942 ****       130.7500 152.0000 144.5000 Du        
  43943 ****       130.7500 152.0000 144.7500 Du        
  43944 ****       130.7500 152.0000 145.0000 Du        
  43945 ****       130.7500 152.2500 144.0000 Du        
  43946 ****       130.7500 152.2500 144.2500 Du        
  43947 ****       130.7500 152.2500 144.5000 Du        
  43948 ****       130.7500 152.2500 144.7500 Du        
  43949 ****       130.7500 152.2500 145.0000 Du        
  43950 ****       130.7500 152.5000 144.0000 Du        
  43951 ****       130.7500 152.5000 144.2500 Du        
  43952 ****       130.7500 152.5000 144.5000 Du        
  43953 ****       130.7500 152.5000 144.7500 Du        
  43954 ****       130.7500 152.5000 145.0000 Du        
  43955 ****       130.7500 152.5000 145.2500 Du        
  43956 ****       130.7500 152.7500 144.0000 Du        
  43957 ****       130.7500 152.7500 144.2500 Du        
  43958 ****       130.7500 152.7500 144.5000 Du        
  43959 ****       130.7500 152.7500 144.7500 Du        
  43960 ****       130.7500 152.7500 145.0000 Du        
  43961 ****       130.7500 152.7500 145.2500 Du        
  43962 ****       130.7500 152.7500 145.5000 Du        
  43963 ****       130.7500 153.0000 144.0000 Du        
  43964 ****       130.7500 153.0000 144.2500 Du        
  43965 ****       130.7500 153.0000 144.5000 Du        
  43966 ****       130.7500 153.0000 144.7500 Du        
  43967 ****       130.7500 153.0000 145.0000 Du        
  43968 ****       130.7500 153.0000 145.2500 Du        
  43969 ****       130.7500 153.0000 145.5000 Du        
  43970 ****       130.7500 153.0000 145.7500 Du        
  43971 ****       130.7500 153.2500 144.0000 Du        
  43972 ****       130.7500 153.2500 144.2500 Du        
  43973 ****       130.7500 153.2500 144.5000 Du        
  43974 ****       130.7500 153.2500 144.7500 Du        
  43975 ****       130.7500 153.2500 145.0000 Du        
  43976 ****       130.7500 153.2500 145.2500 Du        
  43977 ****       130.7500 153.2500 145.5000 Du        
  43978 ****       130.7500 153.2500 145.7500 Du        
  43979 ****       130.7500 153.5000 144.0000 Du        
  43980 ****       130.7500 153.5000 144.2500 Du        
  43981 ****       130.7500 153.5000 144.5000 Du        
  43982 ****       130.7500 153.5000 144.7500 Du        
  43983 ****       130.7500 153.5000 145.0000 Du        
  43984 ****       130.7500 153.5000 145.2500 Du        
  43985 ****       130.7500 153.5000 145.5000 Du        
  43986 ****       130.7500 153.5000 145.7500 Du        
  43987 ****       130.7500 153.5000 146.0000 Du        
  43988 ****       130.7500 153.7500 144.0000 Du        
  43989 ****       130.7500 153.7500 144.2500 Du        
  43990 ****       130.7500 153.7500 144.5000 Du        
  43991 ****       130.7500 153.7500 144.7500 Du        
  43992 ****       130.7500 153.7500 145.0000 Du        
  43993 ****       130.7500 153.7500 145.2500 Du        
  43994 ****       130.7500 153.7500 145.5000 Du        
  43995 ****       130.7500 153.7500 145.7500 Du        
  43996 ****       130.7500 153.7500 146.0000 Du        
  43997 ****       130.7500 154.0000 144.0000 Du        
  43998 ****       130.7500 154.0000 144.2500 Du        
  43999 ****       130.7500 154.0000 144.5000 Du        
  44000 ****       130.7500 154.0000 144.7500 Du        
  44001 ****       130.7500 154.0000 145.0000 Du        
  44002 ****       130.7500 154.0000 145.2500 Du        
  44003 ****       130.7500 154.0000 145.5000 Du        
  44004 ****       130.7500 154.0000 145.7500 Du        
  44005 ****       130.7500 154.0000 146.0000 Du        
  44006 ****       130.7500 154.2500 144.0000 Du        
  44007 ****       130.7500 154.2500 144.2500 Du        
  44008 ****       130.7500 154.2500 144.5000 Du        
  44009 ****       130.7500 154.2500 144.7500 Du        
  44010 ****       130.7500 154.2500 145.0000 Du        
  44011 ****       130.7500 154.2500 145.2500 Du        
  44012 ****       130.7500 154.2500 145.5000 Du        
  44013 ****       130.7500 154.2500 145.7500 Du        
  44014 ****       130.7500 154.5000 144.0000 Du        
  44015 ****       130.7500 154.5000 144.2500 Du        
  44016 ****       130.7500 154.5000 144.5000 Du        
  44017 ****       130.7500 154.5000 144.7500 Du        
  44018 ****       130.7500 154.5000 145.0000 Du        
  44019 ****       130.7500 154.5000 145.2500 Du        
  44020 ****       130.7500 154.5000 145.5000 Du        
  44021 ****       130.7500 154.7500 144.2500 Du        
  44022 ****       130.7500 154.7500 144.5000 Du        
  44023 ****       130.7500 154.7500 144.7500 Du        
  44024 ****       130.7500 154.7500 145.0000 Du        
  44025 ****       130.7500 154.7500 145.2500 Du        
  44026 ****       130.7500 155.2500 126.7500 Du        
  44027 ****       130.7500 155.2500 127.0000 Du        
  44028 ****       130.7500 155.2500 127.2500 Du        
  44029 ****       130.7500 155.2500 128.0000 Du        
  44030 ****       130.7500 155.5000 126.2500 Du        
  44031 ****       130.7500 155.5000 126.5000 Du        
  44032 ****       130.7500 155.5000 126.7500 Du        
  44033 ****       130.7500 155.5000 127.0000 Du        
  44034 ****       130.7500 155.5000 127.2500 Du        
  44035 ****       130.7500 155.5000 127.5000 Du        
  44036 ****       130.7500 155.5000 127.7500 Du        
  44037 ****       130.7500 155.5000 128.0000 Du        
  44038 ****       130.7500 155.7500 126.2500 Du        
  44039 ****       130.7500 155.7500 126.5000 Du        
  44040 ****       130.7500 155.7500 126.7500 Du        
  44041 ****       130.7500 155.7500 127.0000 Du        
  44042 ****       130.7500 155.7500 127.2500 Du        
  44043 ****       130.7500 155.7500 127.5000 Du        
  44044 ****       130.7500 155.7500 127.7500 Du        
  44045 ****       130.7500 156.0000 126.0000 Du        
  44046 ****       130.7500 156.0000 126.2500 Du        
  44047 ****       130.7500 156.0000 126.5000 Du        
  44048 ****       130.7500 156.0000 126.7500 Du        
  44049 ****       130.7500 156.0000 127.0000 Du        
  44050 ****       130.7500 156.0000 127.2500 Du        
  44051 ****       130.7500 156.0000 127.5000 Du        
  44052 ****       130.7500 156.0000 127.7500 Du        
  44053 ****       130.7500 156.2500 126.0000 Du        
  44054 ****       130.7500 156.2500 126.2500 Du        
  44055 ****       130.7500 156.2500 126.5000 Du        
  44056 ****       130.7500 156.2500 126.7500 Du        
  44057 ****       130.7500 156.2500 127.0000 Du        
  44058 ****       130.7500 156.2500 127.2500 Du        
  44059 ****       130.7500 156.5000 126.0000 Du        
  44060 ****       130.7500 156.5000 126.2500 Du        
  44061 ****       130.7500 156.5000 126.5000 Du        
  44062 ****       130.7500 156.5000 126.7500 Du        
  44063 ****       130.7500 156.5000 127.0000 Du        
  44064 ****       130.7500 156.5000 137.7500 Du        
  44065 ****       130.7500 156.5000 138.0000 Du        
  44066 ****       130.7500 156.7500 126.2500 Du        
  44067 ****       130.7500 156.7500 126.5000 Du        
  44068 ****       130.7500 156.7500 126.7500 Du        
  44069 ****       130.7500 156.7500 137.5000 Du        
  44070 ****       130.7500 156.7500 137.7500 Du        
  44071 ****       130.7500 156.7500 138.0000 Du        
  44072 ****       130.7500 156.7500 138.2500 Du        
  44073 ****       130.7500 156.7500 138.5000 Du        
  44074 ****       130.7500 156.7500 138.7500 Du        
  44075 ****       130.7500 156.7500 139.0000 Du        
  44076 ****       130.7500 157.0000 137.2500 Du        
  44077 ****       130.7500 157.0000 137.5000 Du        
  44078 ****       130.7500 157.0000 137.7500 Du        
  44079 ****       130.7500 157.0000 138.0000 Du        
  44080 ****       130.7500 157.0000 138.2500 Du        
  44081 ****       130.7500 157.0000 138.5000 Du        
  44082 ****       130.7500 157.0000 138.7500 Du        
  44083 ****       130.7500 157.0000 139.0000 Du        
  44084 ****       130.7500 157.0000 139.2500 Du        
  44085 ****       130.7500 157.0000 139.5000 Du        
  44086 ****       130.7500 157.2500 116.5000 Du        
  44087 ****       130.7500 157.2500 116.7500 Du        
  44088 ****       130.7500 157.2500 137.0000 Du        
  44089 ****       130.7500 157.2500 137.2500 Du        
  44090 ****       130.7500 157.2500 137.5000 Du        
  44091 ****       130.7500 157.2500 137.7500 Du        
  44092 ****       130.7500 157.2500 138.0000 Du        
  44093 ****       130.7500 157.2500 138.2500 Du        
  44094 ****       130.7500 157.2500 138.5000 Du        
  44095 ****       130.7500 157.2500 138.7500 Du        
  44096 ****       130.7500 157.2500 139.0000 Du        
  44097 ****       130.7500 157.2500 139.2500 Du        
  44098 ****       130.7500 157.5000 116.0000 Du        
  44099 ****       130.7500 157.5000 116.2500 Du        
  44100 ****       130.7500 157.5000 116.5000 Du        
  44101 ****       130.7500 157.5000 116.7500 Du        
  44102 ****       130.7500 157.5000 136.7500 Du        
  44103 ****       130.7500 157.5000 137.0000 Du        
  44104 ****       130.7500 157.5000 137.2500 Du        
  44105 ****       130.7500 157.5000 137.5000 Du        
  44106 ****       130.7500 157.5000 137.7500 Du        
  44107 ****       130.7500 157.5000 138.0000 Du        
  44108 ****       130.7500 157.5000 138.2500 Du        
  44109 ****       130.7500 157.5000 138.5000 Du        
  44110 ****       130.7500 157.5000 138.7500 Du        
  44111 ****       130.7500 157.5000 139.0000 Du        
  44112 ****       130.7500 157.5000 139.2500 Du        
  44113 ****       130.7500 157.7500 115.5000 Du        
  44114 ****       130.7500 157.7500 115.7500 Du        
  44115 ****       130.7500 157.7500 116.0000 Du        
  44116 ****       130.7500 157.7500 116.2500 Du        
  44117 ****       130.7500 157.7500 116.5000 Du        
  44118 ****       130.7500 157.7500 116.7500 Du        
  44119 ****       130.7500 157.7500 136.5000 Du        
  44120 ****       130.7500 157.7500 136.7500 Du        
  44121 ****       130.7500 157.7500 137.0000 Du        
  44122 ****       130.7500 157.7500 137.2500 Du        
  44123 ****       130.7500 157.7500 137.5000 Du        
  44124 ****       130.7500 157.7500 137.7500 Du        
  44125 ****       130.7500 157.7500 138.0000 Du        
  44126 ****       130.7500 157.7500 138.2500 Du        
  44127 ****       130.7500 157.7500 138.5000 Du        
  44128 ****       130.7500 157.7500 138.7500 Du        
  44129 ****       130.7500 157.7500 139.0000 Du        
  44130 ****       130.7500 157.7500 139.2500 Du        
  44131 ****       130.7500 158.0000 115.2500 Du        
  44132 ****       130.7500 158.0000 115.5000 Du        
  44133 ****       130.7500 158.0000 115.7500 Du        
  44134 ****       130.7500 158.0000 116.0000 Du        
  44135 ****       130.7500 158.0000 116.2500 Du        
  44136 ****       130.7500 158.0000 116.5000 Du        
  44137 ****       130.7500 158.0000 136.5000 Du        
  44138 ****       130.7500 158.0000 136.7500 Du        
  44139 ****       130.7500 158.0000 137.0000 Du        
  44140 ****       130.7500 158.0000 137.2500 Du        
  44141 ****       130.7500 158.0000 137.5000 Du        
  44142 ****       130.7500 158.0000 137.7500 Du        
  44143 ****       130.7500 158.0000 138.0000 Du        
  44144 ****       130.7500 158.0000 138.2500 Du        
  44145 ****       130.7500 158.0000 138.5000 Du        
  44146 ****       130.7500 158.0000 138.7500 Du        
  44147 ****       130.7500 158.0000 139.0000 Du        
  44148 ****       130.7500 158.2500 115.2500 Du        
  44149 ****       130.7500 158.2500 115.5000 Du        
  44150 ****       130.7500 158.2500 115.7500 Du        
  44151 ****       130.7500 158.2500 116.0000 Du        
  44152 ****       130.7500 158.2500 116.2500 Du        
  44153 ****       130.7500 158.2500 116.5000 Du        
  44154 ****       130.7500 158.2500 136.5000 Du        
  44155 ****       130.7500 158.2500 136.7500 Du        
  44156 ****       130.7500 158.2500 137.0000 Du        
  44157 ****       130.7500 158.2500 137.2500 Du        
  44158 ****       130.7500 158.2500 137.5000 Du        
  44159 ****       130.7500 158.2500 137.7500 Du        
  44160 ****       130.7500 158.2500 138.0000 Du        
  44161 ****       130.7500 158.2500 138.2500 Du        
  44162 ****       130.7500 158.2500 138.5000 Du        
  44163 ****       130.7500 158.2500 138.7500 Du        
  44164 ****       130.7500 158.2500 139.0000 Du        
  44165 ****       130.7500 158.5000 115.2500 Du        
  44166 ****       130.7500 158.5000 115.5000 Du        
  44167 ****       130.7500 158.5000 115.7500 Du        
  44168 ****       130.7500 158.5000 116.0000 Du        
  44169 ****       130.7500 158.5000 136.5000 Du        
  44170 ****       130.7500 158.5000 136.7500 Du        
  44171 ****       130.7500 158.5000 137.0000 Du        
  44172 ****       130.7500 158.5000 137.2500 Du        
  44173 ****       130.7500 158.5000 137.5000 Du        
  44174 ****       130.7500 158.5000 137.7500 Du        
  44175 ****       130.7500 158.5000 138.0000 Du        
  44176 ****       130.7500 158.5000 138.2500 Du        
  44177 ****       130.7500 158.5000 138.5000 Du        
  44178 ****       130.7500 158.5000 138.7500 Du        
  44179 ****       130.7500 158.5000 139.0000 Du        
  44180 ****       130.7500 158.7500 115.5000 Du        
  44181 ****       130.7500 158.7500 115.7500 Du        
  44182 ****       130.7500 158.7500 136.5000 Du        
  44183 ****       130.7500 158.7500 136.7500 Du        
  44184 ****       130.7500 158.7500 137.0000 Du        
  44185 ****       130.7500 158.7500 137.2500 Du        
  44186 ****       130.7500 158.7500 137.5000 Du        
  44187 ****       130.7500 158.7500 137.7500 Du        
  44188 ****       130.7500 158.7500 138.0000 Du        
  44189 ****       130.7500 158.7500 138.2500 Du        
  44190 ****       130.7500 158.7500 138.5000 Du        
  44191 ****       130.7500 158.7500 138.7500 Du        
  44192 ****       130.7500 158.7500 139.0000 Du        
  44193 ****       130.7500 159.0000 136.7500 Du        
  44194 ****       130.7500 159.0000 137.0000 Du        
  44195 ****       130.7500 159.0000 137.2500 Du        
  44196 ****       130.7500 159.0000 137.5000 Du        
  44197 ****       130.7500 159.0000 137.7500 Du        
  44198 ****       130.7500 159.0000 138.0000 Du        
  44199 ****       130.7500 159.0000 138.2500 Du        
  44200 ****       130.7500 159.0000 138.5000 Du        
  44201 ****       130.7500 159.0000 138.7500 Du        
  44202 ****       130.7500 159.0000 139.0000 Du        
  44203 ****       130.7500 159.2500 137.0000 Du        
  44204 ****       130.7500 159.2500 137.7500 Du        
  44205 ****       130.7500 159.2500 138.0000 Du        
  44206 ****       130.7500 159.2500 138.2500 Du        
  44207 ****       130.7500 159.2500 138.5000 Du        
  44208 ****       130.7500 159.2500 138.7500 Du        
  44209 ****       130.7500 159.2500 139.0000 Du        
  44210 ****       130.7500 159.5000 138.7500 Du        
  44211 ****       131.0000 133.0000 126.7500 Du        
  44212 ****       131.0000 133.0000 127.0000 Du        
  44213 ****       131.0000 133.0000 127.2500 Du        
  44214 ****       131.0000 141.5000 136.7500 Du        
  44215 ****       131.0000 141.5000 137.0000 Du        
  44216 ****       131.0000 141.5000 137.2500 Du        
  44217 ****       131.0000 141.7500 137.0000 Du        
  44218 ****       131.0000 141.7500 137.2500 Du        
  44219 ****       131.0000 143.2500 116.7500 Du        
  44220 ****       131.0000 143.2500 117.0000 Du        
  44221 ****       131.0000 143.2500 117.2500 Du        
  44222 ****       131.0000 143.5000 116.5000 Du        
  44223 ****       131.0000 143.5000 116.7500 Du        
  44224 ****       131.0000 143.5000 117.0000 Du        
  44225 ****       131.0000 143.5000 117.2500 Du        
  44226 ****       131.0000 143.5000 117.5000 Du        
  44227 ****       131.0000 143.7500 116.0000 Du        
  44228 ****       131.0000 143.7500 116.2500 Du        
  44229 ****       131.0000 143.7500 116.5000 Du        
  44230 ****       131.0000 143.7500 116.7500 Du        
  44231 ****       131.0000 143.7500 117.0000 Du        
  44232 ****       131.0000 143.7500 117.2500 Du        
  44233 ****       131.0000 143.7500 117.5000 Du        
  44234 ****       131.0000 144.0000 115.7500 Du        
  44235 ****       131.0000 144.0000 116.0000 Du        
  44236 ****       131.0000 144.0000 116.2500 Du        
  44237 ****       131.0000 144.0000 116.5000 Du        
  44238 ****       131.0000 144.0000 116.7500 Du        
  44239 ****       131.0000 144.0000 117.0000 Du        
  44240 ****       131.0000 144.0000 117.2500 Du        
  44241 ****       131.0000 144.0000 117.5000 Du        
  44242 ****       131.0000 144.2500 115.7500 Du        
  44243 ****       131.0000 144.2500 116.0000 Du        
  44244 ****       131.0000 144.2500 116.2500 Du        
  44245 ****       131.0000 144.2500 116.5000 Du        
  44246 ****       131.0000 144.2500 116.7500 Du        
  44247 ****       131.0000 144.2500 117.0000 Du        
  44248 ****       131.0000 144.2500 117.2500 Du        
  44249 ****       131.0000 144.2500 117.5000 Du        
  44250 ****       131.0000 144.2500 117.7500 Du        
  44251 ****       131.0000 144.5000 116.0000 Du        
  44252 ****       131.0000 144.5000 116.2500 Du        
  44253 ****       131.0000 144.5000 116.5000 Du        
  44254 ****       131.0000 144.5000 116.7500 Du        
  44255 ****       131.0000 144.5000 117.0000 Du        
  44256 ****       131.0000 144.5000 117.2500 Du        
  44257 ****       131.0000 144.5000 117.5000 Du        
  44258 ****       131.0000 144.5000 117.7500 Du        
  44259 ****       131.0000 144.7500 116.0000 Du        
  44260 ****       131.0000 144.7500 116.2500 Du        
  44261 ****       131.0000 144.7500 116.5000 Du        
  44262 ****       131.0000 144.7500 116.7500 Du        
  44263 ****       131.0000 144.7500 117.0000 Du        
  44264 ****       131.0000 144.7500 117.2500 Du        
  44265 ****       131.0000 144.7500 117.5000 Du        
  44266 ****       131.0000 144.7500 117.7500 Du        
  44267 ****       131.0000 145.0000 116.0000 Du        
  44268 ****       131.0000 145.0000 116.2500 Du        
  44269 ****       131.0000 145.0000 116.5000 Du        
  44270 ****       131.0000 145.0000 116.7500 Du        
  44271 ****       131.0000 145.0000 117.0000 Du        
  44272 ****       131.0000 145.0000 117.2500 Du        
  44273 ****       131.0000 145.0000 117.5000 Du        
  44274 ****       131.0000 145.0000 117.7500 Du        
  44275 ****       131.0000 145.0000 118.0000 Du        
  44276 ****       131.0000 145.0000 147.0000 Du        
  44277 ****       131.0000 145.2500 116.2500 Du        
  44278 ****       131.0000 145.2500 116.5000 Du        
  44279 ****       131.0000 145.2500 116.7500 Du        
  44280 ****       131.0000 145.2500 117.0000 Du        
  44281 ****       131.0000 145.2500 117.2500 Du        
  44282 ****       131.0000 145.2500 117.5000 Du        
  44283 ****       131.0000 145.2500 117.7500 Du        
  44284 ****       131.0000 145.2500 118.0000 Du        
  44285 ****       131.0000 145.2500 146.5000 Du        
  44286 ****       131.0000 145.2500 146.7500 Du        
  44287 ****       131.0000 145.2500 147.0000 Du        
  44288 ****       131.0000 145.2500 147.2500 Du        
  44289 ****       131.0000 145.5000 116.5000 Du        
  44290 ****       131.0000 145.5000 116.7500 Du        
  44291 ****       131.0000 145.5000 117.0000 Du        
  44292 ****       131.0000 145.5000 117.2500 Du        
  44293 ****       131.0000 145.5000 117.5000 Du        
  44294 ****       131.0000 145.5000 117.7500 Du        
  44295 ****       131.0000 145.5000 146.5000 Du        
  44296 ****       131.0000 145.5000 146.7500 Du        
  44297 ****       131.0000 145.5000 147.0000 Du        
  44298 ****       131.0000 145.7500 116.5000 Du        
  44299 ****       131.0000 145.7500 116.7500 Du        
  44300 ****       131.0000 145.7500 117.0000 Du        
  44301 ****       131.0000 145.7500 117.2500 Du        
  44302 ****       131.0000 145.7500 117.5000 Du        
  44303 ****       131.0000 145.7500 146.2500 Du        
  44304 ****       131.0000 145.7500 146.5000 Du        
  44305 ****       131.0000 145.7500 146.7500 Du        
  44306 ****       131.0000 145.7500 147.0000 Du        
  44307 ****       131.0000 146.0000 116.7500 Du        
  44308 ****       131.0000 146.0000 117.0000 Du        
  44309 ****       131.0000 146.0000 117.2500 Du        
  44310 ****       131.0000 146.0000 146.2500 Du        
  44311 ****       131.0000 146.0000 146.5000 Du        
  44312 ****       131.0000 146.0000 146.7500 Du        
  44313 ****       131.0000 146.0000 147.0000 Du        
  44314 ****       131.0000 146.2500 146.0000 Du        
  44315 ****       131.0000 146.2500 146.2500 Du        
  44316 ****       131.0000 146.2500 146.5000 Du        
  44317 ****       131.0000 146.2500 146.7500 Du        
  44318 ****       131.0000 146.5000 146.0000 Du        
  44319 ****       131.0000 146.5000 146.2500 Du        
  44320 ****       131.0000 146.5000 146.5000 Du        
  44321 ****       131.0000 146.7500 121.2500 Du        
  44322 ****       131.0000 146.7500 121.5000 Du        
  44323 ****       131.0000 146.7500 121.7500 Du        
  44324 ****       131.0000 146.7500 127.7500 Du        
  44325 ****       131.0000 146.7500 128.0000 Du        
  44326 ****       131.0000 146.7500 128.2500 Du        
  44327 ****       131.0000 146.7500 128.5000 Du        
  44328 ****       131.0000 146.7500 128.7500 Du        
  44329 ****       131.0000 146.7500 146.0000 Du        
  44330 ****       131.0000 146.7500 146.2500 Du        
  44331 ****       131.0000 147.0000 121.2500 Du        
  44332 ****       131.0000 147.0000 121.5000 Du        
  44333 ****       131.0000 147.0000 121.7500 Du        
  44334 ****       131.0000 147.0000 122.0000 Du        
  44335 ****       131.0000 147.0000 122.2500 Du        
  44336 ****       131.0000 147.0000 122.5000 Du        
  44337 ****       131.0000 147.0000 122.7500 Du        
  44338 ****       131.0000 147.0000 123.0000 Du        
  44339 ****       131.0000 147.0000 123.2500 Du        
  44340 ****       131.0000 147.0000 123.7500 Du        
  44341 ****       131.0000 147.0000 127.7500 Du        
  44342 ****       131.0000 147.0000 128.0000 Du        
  44343 ****       131.0000 147.0000 128.2500 Du        
  44344 ****       131.0000 147.0000 128.5000 Du        
  44345 ****       131.0000 147.0000 128.7500 Du        
  44346 ****       131.0000 147.0000 129.0000 Du        
  44347 ****       131.0000 147.0000 129.2500 Du        
  44348 ****       131.0000 147.0000 146.0000 Du        
  44349 ****       131.0000 147.0000 146.2500 Du        
  44350 ****       131.0000 147.2500 121.2500 Du        
  44351 ****       131.0000 147.2500 121.5000 Du        
  44352 ****       131.0000 147.2500 121.7500 Du        
  44353 ****       131.0000 147.2500 122.0000 Du        
  44354 ****       131.0000 147.2500 122.2500 Du        
  44355 ****       131.0000 147.2500 122.5000 Du        
  44356 ****       131.0000 147.2500 122.7500 Du        
  44357 ****       131.0000 147.2500 123.0000 Du        
  44358 ****       131.0000 147.2500 123.2500 Du        
  44359 ****       131.0000 147.2500 124.0000 Du        
  44360 ****       131.0000 147.2500 124.2500 Du        
  44361 ****       131.0000 147.2500 128.2500 Du        
  44362 ****       131.0000 147.2500 128.5000 Du        
  44363 ****       131.0000 147.2500 128.7500 Du        
  44364 ****       131.0000 147.2500 129.0000 Du        
  44365 ****       131.0000 147.2500 129.2500 Du        
  44366 ****       131.0000 147.2500 129.5000 Du        
  44367 ****       131.0000 147.2500 129.7500 Du        
  44368 ****       131.0000 147.5000 121.5000 Du        
  44369 ****       131.0000 147.5000 121.7500 Du        
  44370 ****       131.0000 147.5000 122.0000 Du        
  44371 ****       131.0000 147.5000 122.2500 Du        
  44372 ****       131.0000 147.5000 122.5000 Du        
  44373 ****       131.0000 147.5000 122.7500 Du        
  44374 ****       131.0000 147.5000 123.0000 Du        
  44375 ****       131.0000 147.5000 123.2500 Du        
  44376 ****       131.0000 147.5000 123.5000 Du        
  44377 ****       131.0000 147.5000 129.0000 Du        
  44378 ****       131.0000 147.5000 129.2500 Du        
  44379 ****       131.0000 147.5000 129.5000 Du        
  44380 ****       131.0000 147.7500 121.5000 Du        
  44381 ****       131.0000 147.7500 121.7500 Du        
  44382 ****       131.0000 147.7500 122.0000 Du        
  44383 ****       131.0000 147.7500 122.2500 Du        
  44384 ****       131.0000 147.7500 122.5000 Du        
  44385 ****       131.0000 147.7500 122.7500 Du        
  44386 ****       131.0000 147.7500 123.0000 Du        
  44387 ****       131.0000 147.7500 123.2500 Du        
  44388 ****       131.0000 147.7500 123.5000 Du        
  44389 ****       131.0000 147.7500 129.2500 Du        
  44390 ****       131.0000 147.7500 129.5000 Du        
  44391 ****       131.0000 147.7500 129.7500 Du        
  44392 ****       131.0000 147.7500 130.0000 Du        
  44393 ****       131.0000 148.0000 121.5000 Du        
  44394 ****       131.0000 148.0000 121.7500 Du        
  44395 ****       131.0000 148.0000 122.0000 Du        
  44396 ****       131.0000 148.0000 122.2500 Du        
  44397 ****       131.0000 148.0000 122.5000 Du        
  44398 ****       131.0000 148.0000 122.7500 Du        
  44399 ****       131.0000 148.0000 123.0000 Du        
  44400 ****       131.0000 148.0000 123.2500 Du        
  44401 ****       131.0000 148.0000 123.5000 Du        
  44402 ****       131.0000 148.0000 123.7500 Du        
  44403 ****       131.0000 148.2500 121.5000 Du        
  44404 ****       131.0000 148.2500 121.7500 Du        
  44405 ****       131.0000 148.2500 122.0000 Du        
  44406 ****       131.0000 148.2500 122.2500 Du        
  44407 ****       131.0000 148.2500 122.5000 Du        
  44408 ****       131.0000 148.2500 122.7500 Du        
  44409 ****       131.0000 148.2500 123.0000 Du        
  44410 ****       131.0000 148.2500 123.2500 Du        
  44411 ****       131.0000 148.2500 123.5000 Du        
  44412 ****       131.0000 148.5000 121.5000 Du        
  44413 ****       131.0000 148.5000 121.7500 Du        
  44414 ****       131.0000 148.5000 122.0000 Du        
  44415 ****       131.0000 148.5000 122.2500 Du        
  44416 ****       131.0000 148.5000 122.5000 Du        
  44417 ****       131.0000 148.5000 122.7500 Du        
  44418 ****       131.0000 148.5000 123.0000 Du        
  44419 ****       131.0000 148.5000 123.2500 Du        
  44420 ****       131.0000 148.7500 121.7500 Du        
  44421 ****       131.0000 148.7500 122.0000 Du        
  44422 ****       131.0000 148.7500 122.2500 Du        
  44423 ****       131.0000 148.7500 122.5000 Du        
  44424 ****       131.0000 148.7500 122.7500 Du        
  44425 ****       131.0000 148.7500 123.0000 Du        
  44426 ****       131.0000 149.0000 122.0000 Du        
  44427 ****       131.0000 151.0000 144.0000 Du        
  44428 ****       131.0000 151.0000 144.2500 Du        
  44429 ****       131.0000 151.0000 144.5000 Du        
  44430 ****       131.0000 151.0000 144.7500 Du        
  44431 ****       131.0000 151.0000 145.0000 Du        
  44432 ****       131.0000 151.2500 144.0000 Du        
  44433 ****       131.0000 151.2500 144.2500 Du        
  44434 ****       131.0000 151.2500 144.5000 Du        
  44435 ****       131.0000 151.2500 144.7500 Du        
  44436 ****       131.0000 151.2500 145.0000 Du        
  44437 ****       131.0000 151.5000 144.0000 Du        
  44438 ****       131.0000 151.5000 144.2500 Du        
  44439 ****       131.0000 151.5000 144.5000 Du        
  44440 ****       131.0000 151.5000 144.7500 Du        
  44441 ****       131.0000 151.5000 145.0000 Du        
  44442 ****       131.0000 151.5000 145.2500 Du        
  44443 ****       131.0000 151.7500 144.0000 Du        
  44444 ****       131.0000 151.7500 144.2500 Du        
  44445 ****       131.0000 151.7500 144.5000 Du        
  44446 ****       131.0000 151.7500 144.7500 Du        
  44447 ****       131.0000 151.7500 145.0000 Du        
  44448 ****       131.0000 151.7500 145.2500 Du        
  44449 ****       131.0000 152.0000 144.0000 Du        
  44450 ****       131.0000 152.0000 144.2500 Du        
  44451 ****       131.0000 152.0000 144.5000 Du        
  44452 ****       131.0000 152.0000 144.7500 Du        
  44453 ****       131.0000 152.0000 145.0000 Du        
  44454 ****       131.0000 152.0000 145.2500 Du        
  44455 ****       131.0000 152.2500 144.0000 Du        
  44456 ****       131.0000 152.2500 144.2500 Du        
  44457 ****       131.0000 152.2500 144.5000 Du        
  44458 ****       131.0000 152.2500 144.7500 Du        
  44459 ****       131.0000 152.2500 145.0000 Du        
  44460 ****       131.0000 152.2500 145.2500 Du        
  44461 ****       131.0000 152.5000 144.0000 Du        
  44462 ****       131.0000 152.5000 144.2500 Du        
  44463 ****       131.0000 152.5000 144.5000 Du        
  44464 ****       131.0000 152.5000 144.7500 Du        
  44465 ****       131.0000 152.5000 145.0000 Du        
  44466 ****       131.0000 152.5000 145.2500 Du        
  44467 ****       131.0000 152.7500 144.0000 Du        
  44468 ****       131.0000 152.7500 144.2500 Du        
  44469 ****       131.0000 152.7500 144.5000 Du        
  44470 ****       131.0000 152.7500 144.7500 Du        
  44471 ****       131.0000 152.7500 145.0000 Du        
  44472 ****       131.0000 152.7500 145.2500 Du        
  44473 ****       131.0000 152.7500 145.5000 Du        
  44474 ****       131.0000 152.7500 145.7500 Du        
  44475 ****       131.0000 153.0000 144.0000 Du        
  44476 ****       131.0000 153.0000 144.2500 Du        
  44477 ****       131.0000 153.0000 144.5000 Du        
  44478 ****       131.0000 153.0000 144.7500 Du        
  44479 ****       131.0000 153.0000 145.0000 Du        
  44480 ****       131.0000 153.0000 145.2500 Du        
  44481 ****       131.0000 153.0000 145.5000 Du        
  44482 ****       131.0000 153.0000 145.7500 Du        
  44483 ****       131.0000 153.2500 144.0000 Du        
  44484 ****       131.0000 153.2500 144.2500 Du        
  44485 ****       131.0000 153.2500 144.5000 Du        
  44486 ****       131.0000 153.2500 144.7500 Du        
  44487 ****       131.0000 153.2500 145.0000 Du        
  44488 ****       131.0000 153.2500 145.2500 Du        
  44489 ****       131.0000 153.2500 145.5000 Du        
  44490 ****       131.0000 153.2500 145.7500 Du        
  44491 ****       131.0000 153.2500 146.0000 Du        
  44492 ****       131.0000 153.5000 144.0000 Du        
  44493 ****       131.0000 153.5000 144.2500 Du        
  44494 ****       131.0000 153.5000 144.5000 Du        
  44495 ****       131.0000 153.5000 144.7500 Du        
  44496 ****       131.0000 153.5000 145.0000 Du        
  44497 ****       131.0000 153.5000 145.2500 Du        
  44498 ****       131.0000 153.5000 145.5000 Du        
  44499 ****       131.0000 153.5000 145.7500 Du        
  44500 ****       131.0000 153.5000 146.0000 Du        
  44501 ****       131.0000 153.5000 146.2500 Du        
  44502 ****       131.0000 153.7500 144.0000 Du        
  44503 ****       131.0000 153.7500 144.2500 Du        
  44504 ****       131.0000 153.7500 144.5000 Du        
  44505 ****       131.0000 153.7500 144.7500 Du        
  44506 ****       131.0000 153.7500 145.0000 Du        
  44507 ****       131.0000 153.7500 145.2500 Du        
  44508 ****       131.0000 153.7500 145.5000 Du        
  44509 ****       131.0000 153.7500 145.7500 Du        
  44510 ****       131.0000 153.7500 146.0000 Du        
  44511 ****       131.0000 153.7500 146.2500 Du        
  44512 ****       131.0000 154.0000 144.0000 Du        
  44513 ****       131.0000 154.0000 144.2500 Du        
  44514 ****       131.0000 154.0000 144.5000 Du        
  44515 ****       131.0000 154.0000 144.7500 Du        
  44516 ****       131.0000 154.0000 145.0000 Du        
  44517 ****       131.0000 154.0000 145.2500 Du        
  44518 ****       131.0000 154.0000 145.5000 Du        
  44519 ****       131.0000 154.0000 145.7500 Du        
  44520 ****       131.0000 154.0000 146.0000 Du        
  44521 ****       131.0000 154.2500 144.0000 Du        
  44522 ****       131.0000 154.2500 144.2500 Du        
  44523 ****       131.0000 154.2500 144.5000 Du        
  44524 ****       131.0000 154.2500 144.7500 Du        
  44525 ****       131.0000 154.2500 145.0000 Du        
  44526 ****       131.0000 154.2500 145.2500 Du        
  44527 ****       131.0000 154.2500 145.5000 Du        
  44528 ****       131.0000 154.2500 145.7500 Du        
  44529 ****       131.0000 154.5000 144.0000 Du        
  44530 ****       131.0000 154.5000 144.2500 Du        
  44531 ****       131.0000 154.5000 144.5000 Du        
  44532 ****       131.0000 154.5000 144.7500 Du        
  44533 ****       131.0000 154.5000 145.0000 Du        
  44534 ****       131.0000 154.5000 145.2500 Du        
  44535 ****       131.0000 154.5000 145.5000 Du        
  44536 ****       131.0000 154.7500 144.2500 Du        
  44537 ****       131.0000 154.7500 144.5000 Du        
  44538 ****       131.0000 154.7500 144.7500 Du        
  44539 ****       131.0000 154.7500 145.0000 Du        
  44540 ****       131.0000 154.7500 145.2500 Du        
  44541 ****       131.0000 155.0000 127.0000 Du        
  44542 ****       131.0000 155.0000 127.2500 Du        
  44543 ****       131.0000 155.0000 127.7500 Du        
  44544 ****       131.0000 155.0000 128.0000 Du        
  44545 ****       131.0000 155.0000 144.7500 Du        
  44546 ****       131.0000 155.0000 145.0000 Du        
  44547 ****       131.0000 155.2500 126.7500 Du        
  44548 ****       131.0000 155.2500 127.0000 Du        
  44549 ****       131.0000 155.2500 127.2500 Du        
  44550 ****       131.0000 155.5000 126.2500 Du        
  44551 ****       131.0000 155.5000 126.5000 Du        
  44552 ****       131.0000 155.5000 126.7500 Du        
  44553 ****       131.0000 155.5000 127.0000 Du        
  44554 ****       131.0000 155.5000 127.2500 Du        
  44555 ****       131.0000 155.5000 127.5000 Du        
  44556 ****       131.0000 155.5000 127.7500 Du        
  44557 ****       131.0000 155.7500 126.0000 Du        
  44558 ****       131.0000 155.7500 126.2500 Du        
  44559 ****       131.0000 155.7500 126.5000 Du        
  44560 ****       131.0000 155.7500 126.7500 Du        
  44561 ****       131.0000 155.7500 127.0000 Du        
  44562 ****       131.0000 155.7500 127.2500 Du        
  44563 ****       131.0000 155.7500 127.5000 Du        
  44564 ****       131.0000 156.0000 126.0000 Du        
  44565 ****       131.0000 156.0000 126.2500 Du        
  44566 ****       131.0000 156.0000 126.5000 Du        
  44567 ****       131.0000 156.0000 126.7500 Du        
  44568 ****       131.0000 156.0000 127.0000 Du        
  44569 ****       131.0000 156.0000 127.2500 Du        
  44570 ****       131.0000 156.2500 126.0000 Du        
  44571 ****       131.0000 156.2500 126.2500 Du        
  44572 ****       131.0000 156.2500 126.5000 Du        
  44573 ****       131.0000 156.2500 126.7500 Du        
  44574 ****       131.0000 156.2500 127.0000 Du        
  44575 ****       131.0000 156.2500 127.2500 Du        
  44576 ****       131.0000 156.5000 126.0000 Du        
  44577 ****       131.0000 156.5000 126.2500 Du        
  44578 ****       131.0000 156.5000 126.5000 Du        
  44579 ****       131.0000 156.5000 126.7500 Du        
  44580 ****       131.0000 156.5000 127.0000 Du        
  44581 ****       131.0000 156.5000 137.7500 Du        
  44582 ****       131.0000 156.5000 138.0000 Du        
  44583 ****       131.0000 156.7500 126.0000 Du        
  44584 ****       131.0000 156.7500 126.2500 Du        
  44585 ****       131.0000 156.7500 126.5000 Du        
  44586 ****       131.0000 156.7500 126.7500 Du        
  44587 ****       131.0000 156.7500 127.0000 Du        
  44588 ****       131.0000 156.7500 137.5000 Du        
  44589 ****       131.0000 156.7500 137.7500 Du        
  44590 ****       131.0000 156.7500 138.0000 Du        
  44591 ****       131.0000 156.7500 138.2500 Du        
  44592 ****       131.0000 156.7500 138.5000 Du        
  44593 ****       131.0000 156.7500 138.7500 Du        
  44594 ****       131.0000 156.7500 139.0000 Du        
  44595 ****       131.0000 157.0000 116.7500 Du        
  44596 ****       131.0000 157.0000 117.0000 Du        
  44597 ****       131.0000 157.0000 126.2500 Du        
  44598 ****       131.0000 157.0000 126.5000 Du        
  44599 ****       131.0000 157.0000 137.2500 Du        
  44600 ****       131.0000 157.0000 137.5000 Du        
  44601 ****       131.0000 157.0000 137.7500 Du        
  44602 ****       131.0000 157.0000 138.0000 Du        
  44603 ****       131.0000 157.0000 138.2500 Du        
  44604 ****       131.0000 157.0000 138.5000 Du        
  44605 ****       131.0000 157.0000 138.7500 Du        
  44606 ****       131.0000 157.0000 139.0000 Du        
  44607 ****       131.0000 157.0000 139.2500 Du        
  44608 ****       131.0000 157.0000 139.5000 Du        
  44609 ****       131.0000 157.0000 139.7500 Du        
  44610 ****       131.0000 157.2500 116.5000 Du        
  44611 ****       131.0000 157.2500 116.7500 Du        
  44612 ****       131.0000 157.2500 117.0000 Du        
  44613 ****       131.0000 157.2500 137.0000 Du        
  44614 ****       131.0000 157.2500 137.2500 Du        
  44615 ****       131.0000 157.2500 137.5000 Du        
  44616 ****       131.0000 157.2500 137.7500 Du        
  44617 ****       131.0000 157.2500 138.0000 Du        
  44618 ****       131.0000 157.2500 138.2500 Du        
  44619 ****       131.0000 157.2500 138.5000 Du        
  44620 ****       131.0000 157.2500 138.7500 Du        
  44621 ****       131.0000 157.2500 139.0000 Du        
  44622 ****       131.0000 157.2500 139.2500 Du        
  44623 ****       131.0000 157.2500 139.5000 Du        
  44624 ****       131.0000 157.5000 116.2500 Du        
  44625 ****       131.0000 157.5000 116.5000 Du        
  44626 ****       131.0000 157.5000 116.7500 Du        
  44627 ****       131.0000 157.5000 136.7500 Du        
  44628 ****       131.0000 157.5000 137.0000 Du        
  44629 ****       131.0000 157.5000 137.2500 Du        
  44630 ****       131.0000 157.5000 137.5000 Du        
  44631 ****       131.0000 157.5000 137.7500 Du        
  44632 ****       131.0000 157.5000 138.0000 Du        
  44633 ****       131.0000 157.5000 138.2500 Du        
  44634 ****       131.0000 157.5000 138.5000 Du        
  44635 ****       131.0000 157.5000 138.7500 Du        
  44636 ****       131.0000 157.5000 139.0000 Du        
  44637 ****       131.0000 157.5000 139.2500 Du        
  44638 ****       131.0000 157.7500 115.7500 Du        
  44639 ****       131.0000 157.7500 116.0000 Du        
  44640 ****       131.0000 157.7500 116.2500 Du        
  44641 ****       131.0000 157.7500 116.5000 Du        
  44642 ****       131.0000 157.7500 116.7500 Du        
  44643 ****       131.0000 157.7500 136.5000 Du        
  44644 ****       131.0000 157.7500 136.7500 Du        
  44645 ****       131.0000 157.7500 137.0000 Du        
  44646 ****       131.0000 157.7500 137.2500 Du        
  44647 ****       131.0000 157.7500 137.5000 Du        
  44648 ****       131.0000 157.7500 137.7500 Du        
  44649 ****       131.0000 157.7500 138.0000 Du        
  44650 ****       131.0000 157.7500 138.2500 Du        
  44651 ****       131.0000 157.7500 138.5000 Du        
  44652 ****       131.0000 157.7500 138.7500 Du        
  44653 ****       131.0000 157.7500 139.0000 Du        
  44654 ****       131.0000 157.7500 139.2500 Du        
  44655 ****       131.0000 158.0000 115.5000 Du        
  44656 ****       131.0000 158.0000 115.7500 Du        
  44657 ****       131.0000 158.0000 116.0000 Du        
  44658 ****       131.0000 158.0000 116.2500 Du        
  44659 ****       131.0000 158.0000 116.5000 Du        
  44660 ****       131.0000 158.0000 116.7500 Du        
  44661 ****       131.0000 158.0000 136.5000 Du        
  44662 ****       131.0000 158.0000 136.7500 Du        
  44663 ****       131.0000 158.0000 137.0000 Du        
  44664 ****       131.0000 158.0000 137.2500 Du        
  44665 ****       131.0000 158.0000 137.5000 Du        
  44666 ****       131.0000 158.0000 137.7500 Du        
  44667 ****       131.0000 158.0000 138.0000 Du        
  44668 ****       131.0000 158.0000 138.2500 Du        
  44669 ****       131.0000 158.0000 138.5000 Du        
  44670 ****       131.0000 158.0000 138.7500 Du        
  44671 ****       131.0000 158.0000 139.0000 Du        
  44672 ****       131.0000 158.0000 139.2500 Du        
  44673 ****       131.0000 158.2500 115.2500 Du        
  44674 ****       131.0000 158.2500 115.5000 Du        
  44675 ****       131.0000 158.2500 115.7500 Du        
  44676 ****       131.0000 158.2500 116.0000 Du        
  44677 ****       131.0000 158.2500 116.2500 Du        
  44678 ****       131.0000 158.2500 116.5000 Du        
  44679 ****       131.0000 158.2500 136.5000 Du        
  44680 ****       131.0000 158.2500 136.7500 Du        
  44681 ****       131.0000 158.2500 137.0000 Du        
  44682 ****       131.0000 158.2500 137.2500 Du        
  44683 ****       131.0000 158.2500 137.5000 Du        
  44684 ****       131.0000 158.2500 137.7500 Du        
  44685 ****       131.0000 158.2500 138.0000 Du        
  44686 ****       131.0000 158.2500 138.2500 Du        
  44687 ****       131.0000 158.2500 138.5000 Du        
  44688 ****       131.0000 158.2500 138.7500 Du        
  44689 ****       131.0000 158.2500 139.0000 Du        
  44690 ****       131.0000 158.2500 139.2500 Du        
  44691 ****       131.0000 158.5000 115.2500 Du        
  44692 ****       131.0000 158.5000 115.5000 Du        
  44693 ****       131.0000 158.5000 115.7500 Du        
  44694 ****       131.0000 158.5000 116.0000 Du        
  44695 ****       131.0000 158.5000 136.5000 Du        
  44696 ****       131.0000 158.5000 136.7500 Du        
  44697 ****       131.0000 158.5000 137.0000 Du        
  44698 ****       131.0000 158.5000 137.2500 Du        
  44699 ****       131.0000 158.5000 137.5000 Du        
  44700 ****       131.0000 158.5000 137.7500 Du        
  44701 ****       131.0000 158.5000 138.0000 Du        
  44702 ****       131.0000 158.5000 138.2500 Du        
  44703 ****       131.0000 158.5000 138.5000 Du        
  44704 ****       131.0000 158.5000 138.7500 Du        
  44705 ****       131.0000 158.5000 139.0000 Du        
  44706 ****       131.0000 158.7500 115.5000 Du        
  44707 ****       131.0000 158.7500 136.5000 Du        
  44708 ****       131.0000 158.7500 136.7500 Du        
  44709 ****       131.0000 158.7500 137.0000 Du        
  44710 ****       131.0000 158.7500 137.2500 Du        
  44711 ****       131.0000 158.7500 137.5000 Du        
  44712 ****       131.0000 158.7500 137.7500 Du        
  44713 ****       131.0000 158.7500 138.0000 Du        
  44714 ****       131.0000 158.7500 138.2500 Du        
  44715 ****       131.0000 158.7500 138.5000 Du        
  44716 ****       131.0000 158.7500 138.7500 Du        
  44717 ****       131.0000 158.7500 139.0000 Du        
  44718 ****       131.0000 159.0000 136.7500 Du        
  44719 ****       131.0000 159.0000 137.0000 Du        
  44720 ****       131.0000 159.0000 137.2500 Du        
  44721 ****       131.0000 159.0000 137.5000 Du        
  44722 ****       131.0000 159.0000 137.7500 Du        
  44723 ****       131.0000 159.0000 138.0000 Du        
  44724 ****       131.0000 159.0000 138.2500 Du        
  44725 ****       131.0000 159.0000 138.5000 Du        
  44726 ****       131.0000 159.0000 138.7500 Du        
  44727 ****       131.0000 159.0000 139.0000 Du        
  44728 ****       131.0000 159.2500 136.7500 Du        
  44729 ****       131.0000 159.2500 137.0000 Du        
  44730 ****       131.0000 159.2500 137.2500 Du        
  44731 ****       131.0000 159.2500 137.5000 Du        
  44732 ****       131.0000 159.2500 137.7500 Du        
  44733 ****       131.0000 159.2500 138.0000 Du        
  44734 ****       131.0000 159.2500 138.2500 Du        
  44735 ****       131.0000 159.2500 138.5000 Du        
  44736 ****       131.0000 159.2500 138.7500 Du        
  44737 ****       131.0000 159.2500 139.0000 Du        
  44738 ****       131.0000 159.2500 139.2500 Du        
  44739 ****       131.0000 159.5000 138.5000 Du        
  44740 ****       131.0000 159.5000 138.7500 Du        
  44741 ****       131.0000 159.5000 139.0000 Du        
  44742 ****       131.0000 159.5000 139.2500 Du        
  44743 ****       131.0000 159.7500 139.0000 Du        
  44744 ****       131.2500 133.0000 126.7500 Du        
  44745 ****       131.2500 133.0000 127.0000 Du        
  44746 ****       131.2500 133.0000 127.2500 Du        
  44747 ****       131.2500 141.5000 136.7500 Du        
  44748 ****       131.2500 141.5000 137.0000 Du        
  44749 ****       131.2500 141.5000 137.2500 Du        
  44750 ****       131.2500 141.5000 137.5000 Du        
  44751 ****       131.2500 141.7500 136.7500 Du        
  44752 ****       131.2500 141.7500 137.0000 Du        
  44753 ****       131.2500 141.7500 137.2500 Du        
  44754 ****       131.2500 141.7500 137.5000 Du        
  44755 ****       131.2500 141.7500 137.7500 Du        
  44756 ****       131.2500 142.0000 137.2500 Du        
  44757 ****       131.2500 142.0000 137.5000 Du        
  44758 ****       131.2500 143.2500 116.7500 Du        
  44759 ****       131.2500 143.2500 117.0000 Du        
  44760 ****       131.2500 143.5000 116.5000 Du        
  44761 ****       131.2500 143.5000 116.7500 Du        
  44762 ****       131.2500 143.5000 117.0000 Du        
  44763 ****       131.2500 143.5000 117.2500 Du        
  44764 ****       131.2500 143.7500 116.0000 Du        
  44765 ****       131.2500 143.7500 116.2500 Du        
  44766 ****       131.2500 143.7500 116.5000 Du        
  44767 ****       131.2500 143.7500 116.7500 Du        
  44768 ****       131.2500 143.7500 117.0000 Du        
  44769 ****       131.2500 143.7500 117.2500 Du        
  44770 ****       131.2500 144.0000 116.0000 Du        
  44771 ****       131.2500 144.0000 116.2500 Du        
  44772 ****       131.2500 144.0000 116.5000 Du        
  44773 ****       131.2500 144.0000 116.7500 Du        
  44774 ****       131.2500 144.0000 117.0000 Du        
  44775 ****       131.2500 144.0000 117.2500 Du        
  44776 ****       131.2500 144.2500 115.7500 Du        
  44777 ****       131.2500 144.2500 116.0000 Du        
  44778 ****       131.2500 144.2500 116.2500 Du        
  44779 ****       131.2500 144.2500 116.5000 Du        
  44780 ****       131.2500 144.2500 116.7500 Du        
  44781 ****       131.2500 144.2500 117.0000 Du        
  44782 ****       131.2500 144.2500 117.2500 Du        
  44783 ****       131.2500 144.2500 117.5000 Du        
  44784 ****       131.2500 144.5000 116.0000 Du        
  44785 ****       131.2500 144.5000 116.2500 Du        
  44786 ****       131.2500 144.5000 116.5000 Du        
  44787 ****       131.2500 144.5000 116.7500 Du        
  44788 ****       131.2500 144.5000 117.0000 Du        
  44789 ****       131.2500 144.5000 117.2500 Du        
  44790 ****       131.2500 144.5000 117.5000 Du        
  44791 ****       131.2500 144.7500 116.0000 Du        
  44792 ****       131.2500 144.7500 116.2500 Du        
  44793 ****       131.2500 144.7500 116.5000 Du        
  44794 ****       131.2500 144.7500 116.7500 Du        
  44795 ****       131.2500 144.7500 117.0000 Du        
  44796 ****       131.2500 144.7500 117.2500 Du        
  44797 ****       131.2500 144.7500 117.5000 Du        
  44798 ****       131.2500 145.0000 116.0000 Du        
  44799 ****       131.2500 145.0000 116.2500 Du        
  44800 ****       131.2500 145.0000 116.5000 Du        
  44801 ****       131.2500 145.0000 116.7500 Du        
  44802 ****       131.2500 145.0000 117.0000 Du        
  44803 ****       131.2500 145.0000 117.2500 Du        
  44804 ****       131.2500 145.0000 117.5000 Du        
  44805 ****       131.2500 145.0000 117.7500 Du        
  44806 ****       131.2500 145.2500 116.2500 Du        
  44807 ****       131.2500 145.2500 116.5000 Du        
  44808 ****       131.2500 145.2500 116.7500 Du        
  44809 ****       131.2500 145.2500 117.0000 Du        
  44810 ****       131.2500 145.2500 117.2500 Du        
  44811 ****       131.2500 145.2500 117.5000 Du        
  44812 ****       131.2500 145.2500 117.7500 Du        
  44813 ****       131.2500 145.2500 146.7500 Du        
  44814 ****       131.2500 145.2500 147.0000 Du        
  44815 ****       131.2500 145.5000 116.5000 Du        
  44816 ****       131.2500 145.5000 116.7500 Du        
  44817 ****       131.2500 145.5000 117.0000 Du        
  44818 ****       131.2500 145.5000 117.2500 Du        
  44819 ****       131.2500 145.5000 117.5000 Du        
  44820 ****       131.2500 145.5000 117.7500 Du        
  44821 ****       131.2500 145.5000 146.7500 Du        
  44822 ****       131.2500 145.5000 147.0000 Du        
  44823 ****       131.2500 145.7500 116.5000 Du        
  44824 ****       131.2500 145.7500 116.7500 Du        
  44825 ****       131.2500 145.7500 117.0000 Du        
  44826 ****       131.2500 145.7500 117.2500 Du        
  44827 ****       131.2500 145.7500 117.5000 Du        
  44828 ****       131.2500 145.7500 117.7500 Du        
  44829 ****       131.2500 145.7500 146.5000 Du        
  44830 ****       131.2500 145.7500 146.7500 Du        
  44831 ****       131.2500 145.7500 147.0000 Du        
  44832 ****       131.2500 146.0000 116.5000 Du        
  44833 ****       131.2500 146.0000 116.7500 Du        
  44834 ****       131.2500 146.0000 117.0000 Du        
  44835 ****       131.2500 146.0000 117.2500 Du        
  44836 ****       131.2500 146.0000 117.5000 Du        
  44837 ****       131.2500 146.0000 146.2500 Du        
  44838 ****       131.2500 146.0000 146.5000 Du        
  44839 ****       131.2500 146.0000 146.7500 Du        
  44840 ****       131.2500 146.0000 147.0000 Du        
  44841 ****       131.2500 146.2500 116.7500 Du        
  44842 ****       131.2500 146.2500 146.0000 Du        
  44843 ****       131.2500 146.2500 146.2500 Du        
  44844 ****       131.2500 146.2500 146.5000 Du        
  44845 ****       131.2500 146.2500 146.7500 Du        
  44846 ****       131.2500 146.5000 146.0000 Du        
  44847 ****       131.2500 146.5000 146.2500 Du        
  44848 ****       131.2500 146.5000 146.5000 Du        
  44849 ****       131.2500 146.7500 121.2500 Du        
  44850 ****       131.2500 146.7500 121.5000 Du        
  44851 ****       131.2500 146.7500 128.0000 Du        
  44852 ****       131.2500 146.7500 128.2500 Du        
  44853 ****       131.2500 146.7500 128.5000 Du        
  44854 ****       131.2500 146.7500 128.7500 Du        
  44855 ****       131.2500 146.7500 129.0000 Du        
  44856 ****       131.2500 146.7500 145.7500 Du        
  44857 ****       131.2500 146.7500 146.0000 Du        
  44858 ****       131.2500 146.7500 146.2500 Du        
  44859 ****       131.2500 146.7500 146.5000 Du        
  44860 ****       131.2500 147.0000 121.0000 Du        
  44861 ****       131.2500 147.0000 121.2500 Du        
  44862 ****       131.2500 147.0000 121.5000 Du        
  44863 ****       131.2500 147.0000 121.7500 Du        
  44864 ****       131.2500 147.0000 122.0000 Du        
  44865 ****       131.2500 147.0000 122.2500 Du        
  44866 ****       131.2500 147.0000 122.5000 Du        
  44867 ****       131.2500 147.0000 122.7500 Du        
  44868 ****       131.2500 147.0000 123.0000 Du        
  44869 ****       131.2500 147.0000 123.2500 Du        
  44870 ****       131.2500 147.0000 127.7500 Du        
  44871 ****       131.2500 147.0000 128.0000 Du        
  44872 ****       131.2500 147.0000 128.2500 Du        
  44873 ****       131.2500 147.0000 128.5000 Du        
  44874 ****       131.2500 147.0000 128.7500 Du        
  44875 ****       131.2500 147.0000 129.0000 Du        
  44876 ****       131.2500 147.0000 129.2500 Du        
  44877 ****       131.2500 147.0000 129.5000 Du        
  44878 ****       131.2500 147.0000 129.7500 Du        
  44879 ****       131.2500 147.0000 145.7500 Du        
  44880 ****       131.2500 147.0000 146.0000 Du        
  44881 ****       131.2500 147.0000 146.2500 Du        
  44882 ****       131.2500 147.2500 121.2500 Du        
  44883 ****       131.2500 147.2500 121.5000 Du        
  44884 ****       131.2500 147.2500 121.7500 Du        
  44885 ****       131.2500 147.2500 122.0000 Du        
  44886 ****       131.2500 147.2500 122.2500 Du        
  44887 ****       131.2500 147.2500 122.5000 Du        
  44888 ****       131.2500 147.2500 122.7500 Du        
  44889 ****       131.2500 147.2500 123.0000 Du        
  44890 ****       131.2500 147.2500 123.2500 Du        
  44891 ****       131.2500 147.2500 123.5000 Du        
  44892 ****       131.2500 147.2500 123.7500 Du        
  44893 ****       131.2500 147.2500 128.0000 Du        
  44894 ****       131.2500 147.2500 128.2500 Du        
  44895 ****       131.2500 147.2500 128.5000 Du        
  44896 ****       131.2500 147.2500 128.7500 Du        
  44897 ****       131.2500 147.2500 129.0000 Du        
  44898 ****       131.2500 147.2500 129.2500 Du        
  44899 ****       131.2500 147.2500 129.5000 Du        
  44900 ****       131.2500 147.2500 129.7500 Du        
  44901 ****       131.2500 147.2500 130.0000 Du        
  44902 ****       131.2500 147.2500 130.2500 Du        
  44903 ****       131.2500 147.2500 145.7500 Du        
  44904 ****       131.2500 147.2500 146.0000 Du        
  44905 ****       131.2500 147.2500 146.2500 Du        
  44906 ****       131.2500 147.5000 121.2500 Du        
  44907 ****       131.2500 147.5000 121.5000 Du        
  44908 ****       131.2500 147.5000 121.7500 Du        
  44909 ****       131.2500 147.5000 122.0000 Du        
  44910 ****       131.2500 147.5000 122.2500 Du        
  44911 ****       131.2500 147.5000 122.5000 Du        
  44912 ****       131.2500 147.5000 122.7500 Du        
  44913 ****       131.2500 147.5000 123.0000 Du        
  44914 ****       131.2500 147.5000 123.2500 Du        
  44915 ****       131.2500 147.5000 123.5000 Du        
  44916 ****       131.2500 147.5000 123.7500 Du        
  44917 ****       131.2500 147.5000 128.5000 Du        
  44918 ****       131.2500 147.5000 128.7500 Du        
  44919 ****       131.2500 147.5000 129.0000 Du        
  44920 ****       131.2500 147.5000 129.2500 Du        
  44921 ****       131.2500 147.5000 129.5000 Du        
  44922 ****       131.2500 147.5000 129.7500 Du        
  44923 ****       131.2500 147.5000 130.0000 Du        
  44924 ****       131.2500 147.7500 121.2500 Du        
  44925 ****       131.2500 147.7500 121.5000 Du        
  44926 ****       131.2500 147.7500 121.7500 Du        
  44927 ****       131.2500 147.7500 122.0000 Du        
  44928 ****       131.2500 147.7500 122.2500 Du        
  44929 ****       131.2500 147.7500 122.5000 Du        
  44930 ****       131.2500 147.7500 122.7500 Du        
  44931 ****       131.2500 147.7500 123.0000 Du        
  44932 ****       131.2500 147.7500 123.2500 Du        
  44933 ****       131.2500 147.7500 123.5000 Du        
  44934 ****       131.2500 147.7500 123.7500 Du        
  44935 ****       131.2500 147.7500 124.0000 Du        
  44936 ****       131.2500 147.7500 128.7500 Du        
  44937 ****       131.2500 147.7500 129.0000 Du        
  44938 ****       131.2500 147.7500 129.2500 Du        
  44939 ****       131.2500 147.7500 129.5000 Du        
  44940 ****       131.2500 147.7500 129.7500 Du        
  44941 ****       131.2500 147.7500 130.0000 Du        
  44942 ****       131.2500 147.7500 130.2500 Du        
  44943 ****       131.2500 148.0000 121.2500 Du        
  44944 ****       131.2500 148.0000 121.5000 Du        
  44945 ****       131.2500 148.0000 121.7500 Du        
  44946 ****       131.2500 148.0000 122.0000 Du        
  44947 ****       131.2500 148.0000 122.2500 Du        
  44948 ****       131.2500 148.0000 122.5000 Du        
  44949 ****       131.2500 148.0000 122.7500 Du        
  44950 ****       131.2500 148.0000 123.0000 Du        
  44951 ****       131.2500 148.0000 123.2500 Du        
  44952 ****       131.2500 148.0000 123.5000 Du        
  44953 ****       131.2500 148.0000 123.7500 Du        
  44954 ****       131.2500 148.0000 124.0000 Du        
  44955 ****       131.2500 148.0000 129.5000 Du        
  44956 ****       131.2500 148.0000 129.7500 Du        
  44957 ****       131.2500 148.0000 130.0000 Du        
  44958 ****       131.2500 148.2500 121.2500 Du        
  44959 ****       131.2500 148.2500 121.5000 Du        
  44960 ****       131.2500 148.2500 121.7500 Du        
  44961 ****       131.2500 148.2500 122.0000 Du        
  44962 ****       131.2500 148.2500 122.2500 Du        
  44963 ****       131.2500 148.2500 122.5000 Du        
  44964 ****       131.2500 148.2500 122.7500 Du        
  44965 ****       131.2500 148.2500 123.0000 Du        
  44966 ****       131.2500 148.2500 123.2500 Du        
  44967 ****       131.2500 148.2500 123.5000 Du        
  44968 ****       131.2500 148.2500 123.7500 Du        
  44969 ****       131.2500 148.2500 124.0000 Du        
  44970 ****       131.2500 148.5000 121.5000 Du        
  44971 ****       131.2500 148.5000 121.7500 Du        
  44972 ****       131.2500 148.5000 122.0000 Du        
  44973 ****       131.2500 148.5000 122.2500 Du        
  44974 ****       131.2500 148.5000 122.5000 Du        
  44975 ****       131.2500 148.5000 122.7500 Du        
  44976 ****       131.2500 148.5000 123.0000 Du        
  44977 ****       131.2500 148.5000 123.2500 Du        
  44978 ****       131.2500 148.5000 123.5000 Du        
  44979 ****       131.2500 148.7500 121.2500 Du        
  44980 ****       131.2500 148.7500 121.5000 Du        
  44981 ****       131.2500 148.7500 121.7500 Du        
  44982 ****       131.2500 148.7500 122.0000 Du        
  44983 ****       131.2500 148.7500 122.2500 Du        
  44984 ****       131.2500 148.7500 122.5000 Du        
  44985 ****       131.2500 148.7500 122.7500 Du        
  44986 ****       131.2500 148.7500 123.0000 Du        
  44987 ****       131.2500 148.7500 123.2500 Du        
  44988 ****       131.2500 149.0000 121.5000 Du        
  44989 ****       131.2500 149.0000 121.7500 Du        
  44990 ****       131.2500 149.0000 122.0000 Du        
  44991 ****       131.2500 149.0000 122.2500 Du        
  44992 ****       131.2500 149.0000 122.5000 Du        
  44993 ****       131.2500 149.0000 122.7500 Du        
  44994 ****       131.2500 149.0000 123.0000 Du        
  44995 ****       131.2500 149.2500 121.7500 Du        
  44996 ****       131.2500 149.2500 122.0000 Du        
  44997 ****       131.2500 149.2500 122.2500 Du        
  44998 ****       131.2500 151.0000 144.2500 Du        
  44999 ****       131.2500 151.2500 144.0000 Du        
  45000 ****       131.2500 151.2500 144.2500 Du        
  45001 ****       131.2500 151.2500 144.5000 Du        
  45002 ****       131.2500 151.2500 144.7500 Du        
  45003 ****       131.2500 151.2500 145.0000 Du        
  45004 ****       131.2500 151.5000 144.0000 Du        
  45005 ****       131.2500 151.5000 144.2500 Du        
  45006 ****       131.2500 151.5000 144.5000 Du        
  45007 ****       131.2500 151.5000 144.7500 Du        
  45008 ****       131.2500 151.5000 145.0000 Du        
  45009 ****       131.2500 151.7500 144.0000 Du        
  45010 ****       131.2500 151.7500 144.2500 Du        
  45011 ****       131.2500 151.7500 144.5000 Du        
  45012 ****       131.2500 151.7500 144.7500 Du        
  45013 ****       131.2500 151.7500 145.0000 Du        
  45014 ****       131.2500 151.7500 145.2500 Du        
  45015 ****       131.2500 152.0000 144.0000 Du        
  45016 ****       131.2500 152.0000 144.2500 Du        
  45017 ****       131.2500 152.0000 144.5000 Du        
  45018 ****       131.2500 152.0000 144.7500 Du        
  45019 ****       131.2500 152.0000 145.0000 Du        
  45020 ****       131.2500 152.0000 145.2500 Du        
  45021 ****       131.2500 152.2500 143.7500 Du        
  45022 ****       131.2500 152.2500 144.0000 Du        
  45023 ****       131.2500 152.2500 144.2500 Du        
  45024 ****       131.2500 152.2500 144.5000 Du        
  45025 ****       131.2500 152.2500 144.7500 Du        
  45026 ****       131.2500 152.2500 145.0000 Du        
  45027 ****       131.2500 152.2500 145.2500 Du        
  45028 ****       131.2500 152.5000 144.0000 Du        
  45029 ****       131.2500 152.5000 144.2500 Du        
  45030 ****       131.2500 152.5000 144.5000 Du        
  45031 ****       131.2500 152.5000 144.7500 Du        
  45032 ****       131.2500 152.5000 145.0000 Du        
  45033 ****       131.2500 152.5000 145.2500 Du        
  45034 ****       131.2500 152.7500 144.0000 Du        
  45035 ****       131.2500 152.7500 144.2500 Du        
  45036 ****       131.2500 152.7500 144.5000 Du        
  45037 ****       131.2500 152.7500 144.7500 Du        
  45038 ****       131.2500 152.7500 145.0000 Du        
  45039 ****       131.2500 152.7500 145.2500 Du        
  45040 ****       131.2500 152.7500 145.5000 Du        
  45041 ****       131.2500 152.7500 145.7500 Du        
  45042 ****       131.2500 153.0000 144.0000 Du        
  45043 ****       131.2500 153.0000 144.2500 Du        
  45044 ****       131.2500 153.0000 144.5000 Du        
  45045 ****       131.2500 153.0000 144.7500 Du        
  45046 ****       131.2500 153.0000 145.0000 Du        
  45047 ****       131.2500 153.0000 145.2500 Du        
  45048 ****       131.2500 153.0000 145.5000 Du        
  45049 ****       131.2500 153.0000 145.7500 Du        
  45050 ****       131.2500 153.0000 146.0000 Du        
  45051 ****       131.2500 153.2500 144.0000 Du        
  45052 ****       131.2500 153.2500 144.2500 Du        
  45053 ****       131.2500 153.2500 144.5000 Du        
  45054 ****       131.2500 153.2500 144.7500 Du        
  45055 ****       131.2500 153.2500 145.0000 Du        
  45056 ****       131.2500 153.2500 145.2500 Du        
  45057 ****       131.2500 153.2500 145.5000 Du        
  45058 ****       131.2500 153.2500 145.7500 Du        
  45059 ****       131.2500 153.2500 146.0000 Du        
  45060 ****       131.2500 153.5000 144.0000 Du        
  45061 ****       131.2500 153.5000 144.2500 Du        
  45062 ****       131.2500 153.5000 144.5000 Du        
  45063 ****       131.2500 153.5000 144.7500 Du        
  45064 ****       131.2500 153.5000 145.0000 Du        
  45065 ****       131.2500 153.5000 145.2500 Du        
  45066 ****       131.2500 153.5000 145.5000 Du        
  45067 ****       131.2500 153.5000 145.7500 Du        
  45068 ****       131.2500 153.5000 146.0000 Du        
  45069 ****       131.2500 153.7500 129.7500 Du        
  45070 ****       131.2500 153.7500 144.0000 Du        
  45071 ****       131.2500 153.7500 144.2500 Du        
  45072 ****       131.2500 153.7500 144.5000 Du        
  45073 ****       131.2500 153.7500 144.7500 Du        
  45074 ****       131.2500 153.7500 145.0000 Du        
  45075 ****       131.2500 153.7500 145.2500 Du        
  45076 ****       131.2500 153.7500 145.5000 Du        
  45077 ****       131.2500 153.7500 145.7500 Du        
  45078 ****       131.2500 153.7500 146.0000 Du        
  45079 ****       131.2500 153.7500 146.2500 Du        
  45080 ****       131.2500 154.0000 144.0000 Du        
  45081 ****       131.2500 154.0000 144.2500 Du        
  45082 ****       131.2500 154.0000 144.5000 Du        
  45083 ****       131.2500 154.0000 144.7500 Du        
  45084 ****       131.2500 154.0000 145.0000 Du        
  45085 ****       131.2500 154.0000 145.2500 Du        
  45086 ****       131.2500 154.0000 145.5000 Du        
  45087 ****       131.2500 154.0000 145.7500 Du        
  45088 ****       131.2500 154.0000 146.0000 Du        
  45089 ****       131.2500 154.0000 146.2500 Du        
  45090 ****       131.2500 154.2500 144.2500 Du        
  45091 ****       131.2500 154.2500 144.5000 Du        
  45092 ****       131.2500 154.2500 144.7500 Du        
  45093 ****       131.2500 154.2500 145.0000 Du        
  45094 ****       131.2500 154.2500 145.2500 Du        
  45095 ****       131.2500 154.2500 145.5000 Du        
  45096 ****       131.2500 154.2500 145.7500 Du        
  45097 ****       131.2500 154.2500 146.0000 Du        
  45098 ****       131.2500 154.5000 144.2500 Du        
  45099 ****       131.2500 154.5000 144.5000 Du        
  45100 ****       131.2500 154.5000 144.7500 Du        
  45101 ****       131.2500 154.5000 145.0000 Du        
  45102 ****       131.2500 154.5000 145.2500 Du        
  45103 ****       131.2500 154.5000 145.5000 Du        
  45104 ****       131.2500 154.5000 145.7500 Du        
  45105 ****       131.2500 154.7500 144.5000 Du        
  45106 ****       131.2500 154.7500 144.7500 Du        
  45107 ****       131.2500 154.7500 145.0000 Du        
  45108 ****       131.2500 154.7500 145.2500 Du        
  45109 ****       131.2500 155.0000 127.0000 Du        
  45110 ****       131.2500 155.0000 127.2500 Du        
  45111 ****       131.2500 155.0000 144.7500 Du        
  45112 ****       131.2500 155.0000 145.0000 Du        
  45113 ****       131.2500 155.2500 126.7500 Du        
  45114 ****       131.2500 155.2500 127.0000 Du        
  45115 ****       131.2500 155.2500 127.2500 Du        
  45116 ****       131.2500 155.5000 126.2500 Du        
  45117 ****       131.2500 155.5000 126.5000 Du        
  45118 ****       131.2500 155.5000 126.7500 Du        
  45119 ****       131.2500 155.5000 127.0000 Du        
  45120 ****       131.2500 155.5000 127.2500 Du        
  45121 ****       131.2500 155.7500 126.0000 Du        
  45122 ****       131.2500 155.7500 126.2500 Du        
  45123 ****       131.2500 155.7500 126.5000 Du        
  45124 ****       131.2500 155.7500 126.7500 Du        
  45125 ****       131.2500 155.7500 127.0000 Du        
  45126 ****       131.2500 155.7500 127.2500 Du        
  45127 ****       131.2500 156.0000 126.0000 Du        
  45128 ****       131.2500 156.0000 126.2500 Du        
  45129 ****       131.2500 156.0000 126.5000 Du        
  45130 ****       131.2500 156.0000 126.7500 Du        
  45131 ****       131.2500 156.0000 127.0000 Du        
  45132 ****       131.2500 156.2500 125.7500 Du        
  45133 ****       131.2500 156.2500 126.0000 Du        
  45134 ****       131.2500 156.2500 126.2500 Du        
  45135 ****       131.2500 156.2500 126.5000 Du        
  45136 ****       131.2500 156.2500 126.7500 Du        
  45137 ****       131.2500 156.2500 127.0000 Du        
  45138 ****       131.2500 156.5000 126.0000 Du        
  45139 ****       131.2500 156.5000 126.2500 Du        
  45140 ****       131.2500 156.5000 126.5000 Du        
  45141 ****       131.2500 156.5000 126.7500 Du        
  45142 ****       131.2500 156.5000 127.0000 Du        
  45143 ****       131.2500 156.5000 137.7500 Du        
  45144 ****       131.2500 156.5000 138.0000 Du        
  45145 ****       131.2500 156.7500 117.2500 Du        
  45146 ****       131.2500 156.7500 126.0000 Du        
  45147 ****       131.2500 156.7500 126.2500 Du        
  45148 ****       131.2500 156.7500 126.5000 Du        
  45149 ****       131.2500 156.7500 126.7500 Du        
  45150 ****       131.2500 156.7500 137.2500 Du        
  45151 ****       131.2500 156.7500 137.5000 Du        
  45152 ****       131.2500 156.7500 137.7500 Du        
  45153 ****       131.2500 156.7500 138.0000 Du        
  45154 ****       131.2500 156.7500 138.2500 Du        
  45155 ****       131.2500 156.7500 138.5000 Du        
  45156 ****       131.2500 156.7500 138.7500 Du        
  45157 ****       131.2500 156.7500 139.0000 Du        
  45158 ****       131.2500 157.0000 116.7500 Du        
  45159 ****       131.2500 157.0000 117.0000 Du        
  45160 ****       131.2500 157.0000 117.2500 Du        
  45161 ****       131.2500 157.0000 137.2500 Du        
  45162 ****       131.2500 157.0000 137.5000 Du        
  45163 ****       131.2500 157.0000 137.7500 Du        
  45164 ****       131.2500 157.0000 138.0000 Du        
  45165 ****       131.2500 157.0000 138.2500 Du        
  45166 ****       131.2500 157.0000 138.5000 Du        
  45167 ****       131.2500 157.0000 138.7500 Du        
  45168 ****       131.2500 157.0000 139.0000 Du        
  45169 ****       131.2500 157.0000 139.2500 Du        
  45170 ****       131.2500 157.0000 139.5000 Du        
  45171 ****       131.2500 157.0000 139.7500 Du        
  45172 ****       131.2500 157.0000 140.0000 Du        
  45173 ****       131.2500 157.2500 116.5000 Du        
  45174 ****       131.2500 157.2500 116.7500 Du        
  45175 ****       131.2500 157.2500 117.0000 Du        
  45176 ****       131.2500 157.2500 137.0000 Du        
  45177 ****       131.2500 157.2500 137.2500 Du        
  45178 ****       131.2500 157.2500 137.5000 Du        
  45179 ****       131.2500 157.2500 137.7500 Du        
  45180 ****       131.2500 157.2500 138.0000 Du        
  45181 ****       131.2500 157.2500 138.2500 Du        
  45182 ****       131.2500 157.2500 138.5000 Du        
  45183 ****       131.2500 157.2500 138.7500 Du        
  45184 ****       131.2500 157.2500 139.0000 Du        
  45185 ****       131.2500 157.2500 139.2500 Du        
  45186 ****       131.2500 157.2500 139.5000 Du        
  45187 ****       131.2500 157.2500 139.7500 Du        
  45188 ****       131.2500 157.5000 116.2500 Du        
  45189 ****       131.2500 157.5000 116.5000 Du        
  45190 ****       131.2500 157.5000 116.7500 Du        
  45191 ****       131.2500 157.5000 117.0000 Du        
  45192 ****       131.2500 157.5000 136.7500 Du        
  45193 ****       131.2500 157.5000 137.0000 Du        
  45194 ****       131.2500 157.5000 137.2500 Du        
  45195 ****       131.2500 157.5000 137.5000 Du        
  45196 ****       131.2500 157.5000 137.7500 Du        
  45197 ****       131.2500 157.5000 138.0000 Du        
  45198 ****       131.2500 157.5000 138.2500 Du        
  45199 ****       131.2500 157.5000 138.5000 Du        
  45200 ****       131.2500 157.5000 138.7500 Du        
  45201 ****       131.2500 157.5000 139.0000 Du        
  45202 ****       131.2500 157.5000 139.2500 Du        
  45203 ****       131.2500 157.5000 139.5000 Du        
  45204 ****       131.2500 157.5000 139.7500 Du        
  45205 ****       131.2500 157.7500 115.7500 Du        
  45206 ****       131.2500 157.7500 116.0000 Du        
  45207 ****       131.2500 157.7500 116.2500 Du        
  45208 ****       131.2500 157.7500 116.5000 Du        
  45209 ****       131.2500 157.7500 116.7500 Du        
  45210 ****       131.2500 157.7500 136.5000 Du        
  45211 ****       131.2500 157.7500 136.7500 Du        
  45212 ****       131.2500 157.7500 137.0000 Du        
  45213 ****       131.2500 157.7500 137.2500 Du        
  45214 ****       131.2500 157.7500 137.5000 Du        
  45215 ****       131.2500 157.7500 137.7500 Du        
  45216 ****       131.2500 157.7500 138.0000 Du        
  45217 ****       131.2500 157.7500 138.2500 Du        
  45218 ****       131.2500 157.7500 138.5000 Du        
  45219 ****       131.2500 157.7500 138.7500 Du        
  45220 ****       131.2500 157.7500 139.0000 Du        
  45221 ****       131.2500 157.7500 139.2500 Du        
  45222 ****       131.2500 157.7500 139.5000 Du        
  45223 ****       131.2500 158.0000 115.5000 Du        
  45224 ****       131.2500 158.0000 115.7500 Du        
  45225 ****       131.2500 158.0000 116.0000 Du        
  45226 ****       131.2500 158.0000 116.2500 Du        
  45227 ****       131.2500 158.0000 116.5000 Du        
  45228 ****       131.2500 158.0000 116.7500 Du        
  45229 ****       131.2500 158.0000 136.5000 Du        
  45230 ****       131.2500 158.0000 136.7500 Du        
  45231 ****       131.2500 158.0000 137.0000 Du        
  45232 ****       131.2500 158.0000 137.2500 Du        
  45233 ****       131.2500 158.0000 137.5000 Du        
  45234 ****       131.2500 158.0000 137.7500 Du        
  45235 ****       131.2500 158.0000 138.0000 Du        
  45236 ****       131.2500 158.0000 138.2500 Du        
  45237 ****       131.2500 158.0000 138.5000 Du        
  45238 ****       131.2500 158.0000 138.7500 Du        
  45239 ****       131.2500 158.0000 139.0000 Du        
  45240 ****       131.2500 158.0000 139.2500 Du        
  45241 ****       131.2500 158.0000 139.5000 Du        
  45242 ****       131.2500 158.2500 115.5000 Du        
  45243 ****       131.2500 158.2500 115.7500 Du        
  45244 ****       131.2500 158.2500 116.0000 Du        
  45245 ****       131.2500 158.2500 116.2500 Du        
  45246 ****       131.2500 158.2500 116.5000 Du        
  45247 ****       131.2500 158.2500 136.5000 Du        
  45248 ****       131.2500 158.2500 136.7500 Du        
  45249 ****       131.2500 158.2500 137.0000 Du        
  45250 ****       131.2500 158.2500 137.2500 Du        
  45251 ****       131.2500 158.2500 137.5000 Du        
  45252 ****       131.2500 158.2500 137.7500 Du        
  45253 ****       131.2500 158.2500 138.0000 Du        
  45254 ****       131.2500 158.2500 138.2500 Du        
  45255 ****       131.2500 158.2500 138.5000 Du        
  45256 ****       131.2500 158.2500 138.7500 Du        
  45257 ****       131.2500 158.2500 139.0000 Du        
  45258 ****       131.2500 158.2500 139.2500 Du        
  45259 ****       131.2500 158.5000 115.5000 Du        
  45260 ****       131.2500 158.5000 115.7500 Du        
  45261 ****       131.2500 158.5000 136.5000 Du        
  45262 ****       131.2500 158.5000 136.7500 Du        
  45263 ****       131.2500 158.5000 137.0000 Du        
  45264 ****       131.2500 158.5000 137.2500 Du        
  45265 ****       131.2500 158.5000 137.5000 Du        
  45266 ****       131.2500 158.5000 137.7500 Du        
  45267 ****       131.2500 158.5000 138.0000 Du        
  45268 ****       131.2500 158.5000 138.2500 Du        
  45269 ****       131.2500 158.5000 138.5000 Du        
  45270 ****       131.2500 158.5000 138.7500 Du        
  45271 ****       131.2500 158.5000 139.0000 Du        
  45272 ****       131.2500 158.5000 139.2500 Du        
  45273 ****       131.2500 158.7500 136.7500 Du        
  45274 ****       131.2500 158.7500 137.0000 Du        
  45275 ****       131.2500 158.7500 137.2500 Du        
  45276 ****       131.2500 158.7500 137.5000 Du        
  45277 ****       131.2500 158.7500 137.7500 Du        
  45278 ****       131.2500 158.7500 138.0000 Du        
  45279 ****       131.2500 158.7500 138.2500 Du        
  45280 ****       131.2500 158.7500 138.5000 Du        
  45281 ****       131.2500 158.7500 138.7500 Du        
  45282 ****       131.2500 158.7500 139.0000 Du        
  45283 ****       131.2500 158.7500 139.2500 Du        
  45284 ****       131.2500 159.0000 136.7500 Du        
  45285 ****       131.2500 159.0000 137.0000 Du        
  45286 ****       131.2500 159.0000 137.2500 Du        
  45287 ****       131.2500 159.0000 137.5000 Du        
  45288 ****       131.2500 159.0000 137.7500 Du        
  45289 ****       131.2500 159.0000 138.0000 Du        
  45290 ****       131.2500 159.0000 138.2500 Du        
  45291 ****       131.2500 159.0000 138.5000 Du        
  45292 ****       131.2500 159.0000 138.7500 Du        
  45293 ****       131.2500 159.0000 139.0000 Du        
  45294 ****       131.2500 159.0000 139.2500 Du        
  45295 ****       131.2500 159.2500 136.7500 Du        
  45296 ****       131.2500 159.2500 137.0000 Du        
  45297 ****       131.2500 159.2500 137.2500 Du        
  45298 ****       131.2500 159.2500 137.5000 Du        
  45299 ****       131.2500 159.2500 137.7500 Du        
  45300 ****       131.2500 159.2500 138.0000 Du        
  45301 ****       131.2500 159.2500 138.2500 Du        
  45302 ****       131.2500 159.2500 138.5000 Du        
  45303 ****       131.2500 159.2500 138.7500 Du        
  45304 ****       131.2500 159.2500 139.0000 Du        
  45305 ****       131.2500 159.2500 139.2500 Du        
  45306 ****       131.2500 159.5000 138.0000 Du        
  45307 ****       131.2500 159.5000 138.2500 Du        
  45308 ****       131.2500 159.5000 138.5000 Du        
  45309 ****       131.2500 159.5000 138.7500 Du        
  45310 ****       131.2500 159.5000 139.0000 Du        
  45311 ****       131.2500 159.5000 139.2500 Du        
  45312 ****       131.2500 159.7500 138.7500 Du        
  45313 ****       131.2500 159.7500 139.0000 Du        
  45314 ****       131.2500 159.7500 139.2500 Du        
  45315 ****       131.5000 133.0000 126.0000 Du        
  45316 ****       131.5000 133.0000 126.2500 Du        
  45317 ****       131.5000 133.0000 126.5000 Du        
  45318 ****       131.5000 133.0000 126.7500 Du        
  45319 ****       131.5000 133.0000 127.0000 Du        
  45320 ****       131.5000 133.0000 127.2500 Du        
  45321 ****       131.5000 133.0000 127.5000 Du        
  45322 ****       131.5000 133.0000 127.7500 Du        
  45323 ****       131.5000 133.2500 125.5000 Du        
  45324 ****       131.5000 133.2500 125.7500 Du        
  45325 ****       131.5000 133.2500 126.0000 Du        
  45326 ****       131.5000 133.2500 126.2500 Du        
  45327 ****       131.5000 133.5000 125.2500 Du        
  45328 ****       131.5000 133.5000 125.5000 Du        
  45329 ****       131.5000 133.5000 125.7500 Du        
  45330 ****       131.5000 133.7500 124.7500 Du        
  45331 ****       131.5000 133.7500 125.0000 Du        
  45332 ****       131.5000 133.7500 125.2500 Du        
  45333 ****       131.5000 133.7500 125.5000 Du        
  45334 ****       131.5000 134.0000 124.7500 Du        
  45335 ****       131.5000 134.0000 125.0000 Du        
  45336 ****       131.5000 141.5000 137.2500 Du        
  45337 ****       131.5000 141.5000 137.5000 Du        
  45338 ****       131.5000 141.5000 137.7500 Du        
  45339 ****       131.5000 141.7500 136.7500 Du        
  45340 ****       131.5000 141.7500 137.0000 Du        
  45341 ****       131.5000 141.7500 137.2500 Du        
  45342 ****       131.5000 141.7500 137.5000 Du        
  45343 ****       131.5000 141.7500 137.7500 Du        
  45344 ****       131.5000 142.0000 137.0000 Du        
  45345 ****       131.5000 142.0000 137.2500 Du        
  45346 ****       131.5000 142.0000 137.5000 Du        
  45347 ****       131.5000 142.0000 137.7500 Du        
  45348 ****       131.5000 142.2500 137.5000 Du        
  45349 ****       131.5000 143.2500 117.0000 Du        
  45350 ****       131.5000 143.5000 116.5000 Du        
  45351 ****       131.5000 143.5000 116.7500 Du        
  45352 ****       131.5000 143.5000 117.0000 Du        
  45353 ****       131.5000 143.7500 116.2500 Du        
  45354 ****       131.5000 143.7500 116.5000 Du        
  45355 ****       131.5000 143.7500 116.7500 Du        
  45356 ****       131.5000 143.7500 117.0000 Du        
  45357 ****       131.5000 144.0000 116.2500 Du        
  45358 ****       131.5000 144.0000 116.5000 Du        
  45359 ****       131.5000 144.0000 116.7500 Du        
  45360 ****       131.5000 144.0000 117.0000 Du        
  45361 ****       131.5000 144.2500 116.5000 Du        
  45362 ****       131.5000 144.2500 116.7500 Du        
  45363 ****       131.5000 144.2500 117.0000 Du        
  45364 ****       131.5000 144.2500 117.2500 Du        
  45365 ****       131.5000 144.5000 116.5000 Du        
  45366 ****       131.5000 144.5000 116.7500 Du        
  45367 ****       131.5000 144.5000 117.0000 Du        
  45368 ****       131.5000 144.5000 117.2500 Du        
  45369 ****       131.5000 144.7500 116.5000 Du        
  45370 ****       131.5000 144.7500 116.7500 Du        
  45371 ****       131.5000 144.7500 117.0000 Du        
  45372 ****       131.5000 144.7500 117.2500 Du        
  45373 ****       131.5000 145.0000 116.5000 Du        
  45374 ****       131.5000 145.0000 116.7500 Du        
  45375 ****       131.5000 145.0000 117.0000 Du        
  45376 ****       131.5000 145.0000 117.2500 Du        
  45377 ****       131.5000 145.2500 116.5000 Du        
  45378 ****       131.5000 145.2500 116.7500 Du        
  45379 ****       131.5000 145.2500 117.0000 Du        
  45380 ****       131.5000 145.2500 117.2500 Du        
  45381 ****       131.5000 145.5000 116.7500 Du        
  45382 ****       131.5000 145.5000 117.0000 Du        
  45383 ****       131.5000 145.5000 117.2500 Du        
  45384 ****       131.5000 145.7500 116.7500 Du        
  45385 ****       131.5000 145.7500 117.0000 Du        
  45386 ****       131.5000 145.7500 117.2500 Du        
  45387 ****       131.5000 145.7500 146.7500 Du        
  45388 ****       131.5000 145.7500 147.0000 Du        
  45389 ****       131.5000 146.0000 116.7500 Du        
  45390 ****       131.5000 146.0000 117.0000 Du        
  45391 ****       131.5000 146.0000 117.2500 Du        
  45392 ****       131.5000 146.0000 146.2500 Du        
  45393 ****       131.5000 146.0000 146.5000 Du        
  45394 ****       131.5000 146.0000 146.7500 Du        
  45395 ****       131.5000 146.0000 147.0000 Du        
  45396 ****       131.5000 146.2500 146.0000 Du        
  45397 ****       131.5000 146.2500 146.2500 Du        
  45398 ****       131.5000 146.2500 146.5000 Du        
  45399 ****       131.5000 146.2500 146.7500 Du        
  45400 ****       131.5000 146.5000 146.0000 Du        
  45401 ****       131.5000 146.5000 146.2500 Du        
  45402 ****       131.5000 146.5000 146.5000 Du        
  45403 ****       131.5000 146.7500 121.0000 Du        
  45404 ****       131.5000 146.7500 121.2500 Du        
  45405 ****       131.5000 146.7500 121.5000 Du        
  45406 ****       131.5000 146.7500 121.7500 Du        
  45407 ****       131.5000 146.7500 128.2500 Du        
  45408 ****       131.5000 146.7500 128.5000 Du        
  45409 ****       131.5000 146.7500 128.7500 Du        
  45410 ****       131.5000 146.7500 129.0000 Du        
  45411 ****       131.5000 146.7500 129.2500 Du        
  45412 ****       131.5000 146.7500 129.5000 Du        
  45413 ****       131.5000 146.7500 129.7500 Du        
  45414 ****       131.5000 146.7500 145.7500 Du        
  45415 ****       131.5000 146.7500 146.0000 Du        
  45416 ****       131.5000 146.7500 146.2500 Du        
  45417 ****       131.5000 146.7500 146.5000 Du        
  45418 ****       131.5000 147.0000 121.0000 Du        
  45419 ****       131.5000 147.0000 121.2500 Du        
  45420 ****       131.5000 147.0000 121.5000 Du        
  45421 ****       131.5000 147.0000 121.7500 Du        
  45422 ****       131.5000 147.0000 122.0000 Du        
  45423 ****       131.5000 147.0000 122.2500 Du        
  45424 ****       131.5000 147.0000 122.5000 Du        
  45425 ****       131.5000 147.0000 122.7500 Du        
  45426 ****       131.5000 147.0000 123.0000 Du        
  45427 ****       131.5000 147.0000 123.2500 Du        
  45428 ****       131.5000 147.0000 127.7500 Du        
  45429 ****       131.5000 147.0000 128.0000 Du        
  45430 ****       131.5000 147.0000 128.2500 Du        
  45431 ****       131.5000 147.0000 128.5000 Du        
  45432 ****       131.5000 147.0000 128.7500 Du        
  45433 ****       131.5000 147.0000 129.0000 Du        
  45434 ****       131.5000 147.0000 129.2500 Du        
  45435 ****       131.5000 147.0000 129.5000 Du        
  45436 ****       131.5000 147.0000 129.7500 Du        
  45437 ****       131.5000 147.0000 130.0000 Du        
  45438 ****       131.5000 147.0000 130.2500 Du        
  45439 ****       131.5000 147.0000 130.5000 Du        
  45440 ****       131.5000 147.0000 145.7500 Du        
  45441 ****       131.5000 147.0000 146.0000 Du        
  45442 ****       131.5000 147.0000 146.2500 Du        
  45443 ****       131.5000 147.2500 121.0000 Du        
  45444 ****       131.5000 147.2500 121.2500 Du        
  45445 ****       131.5000 147.2500 121.5000 Du        
  45446 ****       131.5000 147.2500 121.7500 Du        
  45447 ****       131.5000 147.2500 122.0000 Du        
  45448 ****       131.5000 147.2500 122.2500 Du        
  45449 ****       131.5000 147.2500 122.5000 Du        
  45450 ****       131.5000 147.2500 122.7500 Du        
  45451 ****       131.5000 147.2500 123.0000 Du        
  45452 ****       131.5000 147.2500 123.2500 Du        
  45453 ****       131.5000 147.2500 123.5000 Du        
  45454 ****       131.5000 147.2500 123.7500 Du        
  45455 ****       131.5000 147.2500 128.0000 Du        
  45456 ****       131.5000 147.2500 128.2500 Du        
  45457 ****       131.5000 147.2500 128.5000 Du        
  45458 ****       131.5000 147.2500 128.7500 Du        
  45459 ****       131.5000 147.2500 129.0000 Du        
  45460 ****       131.5000 147.2500 129.2500 Du        
  45461 ****       131.5000 147.2500 129.5000 Du        
  45462 ****       131.5000 147.2500 129.7500 Du        
  45463 ****       131.5000 147.2500 130.0000 Du        
  45464 ****       131.5000 147.2500 130.2500 Du        
  45465 ****       131.5000 147.2500 130.5000 Du        
  45466 ****       131.5000 147.2500 145.7500 Du        
  45467 ****       131.5000 147.2500 146.0000 Du        
  45468 ****       131.5000 147.5000 121.0000 Du        
  45469 ****       131.5000 147.5000 121.2500 Du        
  45470 ****       131.5000 147.5000 121.5000 Du        
  45471 ****       131.5000 147.5000 121.7500 Du        
  45472 ****       131.5000 147.5000 122.0000 Du        
  45473 ****       131.5000 147.5000 122.2500 Du        
  45474 ****       131.5000 147.5000 122.5000 Du        
  45475 ****       131.5000 147.5000 122.7500 Du        
  45476 ****       131.5000 147.5000 123.0000 Du        
  45477 ****       131.5000 147.5000 123.2500 Du        
  45478 ****       131.5000 147.5000 123.5000 Du        
  45479 ****       131.5000 147.5000 123.7500 Du        
  45480 ****       131.5000 147.5000 124.0000 Du        
  45481 ****       131.5000 147.5000 124.2500 Du        
  45482 ****       131.5000 147.5000 128.5000 Du        
  45483 ****       131.5000 147.5000 128.7500 Du        
  45484 ****       131.5000 147.5000 129.0000 Du        
  45485 ****       131.5000 147.5000 129.2500 Du        
  45486 ****       131.5000 147.5000 129.5000 Du        
  45487 ****       131.5000 147.5000 129.7500 Du        
  45488 ****       131.5000 147.5000 130.0000 Du        
  45489 ****       131.5000 147.5000 130.2500 Du        
  45490 ****       131.5000 147.7500 121.0000 Du        
  45491 ****       131.5000 147.7500 121.2500 Du        
  45492 ****       131.5000 147.7500 121.5000 Du        
  45493 ****       131.5000 147.7500 121.7500 Du        
  45494 ****       131.5000 147.7500 122.0000 Du        
  45495 ****       131.5000 147.7500 122.2500 Du        
  45496 ****       131.5000 147.7500 122.5000 Du        
  45497 ****       131.5000 147.7500 122.7500 Du        
  45498 ****       131.5000 147.7500 123.0000 Du        
  45499 ****       131.5000 147.7500 123.2500 Du        
  45500 ****       131.5000 147.7500 123.5000 Du        
  45501 ****       131.5000 147.7500 123.7500 Du        
  45502 ****       131.5000 147.7500 124.0000 Du        
  45503 ****       131.5000 147.7500 124.2500 Du        
  45504 ****       131.5000 147.7500 128.5000 Du        
  45505 ****       131.5000 147.7500 128.7500 Du        
  45506 ****       131.5000 147.7500 129.0000 Du        
  45507 ****       131.5000 147.7500 129.2500 Du        
  45508 ****       131.5000 147.7500 129.5000 Du        
  45509 ****       131.5000 147.7500 129.7500 Du        
  45510 ****       131.5000 147.7500 130.0000 Du        
  45511 ****       131.5000 147.7500 130.2500 Du        
  45512 ****       131.5000 147.7500 130.5000 Du        
  45513 ****       131.5000 148.0000 121.2500 Du        
  45514 ****       131.5000 148.0000 121.5000 Du        
  45515 ****       131.5000 148.0000 121.7500 Du        
  45516 ****       131.5000 148.0000 122.0000 Du        
  45517 ****       131.5000 148.0000 122.2500 Du        
  45518 ****       131.5000 148.0000 122.5000 Du        
  45519 ****       131.5000 148.0000 122.7500 Du        
  45520 ****       131.5000 148.0000 123.0000 Du        
  45521 ****       131.5000 148.0000 123.2500 Du        
  45522 ****       131.5000 148.0000 123.5000 Du        
  45523 ****       131.5000 148.0000 123.7500 Du        
  45524 ****       131.5000 148.0000 124.0000 Du        
  45525 ****       131.5000 148.0000 124.2500 Du        
  45526 ****       131.5000 148.0000 129.2500 Du        
  45527 ****       131.5000 148.0000 129.5000 Du        
  45528 ****       131.5000 148.0000 129.7500 Du        
  45529 ****       131.5000 148.0000 130.0000 Du        
  45530 ****       131.5000 148.0000 130.2500 Du        
  45531 ****       131.5000 148.2500 121.2500 Du        
  45532 ****       131.5000 148.2500 121.5000 Du        
  45533 ****       131.5000 148.2500 121.7500 Du        
  45534 ****       131.5000 148.2500 122.0000 Du        
  45535 ****       131.5000 148.2500 122.2500 Du        
  45536 ****       131.5000 148.2500 122.5000 Du        
  45537 ****       131.5000 148.2500 122.7500 Du        
  45538 ****       131.5000 148.2500 123.0000 Du        
  45539 ****       131.5000 148.2500 123.2500 Du        
  45540 ****       131.5000 148.2500 123.5000 Du        
  45541 ****       131.5000 148.2500 123.7500 Du        
  45542 ****       131.5000 148.2500 124.0000 Du        
  45543 ****       131.5000 148.2500 124.2500 Du        
  45544 ****       131.5000 148.2500 129.5000 Du        
  45545 ****       131.5000 148.2500 129.7500 Du        
  45546 ****       131.5000 148.2500 130.0000 Du        
  45547 ****       131.5000 148.2500 130.2500 Du        
  45548 ****       131.5000 148.5000 121.2500 Du        
  45549 ****       131.5000 148.5000 121.5000 Du        
  45550 ****       131.5000 148.5000 121.7500 Du        
  45551 ****       131.5000 148.5000 122.0000 Du        
  45552 ****       131.5000 148.5000 122.2500 Du        
  45553 ****       131.5000 148.5000 122.5000 Du        
  45554 ****       131.5000 148.5000 122.7500 Du        
  45555 ****       131.5000 148.5000 123.0000 Du        
  45556 ****       131.5000 148.5000 123.2500 Du        
  45557 ****       131.5000 148.5000 123.5000 Du        
  45558 ****       131.5000 148.5000 123.7500 Du        
  45559 ****       131.5000 148.5000 124.0000 Du        
  45560 ****       131.5000 148.5000 124.2500 Du        
  45561 ****       131.5000 148.7500 121.2500 Du        
  45562 ****       131.5000 148.7500 121.5000 Du        
  45563 ****       131.5000 148.7500 121.7500 Du        
  45564 ****       131.5000 148.7500 122.0000 Du        
  45565 ****       131.5000 148.7500 122.2500 Du        
  45566 ****       131.5000 148.7500 122.5000 Du        
  45567 ****       131.5000 148.7500 122.7500 Du        
  45568 ****       131.5000 148.7500 123.0000 Du        
  45569 ****       131.5000 148.7500 123.2500 Du        
  45570 ****       131.5000 148.7500 123.5000 Du        
  45571 ****       131.5000 148.7500 123.7500 Du        
  45572 ****       131.5000 148.7500 124.0000 Du        
  45573 ****       131.5000 148.7500 124.2500 Du        
  45574 ****       131.5000 149.0000 121.2500 Du        
  45575 ****       131.5000 149.0000 121.5000 Du        
  45576 ****       131.5000 149.0000 121.7500 Du        
  45577 ****       131.5000 149.0000 122.0000 Du        
  45578 ****       131.5000 149.0000 122.2500 Du        
  45579 ****       131.5000 149.0000 122.5000 Du        
  45580 ****       131.5000 149.0000 122.7500 Du        
  45581 ****       131.5000 149.0000 123.0000 Du        
  45582 ****       131.5000 149.0000 123.2500 Du        
  45583 ****       131.5000 149.0000 123.5000 Du        
  45584 ****       131.5000 149.0000 123.7500 Du        
  45585 ****       131.5000 149.0000 124.0000 Du        
  45586 ****       131.5000 149.0000 124.2500 Du        
  45587 ****       131.5000 149.2500 121.2500 Du        
  45588 ****       131.5000 149.2500 121.5000 Du        
  45589 ****       131.5000 149.2500 121.7500 Du        
  45590 ****       131.5000 149.2500 122.0000 Du        
  45591 ****       131.5000 149.2500 122.2500 Du        
  45592 ****       131.5000 149.2500 122.5000 Du        
  45593 ****       131.5000 149.2500 122.7500 Du        
  45594 ****       131.5000 149.2500 123.0000 Du        
  45595 ****       131.5000 149.2500 123.2500 Du        
  45596 ****       131.5000 149.5000 121.7500 Du        
  45597 ****       131.5000 149.5000 122.0000 Du        
  45598 ****       131.5000 149.5000 122.2500 Du        
  45599 ****       131.5000 150.2500 130.5000 Du        
  45600 ****       131.5000 150.7500 130.5000 Du        
  45601 ****       131.5000 150.7500 130.7500 Du        
  45602 ****       131.5000 151.0000 130.7500 Du        
  45603 ****       131.5000 151.2500 130.7500 Du        
  45604 ****       131.5000 151.7500 144.7500 Du        
  45605 ****       131.5000 151.7500 145.0000 Du        
  45606 ****       131.5000 151.7500 145.2500 Du        
  45607 ****       131.5000 152.0000 144.2500 Du        
  45608 ****       131.5000 152.0000 144.5000 Du        
  45609 ****       131.5000 152.0000 144.7500 Du        
  45610 ****       131.5000 152.0000 145.0000 Du        
  45611 ****       131.5000 152.0000 145.2500 Du        
  45612 ****       131.5000 152.2500 144.0000 Du        
  45613 ****       131.5000 152.2500 144.2500 Du        
  45614 ****       131.5000 152.2500 144.5000 Du        
  45615 ****       131.5000 152.2500 144.7500 Du        
  45616 ****       131.5000 152.2500 145.0000 Du        
  45617 ****       131.5000 152.2500 145.2500 Du        
  45618 ****       131.5000 152.5000 144.0000 Du        
  45619 ****       131.5000 152.5000 144.2500 Du        
  45620 ****       131.5000 152.5000 144.5000 Du        
  45621 ****       131.5000 152.5000 144.7500 Du        
  45622 ****       131.5000 152.5000 145.0000 Du        
  45623 ****       131.5000 152.5000 145.2500 Du        
  45624 ****       131.5000 152.5000 145.5000 Du        
  45625 ****       131.5000 152.5000 145.7500 Du        
  45626 ****       131.5000 152.7500 144.0000 Du        
  45627 ****       131.5000 152.7500 144.2500 Du        
  45628 ****       131.5000 152.7500 144.5000 Du        
  45629 ****       131.5000 152.7500 144.7500 Du        
  45630 ****       131.5000 152.7500 145.0000 Du        
  45631 ****       131.5000 152.7500 145.2500 Du        
  45632 ****       131.5000 152.7500 145.5000 Du        
  45633 ****       131.5000 152.7500 145.7500 Du        
  45634 ****       131.5000 153.0000 144.0000 Du        
  45635 ****       131.5000 153.0000 144.2500 Du        
  45636 ****       131.5000 153.0000 144.5000 Du        
  45637 ****       131.5000 153.0000 144.7500 Du        
  45638 ****       131.5000 153.0000 145.0000 Du        
  45639 ****       131.5000 153.0000 145.2500 Du        
  45640 ****       131.5000 153.0000 145.5000 Du        
  45641 ****       131.5000 153.0000 145.7500 Du        
  45642 ****       131.5000 153.0000 146.0000 Du        
  45643 ****       131.5000 153.2500 129.7500 Du        
  45644 ****       131.5000 153.2500 144.0000 Du        
  45645 ****       131.5000 153.2500 144.2500 Du        
  45646 ****       131.5000 153.2500 144.5000 Du        
  45647 ****       131.5000 153.2500 144.7500 Du        
  45648 ****       131.5000 153.2500 145.0000 Du        
  45649 ****       131.5000 153.2500 145.2500 Du        
  45650 ****       131.5000 153.2500 145.5000 Du        
  45651 ****       131.5000 153.2500 145.7500 Du        
  45652 ****       131.5000 153.2500 146.0000 Du        
  45653 ****       131.5000 153.5000 129.5000 Du        
  45654 ****       131.5000 153.5000 129.7500 Du        
  45655 ****       131.5000 153.5000 144.2500 Du        
  45656 ****       131.5000 153.5000 144.5000 Du        
  45657 ****       131.5000 153.5000 144.7500 Du        
  45658 ****       131.5000 153.5000 145.0000 Du        
  45659 ****       131.5000 153.5000 145.2500 Du        
  45660 ****       131.5000 153.5000 145.5000 Du        
  45661 ****       131.5000 153.5000 145.7500 Du        
  45662 ****       131.5000 153.5000 146.0000 Du        
  45663 ****       131.5000 153.5000 146.2500 Du        
  45664 ****       131.5000 153.7500 129.2500 Du        
  45665 ****       131.5000 153.7500 129.5000 Du        
  45666 ****       131.5000 153.7500 129.7500 Du        
  45667 ****       131.5000 153.7500 144.2500 Du        
  45668 ****       131.5000 153.7500 144.5000 Du        
  45669 ****       131.5000 153.7500 144.7500 Du        
  45670 ****       131.5000 153.7500 145.0000 Du        
  45671 ****       131.5000 153.7500 145.2500 Du        
  45672 ****       131.5000 153.7500 145.5000 Du        
  45673 ****       131.5000 153.7500 145.7500 Du        
  45674 ****       131.5000 153.7500 146.0000 Du        
  45675 ****       131.5000 153.7500 146.2500 Du        
  45676 ****       131.5000 154.0000 129.2500 Du        
  45677 ****       131.5000 154.0000 129.5000 Du        
  45678 ****       131.5000 154.0000 129.7500 Du        
  45679 ****       131.5000 154.0000 144.2500 Du        
  45680 ****       131.5000 154.0000 144.5000 Du        
  45681 ****       131.5000 154.0000 144.7500 Du        
  45682 ****       131.5000 154.0000 145.0000 Du        
  45683 ****       131.5000 154.0000 145.2500 Du        
  45684 ****       131.5000 154.0000 145.5000 Du        
  45685 ****       131.5000 154.0000 145.7500 Du        
  45686 ****       131.5000 154.0000 146.0000 Du        
  45687 ****       131.5000 154.0000 146.2500 Du        
  45688 ****       131.5000 154.2500 129.0000 Du        
  45689 ****       131.5000 154.2500 129.2500 Du        
  45690 ****       131.5000 154.2500 129.5000 Du        
  45691 ****       131.5000 154.2500 144.5000 Du        
  45692 ****       131.5000 154.2500 144.7500 Du        
  45693 ****       131.5000 154.2500 145.0000 Du        
  45694 ****       131.5000 154.2500 145.2500 Du        
  45695 ****       131.5000 154.2500 145.5000 Du        
  45696 ****       131.5000 154.2500 145.7500 Du        
  45697 ****       131.5000 154.2500 146.0000 Du        
  45698 ****       131.5000 154.5000 129.0000 Du        
  45699 ****       131.5000 154.5000 129.2500 Du        
  45700 ****       131.5000 154.5000 144.7500 Du        
  45701 ****       131.5000 154.5000 145.0000 Du        
  45702 ****       131.5000 154.5000 145.2500 Du        
  45703 ****       131.5000 154.5000 145.5000 Du        
  45704 ****       131.5000 154.5000 145.7500 Du        
  45705 ****       131.5000 154.7500 127.2500 Du        
  45706 ****       131.5000 154.7500 144.7500 Du        
  45707 ****       131.5000 154.7500 145.0000 Du        
  45708 ****       131.5000 154.7500 145.2500 Du        
  45709 ****       131.5000 154.7500 145.5000 Du        
  45710 ****       131.5000 155.0000 127.0000 Du        
  45711 ****       131.5000 155.0000 127.2500 Du        
  45712 ****       131.5000 155.2500 126.7500 Du        
  45713 ****       131.5000 155.2500 127.0000 Du        
  45714 ****       131.5000 155.2500 127.2500 Du        
  45715 ****       131.5000 155.5000 126.2500 Du        
  45716 ****       131.5000 155.5000 126.5000 Du        
  45717 ****       131.5000 155.5000 126.7500 Du        
  45718 ****       131.5000 155.5000 127.0000 Du        
  45719 ****       131.5000 155.5000 127.2500 Du        
  45720 ****       131.5000 155.7500 126.0000 Du        
  45721 ****       131.5000 155.7500 126.2500 Du        
  45722 ****       131.5000 155.7500 126.5000 Du        
  45723 ****       131.5000 155.7500 126.7500 Du        
  45724 ****       131.5000 155.7500 127.0000 Du        
  45725 ****       131.5000 156.0000 125.7500 Du        
  45726 ****       131.5000 156.0000 126.0000 Du        
  45727 ****       131.5000 156.0000 126.2500 Du        
  45728 ****       131.5000 156.0000 126.5000 Du        
  45729 ****       131.5000 156.0000 126.7500 Du        
  45730 ****       131.5000 156.0000 127.0000 Du        
  45731 ****       131.5000 156.2500 125.7500 Du        
  45732 ****       131.5000 156.2500 126.0000 Du        
  45733 ****       131.5000 156.2500 126.2500 Du        
  45734 ****       131.5000 156.2500 126.5000 Du        
  45735 ****       131.5000 156.2500 126.7500 Du        
  45736 ****       131.5000 156.5000 117.5000 Du        
  45737 ****       131.5000 156.5000 125.7500 Du        
  45738 ****       131.5000 156.5000 126.0000 Du        
  45739 ****       131.5000 156.5000 126.2500 Du        
  45740 ****       131.5000 156.5000 126.5000 Du        
  45741 ****       131.5000 156.5000 126.7500 Du        
  45742 ****       131.5000 156.5000 137.7500 Du        
  45743 ****       131.5000 156.5000 138.0000 Du        
  45744 ****       131.5000 156.7500 117.2500 Du        
  45745 ****       131.5000 156.7500 117.5000 Du        
  45746 ****       131.5000 156.7500 126.0000 Du        
  45747 ****       131.5000 156.7500 126.2500 Du        
  45748 ****       131.5000 156.7500 126.5000 Du        
  45749 ****       131.5000 156.7500 137.2500 Du        
  45750 ****       131.5000 156.7500 137.5000 Du        
  45751 ****       131.5000 156.7500 137.7500 Du        
  45752 ****       131.5000 156.7500 138.0000 Du        
  45753 ****       131.5000 156.7500 138.2500 Du        
  45754 ****       131.5000 156.7500 138.5000 Du        
  45755 ****       131.5000 156.7500 138.7500 Du        
  45756 ****       131.5000 156.7500 139.0000 Du        
  45757 ****       131.5000 157.0000 116.7500 Du        
  45758 ****       131.5000 157.0000 117.0000 Du        
  45759 ****       131.5000 157.0000 117.2500 Du        
  45760 ****       131.5000 157.0000 117.5000 Du        
  45761 ****       131.5000 157.0000 137.2500 Du        
  45762 ****       131.5000 157.0000 137.5000 Du        
  45763 ****       131.5000 157.0000 137.7500 Du        
  45764 ****       131.5000 157.0000 138.0000 Du        
  45765 ****       131.5000 157.0000 138.2500 Du        
  45766 ****       131.5000 157.0000 138.5000 Du        
  45767 ****       131.5000 157.0000 138.7500 Du        
  45768 ****       131.5000 157.0000 139.0000 Du        
  45769 ****       131.5000 157.0000 139.2500 Du        
  45770 ****       131.5000 157.0000 139.5000 Du        
  45771 ****       131.5000 157.0000 139.7500 Du        
  45772 ****       131.5000 157.0000 140.0000 Du        
  45773 ****       131.5000 157.0000 140.2500 Du        
  45774 ****       131.5000 157.2500 116.5000 Du        
  45775 ****       131.5000 157.2500 116.7500 Du        
  45776 ****       131.5000 157.2500 117.0000 Du        
  45777 ****       131.5000 157.2500 117.2500 Du        
  45778 ****       131.5000 157.2500 137.0000 Du        
  45779 ****       131.5000 157.2500 137.2500 Du        
  45780 ****       131.5000 157.2500 137.5000 Du        
  45781 ****       131.5000 157.2500 137.7500 Du        
  45782 ****       131.5000 157.2500 138.0000 Du        
  45783 ****       131.5000 157.2500 138.2500 Du        
  45784 ****       131.5000 157.2500 138.5000 Du        
  45785 ****       131.5000 157.2500 138.7500 Du        
  45786 ****       131.5000 157.2500 139.0000 Du        
  45787 ****       131.5000 157.2500 139.2500 Du        
  45788 ****       131.5000 157.2500 139.5000 Du        
  45789 ****       131.5000 157.2500 139.7500 Du        
  45790 ****       131.5000 157.2500 140.0000 Du        
  45791 ****       131.5000 157.2500 140.2500 Du        
  45792 ****       131.5000 157.5000 116.5000 Du        
  45793 ****       131.5000 157.5000 116.7500 Du        
  45794 ****       131.5000 157.5000 117.0000 Du        
  45795 ****       131.5000 157.5000 117.2500 Du        
  45796 ****       131.5000 157.5000 136.7500 Du        
  45797 ****       131.5000 157.5000 137.0000 Du        
  45798 ****       131.5000 157.5000 137.2500 Du        
  45799 ****       131.5000 157.5000 137.5000 Du        
  45800 ****       131.5000 157.5000 137.7500 Du        
  45801 ****       131.5000 157.5000 138.0000 Du        
  45802 ****       131.5000 157.5000 138.2500 Du        
  45803 ****       131.5000 157.5000 138.5000 Du        
  45804 ****       131.5000 157.5000 138.7500 Du        
  45805 ****       131.5000 157.5000 139.0000 Du        
  45806 ****       131.5000 157.5000 139.2500 Du        
  45807 ****       131.5000 157.5000 139.5000 Du        
  45808 ****       131.5000 157.5000 139.7500 Du        
  45809 ****       131.5000 157.5000 140.0000 Du        
  45810 ****       131.5000 157.7500 116.0000 Du        
  45811 ****       131.5000 157.7500 116.2500 Du        
  45812 ****       131.5000 157.7500 116.5000 Du        
  45813 ****       131.5000 157.7500 116.7500 Du        
  45814 ****       131.5000 157.7500 117.0000 Du        
  45815 ****       131.5000 157.7500 136.5000 Du        
  45816 ****       131.5000 157.7500 136.7500 Du        
  45817 ****       131.5000 157.7500 137.0000 Du        
  45818 ****       131.5000 157.7500 137.2500 Du        
  45819 ****       131.5000 157.7500 137.5000 Du        
  45820 ****       131.5000 157.7500 137.7500 Du        
  45821 ****       131.5000 157.7500 138.0000 Du        
  45822 ****       131.5000 157.7500 138.2500 Du        
  45823 ****       131.5000 157.7500 138.5000 Du        
  45824 ****       131.5000 157.7500 138.7500 Du        
  45825 ****       131.5000 157.7500 139.0000 Du        
  45826 ****       131.5000 157.7500 139.2500 Du        
  45827 ****       131.5000 157.7500 139.5000 Du        
  45828 ****       131.5000 157.7500 139.7500 Du        
  45829 ****       131.5000 158.0000 115.7500 Du        
  45830 ****       131.5000 158.0000 116.0000 Du        
  45831 ****       131.5000 158.0000 116.2500 Du        
  45832 ****       131.5000 158.0000 116.5000 Du        
  45833 ****       131.5000 158.0000 116.7500 Du        
  45834 ****       131.5000 158.0000 136.5000 Du        
  45835 ****       131.5000 158.0000 136.7500 Du        
  45836 ****       131.5000 158.0000 137.0000 Du        
  45837 ****       131.5000 158.0000 137.2500 Du        
  45838 ****       131.5000 158.0000 137.5000 Du        
  45839 ****       131.5000 158.0000 137.7500 Du        
  45840 ****       131.5000 158.0000 138.0000 Du        
  45841 ****       131.5000 158.0000 138.2500 Du        
  45842 ****       131.5000 158.0000 138.5000 Du        
  45843 ****       131.5000 158.0000 138.7500 Du        
  45844 ****       131.5000 158.0000 139.0000 Du        
  45845 ****       131.5000 158.0000 139.2500 Du        
  45846 ****       131.5000 158.0000 139.5000 Du        
  45847 ****       131.5000 158.0000 139.7500 Du        
  45848 ****       131.5000 158.2500 115.5000 Du        
  45849 ****       131.5000 158.2500 115.7500 Du        
  45850 ****       131.5000 158.2500 116.0000 Du        
  45851 ****       131.5000 158.2500 116.2500 Du        
  45852 ****       131.5000 158.2500 116.5000 Du        
  45853 ****       131.5000 158.2500 136.5000 Du        
  45854 ****       131.5000 158.2500 136.7500 Du        
  45855 ****       131.5000 158.2500 137.0000 Du        
  45856 ****       131.5000 158.2500 137.2500 Du        
  45857 ****       131.5000 158.2500 137.5000 Du        
  45858 ****       131.5000 158.2500 137.7500 Du        
  45859 ****       131.5000 158.2500 138.0000 Du        
  45860 ****       131.5000 158.2500 138.2500 Du        
  45861 ****       131.5000 158.2500 138.5000 Du        
  45862 ****       131.5000 158.2500 138.7500 Du        
  45863 ****       131.5000 158.2500 139.0000 Du        
  45864 ****       131.5000 158.2500 139.2500 Du        
  45865 ****       131.5000 158.2500 139.5000 Du        
  45866 ****       131.5000 158.5000 136.5000 Du        
  45867 ****       131.5000 158.5000 136.7500 Du        
  45868 ****       131.5000 158.5000 137.0000 Du        
  45869 ****       131.5000 158.5000 137.2500 Du        
  45870 ****       131.5000 158.5000 137.5000 Du        
  45871 ****       131.5000 158.5000 137.7500 Du        
  45872 ****       131.5000 158.5000 138.0000 Du        
  45873 ****       131.5000 158.5000 138.2500 Du        
  45874 ****       131.5000 158.5000 138.5000 Du        
  45875 ****       131.5000 158.5000 138.7500 Du        
  45876 ****       131.5000 158.5000 139.0000 Du        
  45877 ****       131.5000 158.5000 139.2500 Du        
  45878 ****       131.5000 158.5000 139.5000 Du        
  45879 ****       131.5000 158.7500 136.7500 Du        
  45880 ****       131.5000 158.7500 137.0000 Du        
  45881 ****       131.5000 158.7500 137.2500 Du        
  45882 ****       131.5000 158.7500 137.5000 Du        
  45883 ****       131.5000 158.7500 137.7500 Du        
  45884 ****       131.5000 158.7500 138.0000 Du        
  45885 ****       131.5000 158.7500 138.2500 Du        
  45886 ****       131.5000 158.7500 138.5000 Du        
  45887 ****       131.5000 158.7500 138.7500 Du        
  45888 ****       131.5000 158.7500 139.0000 Du        
  45889 ****       131.5000 158.7500 139.2500 Du        
  45890 ****       131.5000 158.7500 139.5000 Du        
  45891 ****       131.5000 159.0000 136.7500 Du        
  45892 ****       131.5000 159.0000 137.0000 Du        
  45893 ****       131.5000 159.0000 137.2500 Du        
  45894 ****       131.5000 159.0000 137.5000 Du        
  45895 ****       131.5000 159.0000 137.7500 Du        
  45896 ****       131.5000 159.0000 138.0000 Du        
  45897 ****       131.5000 159.0000 138.2500 Du        
  45898 ****       131.5000 159.0000 138.5000 Du        
  45899 ****       131.5000 159.0000 138.7500 Du        
  45900 ****       131.5000 159.0000 139.0000 Du        
  45901 ****       131.5000 159.0000 139.2500 Du        
  45902 ****       131.5000 159.0000 139.5000 Du        
  45903 ****       131.5000 159.2500 136.7500 Du        
  45904 ****       131.5000 159.2500 137.0000 Du        
  45905 ****       131.5000 159.2500 137.2500 Du        
  45906 ****       131.5000 159.2500 137.5000 Du        
  45907 ****       131.5000 159.2500 137.7500 Du        
  45908 ****       131.5000 159.2500 138.0000 Du        
  45909 ****       131.5000 159.2500 138.2500 Du        
  45910 ****       131.5000 159.2500 138.5000 Du        
  45911 ****       131.5000 159.2500 138.7500 Du        
  45912 ****       131.5000 159.2500 139.0000 Du        
  45913 ****       131.5000 159.2500 139.2500 Du        
  45914 ****       131.5000 159.2500 139.5000 Du        
  45915 ****       131.5000 159.5000 137.0000 Du        
  45916 ****       131.5000 159.5000 137.2500 Du        
  45917 ****       131.5000 159.5000 137.5000 Du        
  45918 ****       131.5000 159.5000 137.7500 Du        
  45919 ****       131.5000 159.5000 138.0000 Du        
  45920 ****       131.5000 159.5000 138.2500 Du        
  45921 ****       131.5000 159.5000 138.5000 Du        
  45922 ****       131.5000 159.5000 138.7500 Du        
  45923 ****       131.5000 159.5000 139.0000 Du        
  45924 ****       131.5000 159.5000 139.2500 Du        
  45925 ****       131.5000 159.5000 139.5000 Du        
  45926 ****       131.5000 159.7500 138.2500 Du        
  45927 ****       131.5000 159.7500 138.5000 Du        
  45928 ****       131.5000 159.7500 138.7500 Du        
  45929 ****       131.5000 159.7500 139.0000 Du        
  45930 ****       131.5000 159.7500 139.2500 Du        
  45931 ****       131.7500 133.0000 125.5000 Du        
  45932 ****       131.7500 133.0000 125.7500 Du        
  45933 ****       131.7500 133.0000 126.0000 Du        
  45934 ****       131.7500 133.0000 126.2500 Du        
  45935 ****       131.7500 133.0000 126.5000 Du        
  45936 ****       131.7500 133.0000 126.7500 Du        
  45937 ****       131.7500 133.0000 127.0000 Du        
  45938 ****       131.7500 133.0000 127.2500 Du        
  45939 ****       131.7500 133.0000 127.5000 Du        
  45940 ****       131.7500 133.0000 127.7500 Du        
  45941 ****       131.7500 133.0000 128.0000 Du        
  45942 ****       131.7500 133.2500 125.2500 Du        
  45943 ****       131.7500 133.2500 125.5000 Du        
  45944 ****       131.7500 133.2500 125.7500 Du        
  45945 ****       131.7500 133.2500 126.0000 Du        
  45946 ****       131.7500 133.2500 126.2500 Du        
  45947 ****       131.7500 133.2500 126.5000 Du        
  45948 ****       131.7500 133.5000 125.0000 Du        
  45949 ****       131.7500 133.5000 125.2500 Du        
  45950 ****       131.7500 133.5000 125.5000 Du        
  45951 ****       131.7500 133.5000 125.7500 Du        
  45952 ****       131.7500 133.5000 126.0000 Du        
  45953 ****       131.7500 133.7500 124.7500 Du        
  45954 ****       131.7500 133.7500 125.0000 Du        
  45955 ****       131.7500 133.7500 125.2500 Du        
  45956 ****       131.7500 133.7500 125.5000 Du        
  45957 ****       131.7500 133.7500 125.7500 Du        
  45958 ****       131.7500 134.0000 124.7500 Du        
  45959 ****       131.7500 134.0000 125.0000 Du        
  45960 ****       131.7500 134.0000 125.2500 Du        
  45961 ****       131.7500 141.5000 137.5000 Du        
  45962 ****       131.7500 141.5000 137.7500 Du        
  45963 ****       131.7500 141.5000 138.0000 Du        
  45964 ****       131.7500 141.7500 136.7500 Du        
  45965 ****       131.7500 141.7500 137.0000 Du        
  45966 ****       131.7500 141.7500 137.2500 Du        
  45967 ****       131.7500 141.7500 137.5000 Du        
  45968 ****       131.7500 141.7500 137.7500 Du        
  45969 ****       131.7500 141.7500 138.0000 Du        
  45970 ****       131.7500 142.0000 136.7500 Du        
  45971 ****       131.7500 142.0000 137.0000 Du        
  45972 ****       131.7500 142.0000 137.2500 Du        
  45973 ****       131.7500 142.0000 137.5000 Du        
  45974 ****       131.7500 142.0000 137.7500 Du        
  45975 ****       131.7500 142.0000 138.0000 Du        
  45976 ****       131.7500 142.2500 137.0000 Du        
  45977 ****       131.7500 142.2500 137.2500 Du        
  45978 ****       131.7500 142.2500 137.5000 Du        
  45979 ****       131.7500 142.2500 137.7500 Du        
  45980 ****       131.7500 143.5000 116.5000 Du        
  45981 ****       131.7500 143.5000 116.7500 Du        
  45982 ****       131.7500 143.5000 117.0000 Du        
  45983 ****       131.7500 143.7500 116.2500 Du        
  45984 ****       131.7500 143.7500 116.5000 Du        
  45985 ****       131.7500 143.7500 116.7500 Du        
  45986 ****       131.7500 143.7500 117.0000 Du        
  45987 ****       131.7500 144.0000 116.2500 Du        
  45988 ****       131.7500 144.0000 116.5000 Du        
  45989 ****       131.7500 144.0000 116.7500 Du        
  45990 ****       131.7500 144.0000 117.0000 Du        
  45991 ****       131.7500 144.2500 116.2500 Du        
  45992 ****       131.7500 144.2500 116.5000 Du        
  45993 ****       131.7500 144.2500 116.7500 Du        
  45994 ****       131.7500 144.5000 116.5000 Du        
  45995 ****       131.7500 144.5000 116.7500 Du        
  45996 ****       131.7500 144.5000 117.0000 Du        
  45997 ****       131.7500 144.7500 116.5000 Du        
  45998 ****       131.7500 144.7500 116.7500 Du        
  45999 ****       131.7500 144.7500 117.0000 Du        
  46000 ****       131.7500 145.0000 116.5000 Du        
  46001 ****       131.7500 145.0000 116.7500 Du        
  46002 ****       131.7500 145.0000 117.0000 Du        
  46003 ****       131.7500 145.0000 117.2500 Du        
  46004 ****       131.7500 145.2500 116.5000 Du        
  46005 ****       131.7500 145.2500 116.7500 Du        
  46006 ****       131.7500 145.2500 117.0000 Du        
  46007 ****       131.7500 145.2500 117.2500 Du        
  46008 ****       131.7500 145.5000 116.7500 Du        
  46009 ****       131.7500 145.5000 117.0000 Du        
  46010 ****       131.7500 145.7500 116.5000 Du        
  46011 ****       131.7500 145.7500 116.7500 Du        
  46012 ****       131.7500 145.7500 117.0000 Du        
  46013 ****       131.7500 145.7500 117.2500 Du        
  46014 ****       131.7500 146.0000 116.7500 Du        
  46015 ****       131.7500 146.0000 117.0000 Du        
  46016 ****       131.7500 146.0000 117.2500 Du        
  46017 ****       131.7500 146.0000 146.7500 Du        
  46018 ****       131.7500 146.0000 147.0000 Du        
  46019 ****       131.7500 146.2500 146.2500 Du        
  46020 ****       131.7500 146.2500 146.5000 Du        
  46021 ****       131.7500 146.2500 146.7500 Du        
  46022 ****       131.7500 146.5000 129.0000 Du        
  46023 ****       131.7500 146.5000 129.2500 Du        
  46024 ****       131.7500 146.5000 129.5000 Du        
  46025 ****       131.7500 146.5000 146.0000 Du        
  46026 ****       131.7500 146.5000 146.2500 Du        
  46027 ****       131.7500 146.5000 146.5000 Du        
  46028 ****       131.7500 146.7500 120.7500 Du        
  46029 ****       131.7500 146.7500 121.0000 Du        
  46030 ****       131.7500 146.7500 121.2500 Du        
  46031 ****       131.7500 146.7500 121.5000 Du        
  46032 ****       131.7500 146.7500 128.5000 Du        
  46033 ****       131.7500 146.7500 128.7500 Du        
  46034 ****       131.7500 146.7500 129.0000 Du        
  46035 ****       131.7500 146.7500 129.2500 Du        
  46036 ****       131.7500 146.7500 129.5000 Du        
  46037 ****       131.7500 146.7500 129.7500 Du        
  46038 ****       131.7500 146.7500 130.0000 Du        
  46039 ****       131.7500 146.7500 130.2500 Du        
  46040 ****       131.7500 146.7500 130.5000 Du        
  46041 ****       131.7500 146.7500 145.7500 Du        
  46042 ****       131.7500 146.7500 146.0000 Du        
  46043 ****       131.7500 146.7500 146.2500 Du        
  46044 ****       131.7500 147.0000 120.7500 Du        
  46045 ****       131.7500 147.0000 121.0000 Du        
  46046 ****       131.7500 147.0000 121.2500 Du        
  46047 ****       131.7500 147.0000 121.5000 Du        
  46048 ****       131.7500 147.0000 121.7500 Du        
  46049 ****       131.7500 147.0000 122.0000 Du        
  46050 ****       131.7500 147.0000 122.2500 Du        
  46051 ****       131.7500 147.0000 122.5000 Du        
  46052 ****       131.7500 147.0000 122.7500 Du        
  46053 ****       131.7500 147.0000 123.0000 Du        
  46054 ****       131.7500 147.0000 123.2500 Du        
  46055 ****       131.7500 147.0000 128.0000 Du        
  46056 ****       131.7500 147.0000 128.2500 Du        
  46057 ****       131.7500 147.0000 128.5000 Du        
  46058 ****       131.7500 147.0000 128.7500 Du        
  46059 ****       131.7500 147.0000 129.0000 Du        
  46060 ****       131.7500 147.0000 129.2500 Du        
  46061 ****       131.7500 147.0000 129.5000 Du        
  46062 ****       131.7500 147.0000 129.7500 Du        
  46063 ****       131.7500 147.0000 130.0000 Du        
  46064 ****       131.7500 147.0000 130.2500 Du        
  46065 ****       131.7500 147.0000 130.5000 Du        
  46066 ****       131.7500 147.0000 145.7500 Du        
  46067 ****       131.7500 147.0000 146.0000 Du        
  46068 ****       131.7500 147.0000 146.2500 Du        
  46069 ****       131.7500 147.2500 120.7500 Du        
  46070 ****       131.7500 147.2500 121.0000 Du        
  46071 ****       131.7500 147.2500 121.2500 Du        
  46072 ****       131.7500 147.2500 121.5000 Du        
  46073 ****       131.7500 147.2500 121.7500 Du        
  46074 ****       131.7500 147.2500 122.0000 Du        
  46075 ****       131.7500 147.2500 122.2500 Du        
  46076 ****       131.7500 147.2500 122.5000 Du        
  46077 ****       131.7500 147.2500 122.7500 Du        
  46078 ****       131.7500 147.2500 123.0000 Du        
  46079 ****       131.7500 147.2500 123.2500 Du        
  46080 ****       131.7500 147.2500 123.5000 Du        
  46081 ****       131.7500 147.2500 123.7500 Du        
  46082 ****       131.7500 147.2500 128.0000 Du        
  46083 ****       131.7500 147.2500 128.2500 Du        
  46084 ****       131.7500 147.2500 128.5000 Du        
  46085 ****       131.7500 147.2500 128.7500 Du        
  46086 ****       131.7500 147.2500 129.0000 Du        
  46087 ****       131.7500 147.2500 129.2500 Du        
  46088 ****       131.7500 147.2500 129.5000 Du        
  46089 ****       131.7500 147.2500 129.7500 Du        
  46090 ****       131.7500 147.2500 130.0000 Du        
  46091 ****       131.7500 147.2500 130.2500 Du        
  46092 ****       131.7500 147.2500 130.5000 Du        
  46093 ****       131.7500 147.2500 130.7500 Du        
  46094 ****       131.7500 147.5000 120.7500 Du        
  46095 ****       131.7500 147.5000 121.0000 Du        
  46096 ****       131.7500 147.5000 121.2500 Du        
  46097 ****       131.7500 147.5000 121.5000 Du        
  46098 ****       131.7500 147.5000 121.7500 Du        
  46099 ****       131.7500 147.5000 122.0000 Du        
  46100 ****       131.7500 147.5000 122.2500 Du        
  46101 ****       131.7500 147.5000 122.5000 Du        
  46102 ****       131.7500 147.5000 122.7500 Du        
  46103 ****       131.7500 147.5000 123.0000 Du        
  46104 ****       131.7500 147.5000 123.2500 Du        
  46105 ****       131.7500 147.5000 123.5000 Du        
  46106 ****       131.7500 147.5000 123.7500 Du        
  46107 ****       131.7500 147.5000 124.0000 Du        
  46108 ****       131.7500 147.5000 124.2500 Du        
  46109 ****       131.7500 147.5000 128.7500 Du        
  46110 ****       131.7500 147.5000 129.0000 Du        
  46111 ****       131.7500 147.5000 129.2500 Du        
  46112 ****       131.7500 147.5000 129.5000 Du        
  46113 ****       131.7500 147.5000 129.7500 Du        
  46114 ****       131.7500 147.5000 130.0000 Du        
  46115 ****       131.7500 147.5000 130.2500 Du        
  46116 ****       131.7500 147.5000 130.5000 Du        
  46117 ****       131.7500 147.7500 121.0000 Du        
  46118 ****       131.7500 147.7500 121.2500 Du        
  46119 ****       131.7500 147.7500 121.5000 Du        
  46120 ****       131.7500 147.7500 121.7500 Du        
  46121 ****       131.7500 147.7500 122.0000 Du        
  46122 ****       131.7500 147.7500 122.2500 Du        
  46123 ****       131.7500 147.7500 122.5000 Du        
  46124 ****       131.7500 147.7500 122.7500 Du        
  46125 ****       131.7500 147.7500 123.0000 Du        
  46126 ****       131.7500 147.7500 123.2500 Du        
  46127 ****       131.7500 147.7500 123.5000 Du        
  46128 ****       131.7500 147.7500 123.7500 Du        
  46129 ****       131.7500 147.7500 124.0000 Du        
  46130 ****       131.7500 147.7500 124.2500 Du        
  46131 ****       131.7500 147.7500 124.5000 Du        
  46132 ****       131.7500 147.7500 129.0000 Du        
  46133 ****       131.7500 147.7500 129.2500 Du        
  46134 ****       131.7500 147.7500 129.5000 Du        
  46135 ****       131.7500 147.7500 129.7500 Du        
  46136 ****       131.7500 147.7500 130.0000 Du        
  46137 ****       131.7500 147.7500 130.2500 Du        
  46138 ****       131.7500 147.7500 130.5000 Du        
  46139 ****       131.7500 148.0000 121.0000 Du        
  46140 ****       131.7500 148.0000 121.2500 Du        
  46141 ****       131.7500 148.0000 121.5000 Du        
  46142 ****       131.7500 148.0000 121.7500 Du        
  46143 ****       131.7500 148.0000 122.0000 Du        
  46144 ****       131.7500 148.0000 122.2500 Du        
  46145 ****       131.7500 148.0000 122.5000 Du        
  46146 ****       131.7500 148.0000 122.7500 Du        
  46147 ****       131.7500 148.0000 123.0000 Du        
  46148 ****       131.7500 148.0000 123.2500 Du        
  46149 ****       131.7500 148.0000 123.5000 Du        
  46150 ****       131.7500 148.0000 123.7500 Du        
  46151 ****       131.7500 148.0000 124.0000 Du        
  46152 ****       131.7500 148.0000 124.2500 Du        
  46153 ****       131.7500 148.0000 124.5000 Du        
  46154 ****       131.7500 148.0000 124.7500 Du        
  46155 ****       131.7500 148.0000 125.0000 Du        
  46156 ****       131.7500 148.0000 129.0000 Du        
  46157 ****       131.7500 148.0000 129.2500 Du        
  46158 ****       131.7500 148.0000 129.5000 Du        
  46159 ****       131.7500 148.0000 129.7500 Du        
  46160 ****       131.7500 148.0000 130.0000 Du        
  46161 ****       131.7500 148.0000 130.2500 Du        
  46162 ****       131.7500 148.0000 130.5000 Du        
  46163 ****       131.7500 148.2500 121.0000 Du        
  46164 ****       131.7500 148.2500 121.2500 Du        
  46165 ****       131.7500 148.2500 121.5000 Du        
  46166 ****       131.7500 148.2500 121.7500 Du        
  46167 ****       131.7500 148.2500 122.0000 Du        
  46168 ****       131.7500 148.2500 122.2500 Du        
  46169 ****       131.7500 148.2500 122.5000 Du        
  46170 ****       131.7500 148.2500 122.7500 Du        
  46171 ****       131.7500 148.2500 123.0000 Du        
  46172 ****       131.7500 148.2500 123.2500 Du        
  46173 ****       131.7500 148.2500 123.5000 Du        
  46174 ****       131.7500 148.2500 123.7500 Du        
  46175 ****       131.7500 148.2500 124.0000 Du        
  46176 ****       131.7500 148.2500 124.2500 Du        
  46177 ****       131.7500 148.2500 124.5000 Du        
  46178 ****       131.7500 148.2500 124.7500 Du        
  46179 ****       131.7500 148.2500 125.0000 Du        
  46180 ****       131.7500 148.2500 129.2500 Du        
  46181 ****       131.7500 148.2500 129.5000 Du        
  46182 ****       131.7500 148.2500 129.7500 Du        
  46183 ****       131.7500 148.2500 130.0000 Du        
  46184 ****       131.7500 148.2500 130.2500 Du        
  46185 ****       131.7500 148.2500 130.5000 Du        
  46186 ****       131.7500 148.5000 121.0000 Du        
  46187 ****       131.7500 148.5000 121.2500 Du        
  46188 ****       131.7500 148.5000 121.5000 Du        
  46189 ****       131.7500 148.5000 121.7500 Du        
  46190 ****       131.7500 148.5000 122.0000 Du        
  46191 ****       131.7500 148.5000 122.2500 Du        
  46192 ****       131.7500 148.5000 122.5000 Du        
  46193 ****       131.7500 148.5000 122.7500 Du        
  46194 ****       131.7500 148.5000 123.0000 Du        
  46195 ****       131.7500 148.5000 123.2500 Du        
  46196 ****       131.7500 148.5000 123.5000 Du        
  46197 ****       131.7500 148.5000 123.7500 Du        
  46198 ****       131.7500 148.5000 124.0000 Du        
  46199 ****       131.7500 148.5000 124.2500 Du        
  46200 ****       131.7500 148.5000 130.2500 Du        
  46201 ****       131.7500 148.7500 121.0000 Du        
  46202 ****       131.7500 148.7500 121.2500 Du        
  46203 ****       131.7500 148.7500 121.5000 Du        
  46204 ****       131.7500 148.7500 121.7500 Du        
  46205 ****       131.7500 148.7500 122.0000 Du        
  46206 ****       131.7500 148.7500 122.2500 Du        
  46207 ****       131.7500 148.7500 122.5000 Du        
  46208 ****       131.7500 148.7500 122.7500 Du        
  46209 ****       131.7500 148.7500 123.0000 Du        
  46210 ****       131.7500 148.7500 123.2500 Du        
  46211 ****       131.7500 148.7500 123.5000 Du        
  46212 ****       131.7500 148.7500 123.7500 Du        
  46213 ****       131.7500 148.7500 124.0000 Du        
  46214 ****       131.7500 148.7500 124.2500 Du        
  46215 ****       131.7500 148.7500 124.5000 Du        
  46216 ****       131.7500 148.7500 124.7500 Du        
  46217 ****       131.7500 148.7500 130.0000 Du        
  46218 ****       131.7500 148.7500 130.2500 Du        
  46219 ****       131.7500 149.0000 121.0000 Du        
  46220 ****       131.7500 149.0000 121.2500 Du        
  46221 ****       131.7500 149.0000 121.5000 Du        
  46222 ****       131.7500 149.0000 121.7500 Du        
  46223 ****       131.7500 149.0000 122.0000 Du        
  46224 ****       131.7500 149.0000 122.2500 Du        
  46225 ****       131.7500 149.0000 122.5000 Du        
  46226 ****       131.7500 149.0000 122.7500 Du        
  46227 ****       131.7500 149.0000 123.0000 Du        
  46228 ****       131.7500 149.0000 123.2500 Du        
  46229 ****       131.7500 149.0000 123.5000 Du        
  46230 ****       131.7500 149.0000 123.7500 Du        
  46231 ****       131.7500 149.0000 124.0000 Du        
  46232 ****       131.7500 149.0000 124.2500 Du        
  46233 ****       131.7500 149.0000 130.0000 Du        
  46234 ****       131.7500 149.0000 130.2500 Du        
  46235 ****       131.7500 149.2500 121.2500 Du        
  46236 ****       131.7500 149.2500 121.5000 Du        
  46237 ****       131.7500 149.2500 121.7500 Du        
  46238 ****       131.7500 149.2500 122.0000 Du        
  46239 ****       131.7500 149.2500 122.2500 Du        
  46240 ****       131.7500 149.2500 122.5000 Du        
  46241 ****       131.7500 149.2500 122.7500 Du        
  46242 ****       131.7500 149.2500 123.0000 Du        
  46243 ****       131.7500 149.2500 123.2500 Du        
  46244 ****       131.7500 149.2500 123.5000 Du        
  46245 ****       131.7500 149.2500 123.7500 Du        
  46246 ****       131.7500 149.2500 124.0000 Du        
  46247 ****       131.7500 149.2500 124.2500 Du        
  46248 ****       131.7500 149.2500 130.0000 Du        
  46249 ****       131.7500 149.2500 130.2500 Du        
  46250 ****       131.7500 149.2500 130.5000 Du        
  46251 ****       131.7500 149.5000 121.5000 Du        
  46252 ****       131.7500 149.5000 121.7500 Du        
  46253 ****       131.7500 149.5000 122.0000 Du        
  46254 ****       131.7500 149.5000 122.2500 Du        
  46255 ****       131.7500 149.5000 122.5000 Du        
  46256 ****       131.7500 149.5000 122.7500 Du        
  46257 ****       131.7500 149.5000 123.0000 Du        
  46258 ****       131.7500 149.5000 123.2500 Du        
  46259 ****       131.7500 149.5000 123.5000 Du        
  46260 ****       131.7500 149.5000 123.7500 Du        
  46261 ****       131.7500 149.5000 130.2500 Du        
  46262 ****       131.7500 149.7500 122.0000 Du        
  46263 ****       131.7500 149.7500 122.2500 Du        
  46264 ****       131.7500 149.7500 122.5000 Du        
  46265 ****       131.7500 149.7500 122.7500 Du        
  46266 ****       131.7500 149.7500 123.0000 Du        
  46267 ****       131.7500 149.7500 130.2500 Du        
  46268 ****       131.7500 149.7500 130.5000 Du        
  46269 ****       131.7500 150.0000 122.2500 Du        
  46270 ****       131.7500 150.0000 130.2500 Du        
  46271 ****       131.7500 150.0000 130.5000 Du        
  46272 ****       131.7500 150.2500 130.2500 Du        
  46273 ****       131.7500 150.2500 130.5000 Du        
  46274 ****       131.7500 150.2500 130.7500 Du        
  46275 ****       131.7500 150.5000 130.5000 Du        
  46276 ****       131.7500 152.2500 145.0000 Du        
  46277 ****       131.7500 152.2500 145.2500 Du        
  46278 ****       131.7500 152.5000 144.7500 Du        
  46279 ****       131.7500 152.5000 145.0000 Du        
  46280 ****       131.7500 152.5000 145.2500 Du        
  46281 ****       131.7500 152.5000 145.5000 Du        
  46282 ****       131.7500 152.7500 144.2500 Du        
  46283 ****       131.7500 152.7500 144.5000 Du        
  46284 ****       131.7500 152.7500 144.7500 Du        
  46285 ****       131.7500 152.7500 145.0000 Du        
  46286 ****       131.7500 152.7500 145.2500 Du        
  46287 ****       131.7500 152.7500 145.5000 Du        
  46288 ****       131.7500 152.7500 145.7500 Du        
  46289 ****       131.7500 152.7500 146.0000 Du        
  46290 ****       131.7500 153.0000 144.2500 Du        
  46291 ****       131.7500 153.0000 144.5000 Du        
  46292 ****       131.7500 153.0000 144.7500 Du        
  46293 ****       131.7500 153.0000 145.0000 Du        
  46294 ****       131.7500 153.0000 145.2500 Du        
  46295 ****       131.7500 153.0000 145.5000 Du        
  46296 ****       131.7500 153.0000 145.7500 Du        
  46297 ****       131.7500 153.0000 146.0000 Du        
  46298 ****       131.7500 153.2500 129.5000 Du        
  46299 ****       131.7500 153.2500 129.7500 Du        
  46300 ****       131.7500 153.2500 144.2500 Du        
  46301 ****       131.7500 153.2500 144.5000 Du        
  46302 ****       131.7500 153.2500 144.7500 Du        
  46303 ****       131.7500 153.2500 145.0000 Du        
  46304 ****       131.7500 153.2500 145.2500 Du        
  46305 ****       131.7500 153.2500 145.5000 Du        
  46306 ****       131.7500 153.2500 145.7500 Du        
  46307 ****       131.7500 153.2500 146.0000 Du        
  46308 ****       131.7500 153.5000 129.2500 Du        
  46309 ****       131.7500 153.5000 129.5000 Du        
  46310 ****       131.7500 153.5000 129.7500 Du        
  46311 ****       131.7500 153.5000 144.5000 Du        
  46312 ****       131.7500 153.5000 144.7500 Du        
  46313 ****       131.7500 153.5000 145.0000 Du        
  46314 ****       131.7500 153.5000 145.2500 Du        
  46315 ****       131.7500 153.5000 145.5000 Du        
  46316 ****       131.7500 153.5000 145.7500 Du        
  46317 ****       131.7500 153.5000 146.0000 Du        
  46318 ****       131.7500 153.5000 146.2500 Du        
  46319 ****       131.7500 153.7500 129.0000 Du        
  46320 ****       131.7500 153.7500 129.2500 Du        
  46321 ****       131.7500 153.7500 129.5000 Du        
  46322 ****       131.7500 153.7500 129.7500 Du        
  46323 ****       131.7500 153.7500 144.5000 Du        
  46324 ****       131.7500 153.7500 144.7500 Du        
  46325 ****       131.7500 153.7500 145.0000 Du        
  46326 ****       131.7500 153.7500 145.2500 Du        
  46327 ****       131.7500 153.7500 145.5000 Du        
  46328 ****       131.7500 153.7500 145.7500 Du        
  46329 ****       131.7500 153.7500 146.0000 Du        
  46330 ****       131.7500 153.7500 146.2500 Du        
  46331 ****       131.7500 154.0000 129.0000 Du        
  46332 ****       131.7500 154.0000 129.2500 Du        
  46333 ****       131.7500 154.0000 129.5000 Du        
  46334 ****       131.7500 154.0000 129.7500 Du        
  46335 ****       131.7500 154.0000 144.7500 Du        
  46336 ****       131.7500 154.0000 145.0000 Du        
  46337 ****       131.7500 154.0000 145.2500 Du        
  46338 ****       131.7500 154.0000 145.5000 Du        
  46339 ****       131.7500 154.0000 145.7500 Du        
  46340 ****       131.7500 154.0000 146.0000 Du        
  46341 ****       131.7500 154.0000 146.2500 Du        
  46342 ****       131.7500 154.2500 129.0000 Du        
  46343 ****       131.7500 154.2500 129.2500 Du        
  46344 ****       131.7500 154.2500 129.5000 Du        
  46345 ****       131.7500 154.2500 145.0000 Du        
  46346 ****       131.7500 154.2500 145.2500 Du        
  46347 ****       131.7500 154.2500 145.5000 Du        
  46348 ****       131.7500 154.2500 145.7500 Du        
  46349 ****       131.7500 154.2500 146.0000 Du        
  46350 ****       131.7500 154.2500 146.2500 Du        
  46351 ****       131.7500 154.5000 127.0000 Du        
  46352 ****       131.7500 154.5000 127.2500 Du        
  46353 ****       131.7500 154.5000 145.0000 Du        
  46354 ****       131.7500 154.5000 145.2500 Du        
  46355 ****       131.7500 154.5000 145.5000 Du        
  46356 ****       131.7500 154.5000 145.7500 Du        
  46357 ****       131.7500 154.5000 146.0000 Du        
  46358 ****       131.7500 154.7500 127.0000 Du        
  46359 ****       131.7500 154.7500 127.2500 Du        
  46360 ****       131.7500 154.7500 145.2500 Du        
  46361 ****       131.7500 154.7500 145.5000 Du        
  46362 ****       131.7500 155.0000 126.7500 Du        
  46363 ****       131.7500 155.0000 127.0000 Du        
  46364 ****       131.7500 155.0000 127.2500 Du        
  46365 ****       131.7500 155.2500 126.2500 Du        
  46366 ****       131.7500 155.2500 126.5000 Du        
  46367 ****       131.7500 155.2500 126.7500 Du        
  46368 ****       131.7500 155.2500 127.0000 Du        
  46369 ****       131.7500 155.5000 126.0000 Du        
  46370 ****       131.7500 155.5000 126.2500 Du        
  46371 ****       131.7500 155.5000 126.5000 Du        
  46372 ****       131.7500 155.5000 126.7500 Du        
  46373 ****       131.7500 155.5000 127.0000 Du        
  46374 ****       131.7500 155.7500 126.0000 Du        
  46375 ****       131.7500 155.7500 126.2500 Du        
  46376 ****       131.7500 155.7500 126.5000 Du        
  46377 ****       131.7500 155.7500 126.7500 Du        
  46378 ****       131.7500 155.7500 127.0000 Du        
  46379 ****       131.7500 156.0000 125.7500 Du        
  46380 ****       131.7500 156.0000 126.0000 Du        
  46381 ****       131.7500 156.0000 126.2500 Du        
  46382 ****       131.7500 156.0000 126.5000 Du        
  46383 ****       131.7500 156.0000 126.7500 Du        
  46384 ****       131.7500 156.2500 125.5000 Du        
  46385 ****       131.7500 156.2500 125.7500 Du        
  46386 ****       131.7500 156.2500 126.0000 Du        
  46387 ****       131.7500 156.2500 126.2500 Du        
  46388 ****       131.7500 156.2500 126.5000 Du        
  46389 ****       131.7500 156.2500 126.7500 Du        
  46390 ****       131.7500 156.5000 117.5000 Du        
  46391 ****       131.7500 156.5000 117.7500 Du        
  46392 ****       131.7500 156.5000 125.7500 Du        
  46393 ****       131.7500 156.5000 126.0000 Du        
  46394 ****       131.7500 156.5000 126.2500 Du        
  46395 ****       131.7500 156.5000 126.5000 Du        
  46396 ****       131.7500 156.5000 137.7500 Du        
  46397 ****       131.7500 156.7500 117.0000 Du        
  46398 ****       131.7500 156.7500 117.2500 Du        
  46399 ****       131.7500 156.7500 117.5000 Du        
  46400 ****       131.7500 156.7500 117.7500 Du        
  46401 ****       131.7500 156.7500 126.0000 Du        
  46402 ****       131.7500 156.7500 126.2500 Du        
  46403 ****       131.7500 156.7500 137.2500 Du        
  46404 ****       131.7500 156.7500 137.5000 Du        
  46405 ****       131.7500 156.7500 137.7500 Du        
  46406 ****       131.7500 156.7500 138.0000 Du        
  46407 ****       131.7500 156.7500 138.2500 Du        
  46408 ****       131.7500 156.7500 138.5000 Du        
  46409 ****       131.7500 156.7500 138.7500 Du        
  46410 ****       131.7500 156.7500 139.0000 Du        
  46411 ****       131.7500 156.7500 139.2500 Du        
  46412 ****       131.7500 156.7500 139.7500 Du        
  46413 ****       131.7500 157.0000 116.7500 Du        
  46414 ****       131.7500 157.0000 117.0000 Du        
  46415 ****       131.7500 157.0000 117.2500 Du        
  46416 ****       131.7500 157.0000 117.5000 Du        
  46417 ****       131.7500 157.0000 117.7500 Du        
  46418 ****       131.7500 157.0000 137.0000 Du        
  46419 ****       131.7500 157.0000 137.2500 Du        
  46420 ****       131.7500 157.0000 137.5000 Du        
  46421 ****       131.7500 157.0000 137.7500 Du        
  46422 ****       131.7500 157.0000 138.0000 Du        
  46423 ****       131.7500 157.0000 138.2500 Du        
  46424 ****       131.7500 157.0000 138.5000 Du        
  46425 ****       131.7500 157.0000 138.7500 Du        
  46426 ****       131.7500 157.0000 139.0000 Du        
  46427 ****       131.7500 157.0000 139.2500 Du        
  46428 ****       131.7500 157.0000 139.5000 Du        
  46429 ****       131.7500 157.0000 139.7500 Du        
  46430 ****       131.7500 157.0000 140.0000 Du        
  46431 ****       131.7500 157.0000 140.2500 Du        
  46432 ****       131.7500 157.2500 116.7500 Du        
  46433 ****       131.7500 157.2500 117.0000 Du        
  46434 ****       131.7500 157.2500 117.2500 Du        
  46435 ****       131.7500 157.2500 117.5000 Du        
  46436 ****       131.7500 157.2500 137.0000 Du        
  46437 ****       131.7500 157.2500 137.2500 Du        
  46438 ****       131.7500 157.2500 137.5000 Du        
  46439 ****       131.7500 157.2500 137.7500 Du        
  46440 ****       131.7500 157.2500 138.0000 Du        
  46441 ****       131.7500 157.2500 138.2500 Du        
  46442 ****       131.7500 157.2500 138.5000 Du        
  46443 ****       131.7500 157.2500 138.7500 Du        
  46444 ****       131.7500 157.2500 139.0000 Du        
  46445 ****       131.7500 157.2500 139.2500 Du        
  46446 ****       131.7500 157.2500 139.5000 Du        
  46447 ****       131.7500 157.2500 139.7500 Du        
  46448 ****       131.7500 157.2500 140.0000 Du        
  46449 ****       131.7500 157.2500 140.2500 Du        
  46450 ****       131.7500 157.2500 140.5000 Du        
  46451 ****       131.7500 157.5000 116.5000 Du        
  46452 ****       131.7500 157.5000 116.7500 Du        
  46453 ****       131.7500 157.5000 117.0000 Du        
  46454 ****       131.7500 157.5000 117.2500 Du        
  46455 ****       131.7500 157.5000 117.5000 Du        
  46456 ****       131.7500 157.5000 136.7500 Du        
  46457 ****       131.7500 157.5000 137.0000 Du        
  46458 ****       131.7500 157.5000 137.2500 Du        
  46459 ****       131.7500 157.5000 137.5000 Du        
  46460 ****       131.7500 157.5000 137.7500 Du        
  46461 ****       131.7500 157.5000 138.0000 Du        
  46462 ****       131.7500 157.5000 138.2500 Du        
  46463 ****       131.7500 157.5000 138.5000 Du        
  46464 ****       131.7500 157.5000 138.7500 Du        
  46465 ****       131.7500 157.5000 139.0000 Du        
  46466 ****       131.7500 157.5000 139.2500 Du        
  46467 ****       131.7500 157.5000 139.5000 Du        
  46468 ****       131.7500 157.5000 139.7500 Du        
  46469 ****       131.7500 157.5000 140.0000 Du        
  46470 ****       131.7500 157.5000 140.2500 Du        
  46471 ****       131.7500 157.5000 140.5000 Du        
  46472 ****       131.7500 157.7500 116.2500 Du        
  46473 ****       131.7500 157.7500 116.5000 Du        
  46474 ****       131.7500 157.7500 116.7500 Du        
  46475 ****       131.7500 157.7500 117.0000 Du        
  46476 ****       131.7500 157.7500 117.2500 Du        
  46477 ****       131.7500 157.7500 136.5000 Du        
  46478 ****       131.7500 157.7500 136.7500 Du        
  46479 ****       131.7500 157.7500 137.0000 Du        
  46480 ****       131.7500 157.7500 137.2500 Du        
  46481 ****       131.7500 157.7500 137.5000 Du        
  46482 ****       131.7500 157.7500 137.7500 Du        
  46483 ****       131.7500 157.7500 138.0000 Du        
  46484 ****       131.7500 157.7500 138.2500 Du        
  46485 ****       131.7500 157.7500 138.5000 Du        
  46486 ****       131.7500 157.7500 138.7500 Du        
  46487 ****       131.7500 157.7500 139.0000 Du        
  46488 ****       131.7500 157.7500 139.2500 Du        
  46489 ****       131.7500 157.7500 139.5000 Du        
  46490 ****       131.7500 157.7500 139.7500 Du        
  46491 ****       131.7500 157.7500 140.0000 Du        
  46492 ****       131.7500 157.7500 140.2500 Du        
  46493 ****       131.7500 158.0000 115.7500 Du        
  46494 ****       131.7500 158.0000 116.0000 Du        
  46495 ****       131.7500 158.0000 116.2500 Du        
  46496 ****       131.7500 158.0000 116.5000 Du        
  46497 ****       131.7500 158.0000 116.7500 Du        
  46498 ****       131.7500 158.0000 136.5000 Du        
  46499 ****       131.7500 158.0000 136.7500 Du        
  46500 ****       131.7500 158.0000 137.0000 Du        
  46501 ****       131.7500 158.0000 137.2500 Du        
  46502 ****       131.7500 158.0000 137.5000 Du        
  46503 ****       131.7500 158.0000 137.7500 Du        
  46504 ****       131.7500 158.0000 138.0000 Du        
  46505 ****       131.7500 158.0000 138.2500 Du        
  46506 ****       131.7500 158.0000 138.5000 Du        
  46507 ****       131.7500 158.0000 138.7500 Du        
  46508 ****       131.7500 158.0000 139.0000 Du        
  46509 ****       131.7500 158.0000 139.2500 Du        
  46510 ****       131.7500 158.0000 139.5000 Du        
  46511 ****       131.7500 158.0000 139.7500 Du        
  46512 ****       131.7500 158.0000 140.0000 Du        
  46513 ****       131.7500 158.0000 140.2500 Du        
  46514 ****       131.7500 158.2500 115.7500 Du        
  46515 ****       131.7500 158.2500 116.0000 Du        
  46516 ****       131.7500 158.2500 136.5000 Du        
  46517 ****       131.7500 158.2500 136.7500 Du        
  46518 ****       131.7500 158.2500 137.0000 Du        
  46519 ****       131.7500 158.2500 137.2500 Du        
  46520 ****       131.7500 158.2500 137.5000 Du        
  46521 ****       131.7500 158.2500 137.7500 Du        
  46522 ****       131.7500 158.2500 138.0000 Du        
  46523 ****       131.7500 158.2500 138.2500 Du        
  46524 ****       131.7500 158.2500 138.5000 Du        
  46525 ****       131.7500 158.2500 138.7500 Du        
  46526 ****       131.7500 158.2500 139.0000 Du        
  46527 ****       131.7500 158.2500 139.2500 Du        
  46528 ****       131.7500 158.2500 139.5000 Du        
  46529 ****       131.7500 158.2500 139.7500 Du        
  46530 ****       131.7500 158.2500 140.0000 Du        
  46531 ****       131.7500 158.5000 136.5000 Du        
  46532 ****       131.7500 158.5000 136.7500 Du        
  46533 ****       131.7500 158.5000 137.0000 Du        
  46534 ****       131.7500 158.5000 137.2500 Du        
  46535 ****       131.7500 158.5000 137.5000 Du        
  46536 ****       131.7500 158.5000 137.7500 Du        
  46537 ****       131.7500 158.5000 138.0000 Du        
  46538 ****       131.7500 158.5000 138.2500 Du        
  46539 ****       131.7500 158.5000 138.5000 Du        
  46540 ****       131.7500 158.5000 138.7500 Du        
  46541 ****       131.7500 158.5000 139.0000 Du        
  46542 ****       131.7500 158.5000 139.2500 Du        
  46543 ****       131.7500 158.5000 139.5000 Du        
  46544 ****       131.7500 158.5000 139.7500 Du        
  46545 ****       131.7500 158.5000 140.0000 Du        
  46546 ****       131.7500 158.7500 136.7500 Du        
  46547 ****       131.7500 158.7500 137.0000 Du        
  46548 ****       131.7500 158.7500 137.2500 Du        
  46549 ****       131.7500 158.7500 137.5000 Du        
  46550 ****       131.7500 158.7500 137.7500 Du        
  46551 ****       131.7500 158.7500 138.0000 Du        
  46552 ****       131.7500 158.7500 138.2500 Du        
  46553 ****       131.7500 158.7500 138.5000 Du        
  46554 ****       131.7500 158.7500 138.7500 Du        
  46555 ****       131.7500 158.7500 139.0000 Du        
  46556 ****       131.7500 158.7500 139.2500 Du        
  46557 ****       131.7500 158.7500 139.5000 Du        
  46558 ****       131.7500 158.7500 139.7500 Du        
  46559 ****       131.7500 158.7500 140.0000 Du        
  46560 ****       131.7500 159.0000 136.7500 Du        
  46561 ****       131.7500 159.0000 137.0000 Du        
  46562 ****       131.7500 159.0000 137.2500 Du        
  46563 ****       131.7500 159.0000 137.5000 Du        
  46564 ****       131.7500 159.0000 137.7500 Du        
  46565 ****       131.7500 159.0000 138.0000 Du        
  46566 ****       131.7500 159.0000 138.2500 Du        
  46567 ****       131.7500 159.0000 138.5000 Du        
  46568 ****       131.7500 159.0000 138.7500 Du        
  46569 ****       131.7500 159.0000 139.0000 Du        
  46570 ****       131.7500 159.0000 139.2500 Du        
  46571 ****       131.7500 159.0000 139.5000 Du        
  46572 ****       131.7500 159.0000 139.7500 Du        
  46573 ****       131.7500 159.0000 140.0000 Du        
  46574 ****       131.7500 159.2500 136.7500 Du        
  46575 ****       131.7500 159.2500 137.0000 Du        
  46576 ****       131.7500 159.2500 137.2500 Du        
  46577 ****       131.7500 159.2500 137.5000 Du        
  46578 ****       131.7500 159.2500 137.7500 Du        
  46579 ****       131.7500 159.2500 138.0000 Du        
  46580 ****       131.7500 159.2500 138.2500 Du        
  46581 ****       131.7500 159.2500 138.5000 Du        
  46582 ****       131.7500 159.2500 138.7500 Du        
  46583 ****       131.7500 159.2500 139.0000 Du        
  46584 ****       131.7500 159.2500 139.2500 Du        
  46585 ****       131.7500 159.2500 139.5000 Du        
  46586 ****       131.7500 159.2500 139.7500 Du        
  46587 ****       131.7500 159.2500 140.0000 Du        
  46588 ****       131.7500 159.5000 137.0000 Du        
  46589 ****       131.7500 159.5000 137.2500 Du        
  46590 ****       131.7500 159.5000 137.5000 Du        
  46591 ****       131.7500 159.5000 137.7500 Du        
  46592 ****       131.7500 159.5000 138.0000 Du        
  46593 ****       131.7500 159.5000 138.2500 Du        
  46594 ****       131.7500 159.5000 138.5000 Du        
  46595 ****       131.7500 159.5000 138.7500 Du        
  46596 ****       131.7500 159.5000 139.0000 Du        
  46597 ****       131.7500 159.5000 139.2500 Du        
  46598 ****       131.7500 159.5000 139.5000 Du        
  46599 ****       131.7500 159.5000 139.7500 Du        
  46600 ****       131.7500 159.7500 137.2500 Du        
  46601 ****       131.7500 159.7500 137.5000 Du        
  46602 ****       131.7500 159.7500 137.7500 Du        
  46603 ****       131.7500 159.7500 138.0000 Du        
  46604 ****       131.7500 159.7500 138.2500 Du        
  46605 ****       131.7500 159.7500 138.5000 Du        
  46606 ****       131.7500 159.7500 138.7500 Du        
  46607 ****       131.7500 159.7500 139.0000 Du        
  46608 ****       131.7500 159.7500 139.2500 Du        
  46609 ****       131.7500 160.0000 138.7500 Du        
  46610 ****       131.7500 160.0000 139.0000 Du        
  46611 ****       132.0000 133.0000 125.0000 Du        
  46612 ****       132.0000 133.0000 125.2500 Du        
  46613 ****       132.0000 133.0000 125.5000 Du        
  46614 ****       132.0000 133.0000 125.7500 Du        
  46615 ****       132.0000 133.0000 126.0000 Du        
  46616 ****       132.0000 133.0000 126.2500 Du        
  46617 ****       132.0000 133.0000 126.5000 Du        
  46618 ****       132.0000 133.0000 126.7500 Du        
  46619 ****       132.0000 133.0000 127.0000 Du        
  46620 ****       132.0000 133.0000 127.2500 Du        
  46621 ****       132.0000 133.0000 127.5000 Du        
  46622 ****       132.0000 133.0000 127.7500 Du        
  46623 ****       132.0000 133.2500 125.0000 Du        
  46624 ****       132.0000 133.2500 125.2500 Du        
  46625 ****       132.0000 133.2500 125.5000 Du        
  46626 ****       132.0000 133.2500 125.7500 Du        
  46627 ****       132.0000 133.2500 126.0000 Du        
  46628 ****       132.0000 133.2500 126.2500 Du        
  46629 ****       132.0000 133.2500 126.5000 Du        
  46630 ****       132.0000 133.2500 126.7500 Du        
  46631 ****       132.0000 133.5000 124.7500 Du        
  46632 ****       132.0000 133.5000 125.0000 Du        
  46633 ****       132.0000 133.5000 125.2500 Du        
  46634 ****       132.0000 133.5000 125.5000 Du        
  46635 ****       132.0000 133.5000 125.7500 Du        
  46636 ****       132.0000 133.5000 126.0000 Du        
  46637 ****       132.0000 133.5000 126.2500 Du        
  46638 ****       132.0000 133.7500 124.7500 Du        
  46639 ****       132.0000 133.7500 125.0000 Du        
  46640 ****       132.0000 133.7500 125.2500 Du        
  46641 ****       132.0000 133.7500 125.5000 Du        
  46642 ****       132.0000 133.7500 125.7500 Du        
  46643 ****       132.0000 133.7500 126.0000 Du        
  46644 ****       132.0000 134.0000 124.7500 Du        
  46645 ****       132.0000 134.0000 125.0000 Du        
  46646 ****       132.0000 134.0000 125.2500 Du        
  46647 ****       132.0000 141.5000 138.0000 Du        
  46648 ****       132.0000 141.7500 137.0000 Du        
  46649 ****       132.0000 141.7500 137.2500 Du        
  46650 ****       132.0000 141.7500 137.5000 Du        
  46651 ****       132.0000 141.7500 137.7500 Du        
  46652 ****       132.0000 141.7500 138.0000 Du        
  46653 ****       132.0000 142.0000 136.7500 Du        
  46654 ****       132.0000 142.0000 137.0000 Du        
  46655 ****       132.0000 142.0000 137.2500 Du        
  46656 ****       132.0000 142.0000 137.5000 Du        
  46657 ****       132.0000 142.0000 137.7500 Du        
  46658 ****       132.0000 142.0000 138.0000 Du        
  46659 ****       132.0000 142.2500 136.7500 Du        
  46660 ****       132.0000 142.2500 137.0000 Du        
  46661 ****       132.0000 142.2500 137.2500 Du        
  46662 ****       132.0000 142.2500 137.5000 Du        
  46663 ****       132.0000 142.2500 137.7500 Du        
  46664 ****       132.0000 142.5000 137.2500 Du        
  46665 ****       132.0000 142.5000 137.5000 Du        
  46666 ****       132.0000 143.5000 116.5000 Du        
  46667 ****       132.0000 143.5000 116.7500 Du        
  46668 ****       132.0000 143.7500 116.5000 Du        
  46669 ****       132.0000 143.7500 116.7500 Du        
  46670 ****       132.0000 144.0000 116.2500 Du        
  46671 ****       132.0000 144.0000 116.5000 Du        
  46672 ****       132.0000 144.0000 116.7500 Du        
  46673 ****       132.0000 144.2500 116.5000 Du        
  46674 ****       132.0000 144.2500 116.7500 Du        
  46675 ****       132.0000 144.5000 116.5000 Du        
  46676 ****       132.0000 144.5000 116.7500 Du        
  46677 ****       132.0000 144.7500 116.7500 Du        
  46678 ****       132.0000 145.0000 116.7500 Du        
  46679 ****       132.0000 145.0000 117.0000 Du        
  46680 ****       132.0000 145.2500 116.7500 Du        
  46681 ****       132.0000 145.2500 117.0000 Du        
  46682 ****       132.0000 145.5000 116.5000 Du        
  46683 ****       132.0000 145.5000 116.7500 Du        
  46684 ****       132.0000 145.5000 117.0000 Du        
  46685 ****       132.0000 145.7500 116.7500 Du        
  46686 ****       132.0000 145.7500 117.0000 Du        
  46687 ****       132.0000 146.2500 129.7500 Du        
  46688 ****       132.0000 146.2500 147.0000 Du        
  46689 ****       132.0000 146.5000 129.5000 Du        
  46690 ****       132.0000 146.5000 129.7500 Du        
  46691 ****       132.0000 146.5000 130.0000 Du        
  46692 ****       132.0000 146.5000 130.2500 Du        
  46693 ****       132.0000 146.5000 130.5000 Du        
  46694 ****       132.0000 146.5000 130.7500 Du        
  46695 ****       132.0000 146.7500 121.0000 Du        
  46696 ****       132.0000 146.7500 129.2500 Du        
  46697 ****       132.0000 146.7500 129.5000 Du        
  46698 ****       132.0000 146.7500 129.7500 Du        
  46699 ****       132.0000 146.7500 130.0000 Du        
  46700 ****       132.0000 146.7500 130.2500 Du        
  46701 ****       132.0000 146.7500 130.5000 Du        
  46702 ****       132.0000 146.7500 130.7500 Du        
  46703 ****       132.0000 146.7500 146.2500 Du        
  46704 ****       132.0000 147.0000 120.5000 Du        
  46705 ****       132.0000 147.0000 120.7500 Du        
  46706 ****       132.0000 147.0000 121.0000 Du        
  46707 ****       132.0000 147.0000 121.2500 Du        
  46708 ****       132.0000 147.0000 121.5000 Du        
  46709 ****       132.0000 147.0000 121.7500 Du        
  46710 ****       132.0000 147.0000 122.0000 Du        
  46711 ****       132.0000 147.0000 122.2500 Du        
  46712 ****       132.0000 147.0000 122.5000 Du        
  46713 ****       132.0000 147.0000 122.7500 Du        
  46714 ****       132.0000 147.0000 123.0000 Du        
  46715 ****       132.0000 147.0000 129.0000 Du        
  46716 ****       132.0000 147.0000 129.2500 Du        
  46717 ****       132.0000 147.0000 129.5000 Du        
  46718 ****       132.0000 147.0000 129.7500 Du        
  46719 ****       132.0000 147.0000 130.0000 Du        
  46720 ****       132.0000 147.0000 130.2500 Du        
  46721 ****       132.0000 147.0000 130.5000 Du        
  46722 ****       132.0000 147.0000 130.7500 Du        
  46723 ****       132.0000 147.2500 120.5000 Du        
  46724 ****       132.0000 147.2500 120.7500 Du        
  46725 ****       132.0000 147.2500 121.0000 Du        
  46726 ****       132.0000 147.2500 121.2500 Du        
  46727 ****       132.0000 147.2500 121.5000 Du        
  46728 ****       132.0000 147.2500 121.7500 Du        
  46729 ****       132.0000 147.2500 122.0000 Du        
  46730 ****       132.0000 147.2500 122.2500 Du        
  46731 ****       132.0000 147.2500 122.5000 Du        
  46732 ****       132.0000 147.2500 122.7500 Du        
  46733 ****       132.0000 147.2500 123.0000 Du        
  46734 ****       132.0000 147.2500 123.2500 Du        
  46735 ****       132.0000 147.2500 123.5000 Du        
  46736 ****       132.0000 147.2500 123.7500 Du        
  46737 ****       132.0000 147.2500 129.0000 Du        
  46738 ****       132.0000 147.2500 129.2500 Du        
  46739 ****       132.0000 147.2500 129.5000 Du        
  46740 ****       132.0000 147.2500 129.7500 Du        
  46741 ****       132.0000 147.2500 130.0000 Du        
  46742 ****       132.0000 147.2500 130.2500 Du        
  46743 ****       132.0000 147.2500 130.5000 Du        
  46744 ****       132.0000 147.2500 130.7500 Du        
  46745 ****       132.0000 147.5000 120.5000 Du        
  46746 ****       132.0000 147.5000 120.7500 Du        
  46747 ****       132.0000 147.5000 121.0000 Du        
  46748 ****       132.0000 147.5000 121.2500 Du        
  46749 ****       132.0000 147.5000 121.5000 Du        
  46750 ****       132.0000 147.5000 121.7500 Du        
  46751 ****       132.0000 147.5000 122.0000 Du        
  46752 ****       132.0000 147.5000 122.2500 Du        
  46753 ****       132.0000 147.5000 122.5000 Du        
  46754 ****       132.0000 147.5000 122.7500 Du        
  46755 ****       132.0000 147.5000 123.0000 Du        
  46756 ****       132.0000 147.5000 123.2500 Du        
  46757 ****       132.0000 147.5000 123.5000 Du        
  46758 ****       132.0000 147.5000 123.7500 Du        
  46759 ****       132.0000 147.5000 124.0000 Du        
  46760 ****       132.0000 147.5000 129.5000 Du        
  46761 ****       132.0000 147.5000 129.7500 Du        
  46762 ****       132.0000 147.5000 130.0000 Du        
  46763 ****       132.0000 147.5000 130.2500 Du        
  46764 ****       132.0000 147.5000 130.5000 Du        
  46765 ****       132.0000 147.7500 120.7500 Du        
  46766 ****       132.0000 147.7500 121.0000 Du        
  46767 ****       132.0000 147.7500 121.2500 Du        
  46768 ****       132.0000 147.7500 121.5000 Du        
  46769 ****       132.0000 147.7500 121.7500 Du        
  46770 ****       132.0000 147.7500 122.0000 Du        
  46771 ****       132.0000 147.7500 122.2500 Du        
  46772 ****       132.0000 147.7500 122.5000 Du        
  46773 ****       132.0000 147.7500 122.7500 Du        
  46774 ****       132.0000 147.7500 123.0000 Du        
  46775 ****       132.0000 147.7500 123.2500 Du        
  46776 ****       132.0000 147.7500 123.5000 Du        
  46777 ****       132.0000 147.7500 123.7500 Du        
  46778 ****       132.0000 147.7500 124.0000 Du        
  46779 ****       132.0000 147.7500 124.2500 Du        
  46780 ****       132.0000 147.7500 129.2500 Du        
  46781 ****       132.0000 147.7500 129.5000 Du        
  46782 ****       132.0000 147.7500 129.7500 Du        
  46783 ****       132.0000 147.7500 130.0000 Du        
  46784 ****       132.0000 147.7500 130.2500 Du        
  46785 ****       132.0000 147.7500 130.5000 Du        
  46786 ****       132.0000 148.0000 120.7500 Du        
  46787 ****       132.0000 148.0000 121.0000 Du        
  46788 ****       132.0000 148.0000 121.2500 Du        
  46789 ****       132.0000 148.0000 121.5000 Du        
  46790 ****       132.0000 148.0000 121.7500 Du        
  46791 ****       132.0000 148.0000 122.0000 Du        
  46792 ****       132.0000 148.0000 122.2500 Du        
  46793 ****       132.0000 148.0000 122.5000 Du        
  46794 ****       132.0000 148.0000 122.7500 Du        
  46795 ****       132.0000 148.0000 123.0000 Du        
  46796 ****       132.0000 148.0000 123.2500 Du        
  46797 ****       132.0000 148.0000 123.5000 Du        
  46798 ****       132.0000 148.0000 123.7500 Du        
  46799 ****       132.0000 148.0000 124.0000 Du        
  46800 ****       132.0000 148.0000 124.2500 Du        
  46801 ****       132.0000 148.0000 124.5000 Du        
  46802 ****       132.0000 148.0000 124.7500 Du        
  46803 ****       132.0000 148.0000 125.0000 Du        
  46804 ****       132.0000 148.0000 129.2500 Du        
  46805 ****       132.0000 148.0000 129.5000 Du        
  46806 ****       132.0000 148.0000 129.7500 Du        
  46807 ****       132.0000 148.0000 130.0000 Du        
  46808 ****       132.0000 148.0000 130.2500 Du        
  46809 ****       132.0000 148.0000 130.5000 Du        
  46810 ****       132.0000 148.2500 120.7500 Du        
  46811 ****       132.0000 148.2500 121.0000 Du        
  46812 ****       132.0000 148.2500 121.2500 Du        
  46813 ****       132.0000 148.2500 121.5000 Du        
  46814 ****       132.0000 148.2500 121.7500 Du        
  46815 ****       132.0000 148.2500 122.0000 Du        
  46816 ****       132.0000 148.2500 122.2500 Du        
  46817 ****       132.0000 148.2500 122.5000 Du        
  46818 ****       132.0000 148.2500 122.7500 Du        
  46819 ****       132.0000 148.2500 123.0000 Du        
  46820 ****       132.0000 148.2500 123.2500 Du        
  46821 ****       132.0000 148.2500 123.5000 Du        
  46822 ****       132.0000 148.2500 123.7500 Du        
  46823 ****       132.0000 148.2500 124.0000 Du        
  46824 ****       132.0000 148.2500 124.2500 Du        
  46825 ****       132.0000 148.2500 124.5000 Du        
  46826 ****       132.0000 148.2500 124.7500 Du        
  46827 ****       132.0000 148.2500 125.0000 Du        
  46828 ****       132.0000 148.2500 125.2500 Du        
  46829 ****       132.0000 148.2500 129.5000 Du        
  46830 ****       132.0000 148.2500 129.7500 Du        
  46831 ****       132.0000 148.2500 130.0000 Du        
  46832 ****       132.0000 148.2500 130.2500 Du        
  46833 ****       132.0000 148.2500 130.5000 Du        
  46834 ****       132.0000 148.5000 121.0000 Du        
  46835 ****       132.0000 148.5000 121.2500 Du        
  46836 ****       132.0000 148.5000 121.5000 Du        
  46837 ****       132.0000 148.5000 121.7500 Du        
  46838 ****       132.0000 148.5000 122.0000 Du        
  46839 ****       132.0000 148.5000 122.2500 Du        
  46840 ****       132.0000 148.5000 122.5000 Du        
  46841 ****       132.0000 148.5000 122.7500 Du        
  46842 ****       132.0000 148.5000 123.0000 Du        
  46843 ****       132.0000 148.5000 123.2500 Du        
  46844 ****       132.0000 148.5000 123.5000 Du        
  46845 ****       132.0000 148.5000 123.7500 Du        
  46846 ****       132.0000 148.5000 124.0000 Du        
  46847 ****       132.0000 148.5000 124.2500 Du        
  46848 ****       132.0000 148.5000 124.5000 Du        
  46849 ****       132.0000 148.5000 124.7500 Du        
  46850 ****       132.0000 148.5000 125.0000 Du        
  46851 ****       132.0000 148.5000 130.0000 Du        
  46852 ****       132.0000 148.5000 130.2500 Du        
  46853 ****       132.0000 148.5000 130.5000 Du        
  46854 ****       132.0000 148.7500 121.0000 Du        
  46855 ****       132.0000 148.7500 121.2500 Du        
  46856 ****       132.0000 148.7500 121.5000 Du        
  46857 ****       132.0000 148.7500 121.7500 Du        
  46858 ****       132.0000 148.7500 122.0000 Du        
  46859 ****       132.0000 148.7500 122.2500 Du        
  46860 ****       132.0000 148.7500 122.5000 Du        
  46861 ****       132.0000 148.7500 122.7500 Du        
  46862 ****       132.0000 148.7500 123.0000 Du        
  46863 ****       132.0000 148.7500 123.2500 Du        
  46864 ****       132.0000 148.7500 123.5000 Du        
  46865 ****       132.0000 148.7500 123.7500 Du        
  46866 ****       132.0000 148.7500 124.0000 Du        
  46867 ****       132.0000 148.7500 124.2500 Du        
  46868 ****       132.0000 148.7500 124.5000 Du        
  46869 ****       132.0000 148.7500 124.7500 Du        
  46870 ****       132.0000 148.7500 125.0000 Du        
  46871 ****       132.0000 148.7500 129.7500 Du        
  46872 ****       132.0000 148.7500 130.0000 Du        
  46873 ****       132.0000 148.7500 130.2500 Du        
  46874 ****       132.0000 148.7500 130.5000 Du        
  46875 ****       132.0000 149.0000 121.2500 Du        
  46876 ****       132.0000 149.0000 121.5000 Du        
  46877 ****       132.0000 149.0000 121.7500 Du        
  46878 ****       132.0000 149.0000 122.0000 Du        
  46879 ****       132.0000 149.0000 122.2500 Du        
  46880 ****       132.0000 149.0000 122.5000 Du        
  46881 ****       132.0000 149.0000 122.7500 Du        
  46882 ****       132.0000 149.0000 123.0000 Du        
  46883 ****       132.0000 149.0000 123.2500 Du        
  46884 ****       132.0000 149.0000 123.5000 Du        
  46885 ****       132.0000 149.0000 123.7500 Du        
  46886 ****       132.0000 149.0000 124.0000 Du        
  46887 ****       132.0000 149.0000 124.2500 Du        
  46888 ****       132.0000 149.0000 124.5000 Du        
  46889 ****       132.0000 149.0000 124.7500 Du        
  46890 ****       132.0000 149.0000 125.0000 Du        
  46891 ****       132.0000 149.0000 125.2500 Du        
  46892 ****       132.0000 149.0000 130.0000 Du        
  46893 ****       132.0000 149.0000 130.2500 Du        
  46894 ****       132.0000 149.0000 130.5000 Du        
  46895 ****       132.0000 149.2500 121.5000 Du        
  46896 ****       132.0000 149.2500 121.7500 Du        
  46897 ****       132.0000 149.2500 122.0000 Du        
  46898 ****       132.0000 149.2500 122.2500 Du        
  46899 ****       132.0000 149.2500 122.5000 Du        
  46900 ****       132.0000 149.2500 122.7500 Du        
  46901 ****       132.0000 149.2500 123.0000 Du        
  46902 ****       132.0000 149.2500 123.2500 Du        
  46903 ****       132.0000 149.2500 123.5000 Du        
  46904 ****       132.0000 149.2500 123.7500 Du        
  46905 ****       132.0000 149.2500 124.0000 Du        
  46906 ****       132.0000 149.2500 124.2500 Du        
  46907 ****       132.0000 149.2500 124.5000 Du        
  46908 ****       132.0000 149.2500 124.7500 Du        
  46909 ****       132.0000 149.2500 125.0000 Du        
  46910 ****       132.0000 149.2500 125.2500 Du        
  46911 ****       132.0000 149.2500 129.7500 Du        
  46912 ****       132.0000 149.2500 130.0000 Du        
  46913 ****       132.0000 149.2500 130.2500 Du        
  46914 ****       132.0000 149.2500 130.5000 Du        
  46915 ****       132.0000 149.5000 121.7500 Du        
  46916 ****       132.0000 149.5000 122.0000 Du        
  46917 ****       132.0000 149.5000 122.2500 Du        
  46918 ****       132.0000 149.5000 122.5000 Du        
  46919 ****       132.0000 149.5000 122.7500 Du        
  46920 ****       132.0000 149.5000 123.0000 Du        
  46921 ****       132.0000 149.5000 123.2500 Du        
  46922 ****       132.0000 149.5000 123.5000 Du        
  46923 ****       132.0000 149.5000 123.7500 Du        
  46924 ****       132.0000 149.5000 124.0000 Du        
  46925 ****       132.0000 149.5000 124.2500 Du        
  46926 ****       132.0000 149.5000 124.5000 Du        
  46927 ****       132.0000 149.5000 124.7500 Du        
  46928 ****       132.0000 149.5000 130.0000 Du        
  46929 ****       132.0000 149.5000 130.2500 Du        
  46930 ****       132.0000 149.5000 130.5000 Du        
  46931 ****       132.0000 149.7500 122.0000 Du        
  46932 ****       132.0000 149.7500 122.2500 Du        
  46933 ****       132.0000 149.7500 122.5000 Du        
  46934 ****       132.0000 149.7500 122.7500 Du        
  46935 ****       132.0000 149.7500 123.0000 Du        
  46936 ****       132.0000 149.7500 123.2500 Du        
  46937 ****       132.0000 149.7500 123.5000 Du        
  46938 ****       132.0000 149.7500 123.7500 Du        
  46939 ****       132.0000 149.7500 124.0000 Du        
  46940 ****       132.0000 149.7500 124.2500 Du        
  46941 ****       132.0000 149.7500 124.7500 Du        
  46942 ****       132.0000 149.7500 130.0000 Du        
  46943 ****       132.0000 149.7500 130.2500 Du        
  46944 ****       132.0000 149.7500 130.5000 Du        
  46945 ****       132.0000 150.0000 122.2500 Du        
  46946 ****       132.0000 150.0000 122.5000 Du        
  46947 ****       132.0000 150.0000 122.7500 Du        
  46948 ****       132.0000 150.0000 123.0000 Du        
  46949 ****       132.0000 150.0000 123.2500 Du        
  46950 ****       132.0000 150.0000 123.5000 Du        
  46951 ****       132.0000 150.0000 123.7500 Du        
  46952 ****       132.0000 150.0000 124.0000 Du        
  46953 ****       132.0000 150.0000 130.0000 Du        
  46954 ****       132.0000 150.0000 130.2500 Du        
  46955 ****       132.0000 150.0000 130.5000 Du        
  46956 ****       132.0000 150.2500 122.7500 Du        
  46957 ****       132.0000 150.2500 123.0000 Du        
  46958 ****       132.0000 150.2500 130.5000 Du        
  46959 ****       132.0000 152.5000 145.2500 Du        
  46960 ****       132.0000 152.7500 145.0000 Du        
  46961 ****       132.0000 152.7500 145.2500 Du        
  46962 ****       132.0000 152.7500 145.5000 Du        
  46963 ****       132.0000 152.7500 145.7500 Du        
  46964 ****       132.0000 152.7500 146.0000 Du        
  46965 ****       132.0000 153.0000 129.7500 Du        
  46966 ****       132.0000 153.0000 144.7500 Du        
  46967 ****       132.0000 153.0000 145.0000 Du        
  46968 ****       132.0000 153.0000 145.2500 Du        
  46969 ****       132.0000 153.0000 145.5000 Du        
  46970 ****       132.0000 153.0000 145.7500 Du        
  46971 ****       132.0000 153.0000 146.0000 Du        
  46972 ****       132.0000 153.0000 146.2500 Du        
  46973 ****       132.0000 153.2500 129.2500 Du        
  46974 ****       132.0000 153.2500 129.5000 Du        
  46975 ****       132.0000 153.2500 129.7500 Du        
  46976 ****       132.0000 153.2500 144.7500 Du        
  46977 ****       132.0000 153.2500 145.0000 Du        
  46978 ****       132.0000 153.2500 145.2500 Du        
  46979 ****       132.0000 153.2500 145.5000 Du        
  46980 ****       132.0000 153.2500 145.7500 Du        
  46981 ****       132.0000 153.2500 146.0000 Du        
  46982 ****       132.0000 153.2500 146.2500 Du        
  46983 ****       132.0000 153.5000 128.7500 Du        
  46984 ****       132.0000 153.5000 129.0000 Du        
  46985 ****       132.0000 153.5000 129.2500 Du        
  46986 ****       132.0000 153.5000 129.5000 Du        
  46987 ****       132.0000 153.5000 129.7500 Du        
  46988 ****       132.0000 153.5000 144.7500 Du        
  46989 ****       132.0000 153.5000 145.0000 Du        
  46990 ****       132.0000 153.5000 145.2500 Du        
  46991 ****       132.0000 153.5000 145.5000 Du        
  46992 ****       132.0000 153.5000 145.7500 Du        
  46993 ****       132.0000 153.5000 146.0000 Du        
  46994 ****       132.0000 153.5000 146.2500 Du        
  46995 ****       132.0000 153.7500 128.7500 Du        
  46996 ****       132.0000 153.7500 129.0000 Du        
  46997 ****       132.0000 153.7500 129.2500 Du        
  46998 ****       132.0000 153.7500 129.5000 Du        
  46999 ****       132.0000 153.7500 129.7500 Du        
  47000 ****       132.0000 153.7500 144.7500 Du        
  47001 ****       132.0000 153.7500 145.0000 Du        
  47002 ****       132.0000 153.7500 145.2500 Du        
  47003 ****       132.0000 153.7500 145.5000 Du        
  47004 ****       132.0000 153.7500 145.7500 Du        
  47005 ****       132.0000 153.7500 146.0000 Du        
  47006 ****       132.0000 153.7500 146.2500 Du        
  47007 ****       132.0000 153.7500 146.5000 Du        
  47008 ****       132.0000 154.0000 128.7500 Du        
  47009 ****       132.0000 154.0000 129.0000 Du        
  47010 ****       132.0000 154.0000 129.2500 Du        
  47011 ****       132.0000 154.0000 129.5000 Du        
  47012 ****       132.0000 154.0000 129.7500 Du        
  47013 ****       132.0000 154.0000 145.0000 Du        
  47014 ****       132.0000 154.0000 145.2500 Du        
  47015 ****       132.0000 154.0000 145.5000 Du        
  47016 ****       132.0000 154.0000 145.7500 Du        
  47017 ****       132.0000 154.0000 146.0000 Du        
  47018 ****       132.0000 154.0000 146.2500 Du        
  47019 ****       132.0000 154.0000 146.5000 Du        
  47020 ****       132.0000 154.2500 128.7500 Du        
  47021 ****       132.0000 154.2500 129.0000 Du        
  47022 ****       132.0000 154.2500 129.2500 Du        
  47023 ****       132.0000 154.2500 129.5000 Du        
  47024 ****       132.0000 154.2500 145.2500 Du        
  47025 ****       132.0000 154.2500 145.5000 Du        
  47026 ****       132.0000 154.2500 145.7500 Du        
  47027 ****       132.0000 154.2500 146.0000 Du        
  47028 ****       132.0000 154.2500 146.2500 Du        
  47029 ****       132.0000 154.5000 127.0000 Du        
  47030 ****       132.0000 154.5000 127.2500 Du        
  47031 ****       132.0000 154.5000 145.7500 Du        
  47032 ****       132.0000 154.5000 146.0000 Du        
  47033 ****       132.0000 154.7500 126.7500 Du        
  47034 ****       132.0000 154.7500 127.0000 Du        
  47035 ****       132.0000 154.7500 127.2500 Du        
  47036 ****       132.0000 154.7500 145.7500 Du        
  47037 ****       132.0000 155.0000 126.5000 Du        
  47038 ****       132.0000 155.0000 126.7500 Du        
  47039 ****       132.0000 155.0000 127.0000 Du        
  47040 ****       132.0000 155.2500 126.2500 Du        
  47041 ****       132.0000 155.2500 126.5000 Du        
  47042 ****       132.0000 155.2500 126.7500 Du        
  47043 ****       132.0000 155.2500 127.0000 Du        
  47044 ****       132.0000 155.5000 126.0000 Du        
  47045 ****       132.0000 155.5000 126.2500 Du        
  47046 ****       132.0000 155.5000 126.5000 Du        
  47047 ****       132.0000 155.5000 126.7500 Du        
  47048 ****       132.0000 155.7500 125.7500 Du        
  47049 ****       132.0000 155.7500 126.0000 Du        
  47050 ****       132.0000 155.7500 126.2500 Du        
  47051 ****       132.0000 155.7500 126.5000 Du        
  47052 ****       132.0000 155.7500 126.7500 Du        
  47053 ****       132.0000 156.0000 125.5000 Du        
  47054 ****       132.0000 156.0000 125.7500 Du        
  47055 ****       132.0000 156.0000 126.0000 Du        
  47056 ****       132.0000 156.0000 126.2500 Du        
  47057 ****       132.0000 156.0000 126.5000 Du        
  47058 ****       132.0000 156.0000 126.7500 Du        
  47059 ****       132.0000 156.2500 125.2500 Du        
  47060 ****       132.0000 156.2500 125.5000 Du        
  47061 ****       132.0000 156.2500 125.7500 Du        
  47062 ****       132.0000 156.2500 126.0000 Du        
  47063 ****       132.0000 156.2500 126.2500 Du        
  47064 ****       132.0000 156.2500 126.5000 Du        
  47065 ****       132.0000 156.5000 117.5000 Du        
  47066 ****       132.0000 156.5000 117.7500 Du        
  47067 ****       132.0000 156.5000 125.5000 Du        
  47068 ****       132.0000 156.5000 125.7500 Du        
  47069 ****       132.0000 156.5000 126.0000 Du        
  47070 ****       132.0000 156.5000 126.2500 Du        
  47071 ****       132.0000 156.7500 117.2500 Du        
  47072 ****       132.0000 156.7500 117.5000 Du        
  47073 ****       132.0000 156.7500 117.7500 Du        
  47074 ****       132.0000 156.7500 118.0000 Du        
  47075 ****       132.0000 156.7500 125.7500 Du        
  47076 ****       132.0000 156.7500 126.0000 Du        
  47077 ****       132.0000 156.7500 126.2500 Du        
  47078 ****       132.0000 156.7500 138.7500 Du        
  47079 ****       132.0000 156.7500 139.0000 Du        
  47080 ****       132.0000 156.7500 139.2500 Du        
  47081 ****       132.0000 156.7500 139.5000 Du        
  47082 ****       132.0000 156.7500 139.7500 Du        
  47083 ****       132.0000 157.0000 117.0000 Du        
  47084 ****       132.0000 157.0000 117.2500 Du        
  47085 ****       132.0000 157.0000 117.5000 Du        
  47086 ****       132.0000 157.0000 117.7500 Du        
  47087 ****       132.0000 157.0000 118.0000 Du        
  47088 ****       132.0000 157.0000 137.2500 Du        
  47089 ****       132.0000 157.0000 137.5000 Du        
  47090 ****       132.0000 157.0000 137.7500 Du        
  47091 ****       132.0000 157.0000 138.0000 Du        
  47092 ****       132.0000 157.0000 138.2500 Du        
  47093 ****       132.0000 157.0000 138.5000 Du        
  47094 ****       132.0000 157.0000 138.7500 Du        
  47095 ****       132.0000 157.0000 139.0000 Du        
  47096 ****       132.0000 157.0000 139.2500 Du        
  47097 ****       132.0000 157.0000 139.5000 Du        
  47098 ****       132.0000 157.0000 139.7500 Du        
  47099 ****       132.0000 157.0000 140.0000 Du        
  47100 ****       132.0000 157.0000 140.2500 Du        
  47101 ****       132.0000 157.2500 116.7500 Du        
  47102 ****       132.0000 157.2500 117.0000 Du        
  47103 ****       132.0000 157.2500 117.2500 Du        
  47104 ****       132.0000 157.2500 117.5000 Du        
  47105 ****       132.0000 157.2500 117.7500 Du        
  47106 ****       132.0000 157.2500 137.0000 Du        
  47107 ****       132.0000 157.2500 137.2500 Du        
  47108 ****       132.0000 157.2500 137.5000 Du        
  47109 ****       132.0000 157.2500 137.7500 Du        
  47110 ****       132.0000 157.2500 138.0000 Du        
  47111 ****       132.0000 157.2500 138.2500 Du        
  47112 ****       132.0000 157.2500 138.5000 Du        
  47113 ****       132.0000 157.2500 138.7500 Du        
  47114 ****       132.0000 157.2500 139.0000 Du        
  47115 ****       132.0000 157.2500 139.2500 Du        
  47116 ****       132.0000 157.2500 139.5000 Du        
  47117 ****       132.0000 157.2500 139.7500 Du        
  47118 ****       132.0000 157.2500 140.0000 Du        
  47119 ****       132.0000 157.2500 140.2500 Du        
  47120 ****       132.0000 157.2500 140.5000 Du        
  47121 ****       132.0000 157.5000 116.5000 Du        
  47122 ****       132.0000 157.5000 116.7500 Du        
  47123 ****       132.0000 157.5000 117.0000 Du        
  47124 ****       132.0000 157.5000 117.2500 Du        
  47125 ****       132.0000 157.5000 117.5000 Du        
  47126 ****       132.0000 157.5000 117.7500 Du        
  47127 ****       132.0000 157.5000 136.7500 Du        
  47128 ****       132.0000 157.5000 137.0000 Du        
  47129 ****       132.0000 157.5000 137.2500 Du        
  47130 ****       132.0000 157.5000 137.5000 Du        
  47131 ****       132.0000 157.5000 137.7500 Du        
  47132 ****       132.0000 157.5000 138.0000 Du        
  47133 ****       132.0000 157.5000 138.2500 Du        
  47134 ****       132.0000 157.5000 138.5000 Du        
  47135 ****       132.0000 157.5000 138.7500 Du        
  47136 ****       132.0000 157.5000 139.0000 Du        
  47137 ****       132.0000 157.5000 139.2500 Du        
  47138 ****       132.0000 157.5000 139.5000 Du        
  47139 ****       132.0000 157.5000 139.7500 Du        
  47140 ****       132.0000 157.5000 140.0000 Du        
  47141 ****       132.0000 157.5000 140.2500 Du        
  47142 ****       132.0000 157.5000 140.5000 Du        
  47143 ****       132.0000 157.5000 140.7500 Du        
  47144 ****       132.0000 157.7500 116.2500 Du        
  47145 ****       132.0000 157.7500 116.5000 Du        
  47146 ****       132.0000 157.7500 116.7500 Du        
  47147 ****       132.0000 157.7500 117.0000 Du        
  47148 ****       132.0000 157.7500 117.2500 Du        
  47149 ****       132.0000 157.7500 136.5000 Du        
  47150 ****       132.0000 157.7500 136.7500 Du        
  47151 ****       132.0000 157.7500 137.0000 Du        
  47152 ****       132.0000 157.7500 137.2500 Du        
  47153 ****       132.0000 157.7500 137.5000 Du        
  47154 ****       132.0000 157.7500 137.7500 Du        
  47155 ****       132.0000 157.7500 138.0000 Du        
  47156 ****       132.0000 157.7500 138.2500 Du        
  47157 ****       132.0000 157.7500 138.5000 Du        
  47158 ****       132.0000 157.7500 138.7500 Du        
  47159 ****       132.0000 157.7500 139.0000 Du        
  47160 ****       132.0000 157.7500 139.2500 Du        
  47161 ****       132.0000 157.7500 139.5000 Du        
  47162 ****       132.0000 157.7500 139.7500 Du        
  47163 ****       132.0000 157.7500 140.0000 Du        
  47164 ****       132.0000 157.7500 140.2500 Du        
  47165 ****       132.0000 157.7500 140.5000 Du        
  47166 ****       132.0000 157.7500 140.7500 Du        
  47167 ****       132.0000 157.7500 141.0000 Du        
  47168 ****       132.0000 158.0000 116.0000 Du        
  47169 ****       132.0000 158.0000 116.2500 Du        
  47170 ****       132.0000 158.0000 116.5000 Du        
  47171 ****       132.0000 158.0000 116.7500 Du        
  47172 ****       132.0000 158.0000 136.5000 Du        
  47173 ****       132.0000 158.0000 136.7500 Du        
  47174 ****       132.0000 158.0000 137.0000 Du        
  47175 ****       132.0000 158.0000 137.2500 Du        
  47176 ****       132.0000 158.0000 137.5000 Du        
  47177 ****       132.0000 158.0000 137.7500 Du        
  47178 ****       132.0000 158.0000 138.0000 Du        
  47179 ****       132.0000 158.0000 138.2500 Du        
  47180 ****       132.0000 158.0000 138.5000 Du        
  47181 ****       132.0000 158.0000 138.7500 Du        
  47182 ****       132.0000 158.0000 139.0000 Du        
  47183 ****       132.0000 158.0000 139.2500 Du        
  47184 ****       132.0000 158.0000 139.5000 Du        
  47185 ****       132.0000 158.0000 139.7500 Du        
  47186 ****       132.0000 158.0000 140.0000 Du        
  47187 ****       132.0000 158.0000 140.2500 Du        
  47188 ****       132.0000 158.0000 140.5000 Du        
  47189 ****       132.0000 158.0000 140.7500 Du        
  47190 ****       132.0000 158.0000 141.0000 Du        
  47191 ****       132.0000 158.2500 136.5000 Du        
  47192 ****       132.0000 158.2500 136.7500 Du        
  47193 ****       132.0000 158.2500 137.0000 Du        
  47194 ****       132.0000 158.2500 137.2500 Du        
  47195 ****       132.0000 158.2500 137.5000 Du        
  47196 ****       132.0000 158.2500 137.7500 Du        
  47197 ****       132.0000 158.2500 138.0000 Du        
  47198 ****       132.0000 158.2500 138.2500 Du        
  47199 ****       132.0000 158.2500 138.5000 Du        
  47200 ****       132.0000 158.2500 138.7500 Du        
  47201 ****       132.0000 158.2500 139.0000 Du        
  47202 ****       132.0000 158.2500 139.2500 Du        
  47203 ****       132.0000 158.2500 139.5000 Du        
  47204 ****       132.0000 158.2500 139.7500 Du        
  47205 ****       132.0000 158.2500 140.0000 Du        
  47206 ****       132.0000 158.2500 140.2500 Du        
  47207 ****       132.0000 158.2500 140.5000 Du        
  47208 ****       132.0000 158.2500 140.7500 Du        
  47209 ****       132.0000 158.5000 136.5000 Du        
  47210 ****       132.0000 158.5000 136.7500 Du        
  47211 ****       132.0000 158.5000 137.0000 Du        
  47212 ****       132.0000 158.5000 137.2500 Du        
  47213 ****       132.0000 158.5000 137.5000 Du        
  47214 ****       132.0000 158.5000 137.7500 Du        
  47215 ****       132.0000 158.5000 138.0000 Du        
  47216 ****       132.0000 158.5000 138.2500 Du        
  47217 ****       132.0000 158.5000 138.5000 Du        
  47218 ****       132.0000 158.5000 138.7500 Du        
  47219 ****       132.0000 158.5000 139.0000 Du        
  47220 ****       132.0000 158.5000 139.2500 Du        
  47221 ****       132.0000 158.5000 139.5000 Du        
  47222 ****       132.0000 158.5000 139.7500 Du        
  47223 ****       132.0000 158.5000 140.0000 Du        
  47224 ****       132.0000 158.5000 140.2500 Du        
  47225 ****       132.0000 158.5000 140.5000 Du        
  47226 ****       132.0000 158.7500 136.7500 Du        
  47227 ****       132.0000 158.7500 137.0000 Du        
  47228 ****       132.0000 158.7500 137.2500 Du        
  47229 ****       132.0000 158.7500 137.5000 Du        
  47230 ****       132.0000 158.7500 137.7500 Du        
  47231 ****       132.0000 158.7500 138.0000 Du        
  47232 ****       132.0000 158.7500 138.2500 Du        
  47233 ****       132.0000 158.7500 138.5000 Du        
  47234 ****       132.0000 158.7500 138.7500 Du        
  47235 ****       132.0000 158.7500 139.0000 Du        
  47236 ****       132.0000 158.7500 139.2500 Du        
  47237 ****       132.0000 158.7500 139.5000 Du        
  47238 ****       132.0000 158.7500 139.7500 Du        
  47239 ****       132.0000 158.7500 140.0000 Du        
  47240 ****       132.0000 158.7500 140.2500 Du        
  47241 ****       132.0000 158.7500 140.5000 Du        
  47242 ****       132.0000 159.0000 136.7500 Du        
  47243 ****       132.0000 159.0000 137.0000 Du        
  47244 ****       132.0000 159.0000 137.2500 Du        
  47245 ****       132.0000 159.0000 137.5000 Du        
  47246 ****       132.0000 159.0000 137.7500 Du        
  47247 ****       132.0000 159.0000 138.0000 Du        
  47248 ****       132.0000 159.0000 138.2500 Du        
  47249 ****       132.0000 159.0000 138.5000 Du        
  47250 ****       132.0000 159.0000 138.7500 Du        
  47251 ****       132.0000 159.0000 139.0000 Du        
  47252 ****       132.0000 159.0000 139.2500 Du        
  47253 ****       132.0000 159.0000 139.5000 Du        
  47254 ****       132.0000 159.0000 139.7500 Du        
  47255 ****       132.0000 159.0000 140.0000 Du        
  47256 ****       132.0000 159.0000 140.2500 Du        
  47257 ****       132.0000 159.2500 136.7500 Du        
  47258 ****       132.0000 159.2500 137.0000 Du        
  47259 ****       132.0000 159.2500 137.2500 Du        
  47260 ****       132.0000 159.2500 137.5000 Du        
  47261 ****       132.0000 159.2500 137.7500 Du        
  47262 ****       132.0000 159.2500 138.0000 Du        
  47263 ****       132.0000 159.2500 138.2500 Du        
  47264 ****       132.0000 159.2500 138.5000 Du        
  47265 ****       132.0000 159.2500 138.7500 Du        
  47266 ****       132.0000 159.2500 139.0000 Du        
  47267 ****       132.0000 159.2500 139.2500 Du        
  47268 ****       132.0000 159.2500 139.5000 Du        
  47269 ****       132.0000 159.2500 139.7500 Du        
  47270 ****       132.0000 159.2500 140.0000 Du        
  47271 ****       132.0000 159.2500 140.2500 Du        
  47272 ****       132.0000 159.5000 137.0000 Du        
  47273 ****       132.0000 159.5000 137.2500 Du        
  47274 ****       132.0000 159.5000 137.5000 Du        
  47275 ****       132.0000 159.5000 137.7500 Du        
  47276 ****       132.0000 159.5000 138.0000 Du        
  47277 ****       132.0000 159.5000 138.2500 Du        
  47278 ****       132.0000 159.5000 138.5000 Du        
  47279 ****       132.0000 159.5000 138.7500 Du        
  47280 ****       132.0000 159.5000 139.0000 Du        
  47281 ****       132.0000 159.5000 139.2500 Du        
  47282 ****       132.0000 159.5000 139.5000 Du        
  47283 ****       132.0000 159.5000 139.7500 Du        
  47284 ****       132.0000 159.7500 137.0000 Du        
  47285 ****       132.0000 159.7500 137.2500 Du        
  47286 ****       132.0000 159.7500 137.5000 Du        
  47287 ****       132.0000 159.7500 137.7500 Du        
  47288 ****       132.0000 159.7500 138.0000 Du        
  47289 ****       132.0000 159.7500 138.2500 Du        
  47290 ****       132.0000 159.7500 138.5000 Du        
  47291 ****       132.0000 159.7500 138.7500 Du        
  47292 ****       132.0000 159.7500 139.0000 Du        
  47293 ****       132.0000 159.7500 139.2500 Du        
  47294 ****       132.0000 160.0000 137.5000 Du        
  47295 ****       132.0000 160.0000 137.7500 Du        
  47296 ****       132.0000 160.0000 138.0000 Du        
  47297 ****       132.0000 160.0000 138.2500 Du        
  47298 ****       132.0000 160.0000 138.5000 Du        
  47299 ****       132.0000 160.0000 138.7500 Du        
  47300 ****       132.0000 160.0000 139.0000 Du        
  47301 ****       132.2500 133.0000 125.0000 Du        
  47302 ****       132.2500 133.0000 125.2500 Du        
  47303 ****       132.2500 133.0000 125.5000 Du        
  47304 ****       132.2500 133.0000 125.7500 Du        
  47305 ****       132.2500 133.0000 126.0000 Du        
  47306 ****       132.2500 133.0000 126.2500 Du        
  47307 ****       132.2500 133.0000 126.5000 Du        
  47308 ****       132.2500 133.0000 126.7500 Du        
  47309 ****       132.2500 133.0000 127.0000 Du        
  47310 ****       132.2500 133.0000 127.2500 Du        
  47311 ****       132.2500 133.0000 127.5000 Du        
  47312 ****       132.2500 133.2500 124.7500 Du        
  47313 ****       132.2500 133.2500 125.0000 Du        
  47314 ****       132.2500 133.2500 125.2500 Du        
  47315 ****       132.2500 133.2500 125.5000 Du        
  47316 ****       132.2500 133.2500 125.7500 Du        
  47317 ****       132.2500 133.2500 126.0000 Du        
  47318 ****       132.2500 133.2500 126.2500 Du        
  47319 ****       132.2500 133.2500 126.5000 Du        
  47320 ****       132.2500 133.2500 126.7500 Du        
  47321 ****       132.2500 133.2500 127.0000 Du        
  47322 ****       132.2500 133.5000 124.7500 Du        
  47323 ****       132.2500 133.5000 125.0000 Du        
  47324 ****       132.2500 133.5000 125.2500 Du        
  47325 ****       132.2500 133.5000 125.5000 Du        
  47326 ****       132.2500 133.5000 125.7500 Du        
  47327 ****       132.2500 133.5000 126.0000 Du        
  47328 ****       132.2500 133.5000 126.2500 Du        
  47329 ****       132.2500 133.5000 126.5000 Du        
  47330 ****       132.2500 133.7500 124.7500 Du        
  47331 ****       132.2500 133.7500 125.0000 Du        
  47332 ****       132.2500 133.7500 125.2500 Du        
  47333 ****       132.2500 133.7500 125.5000 Du        
  47334 ****       132.2500 133.7500 125.7500 Du        
  47335 ****       132.2500 133.7500 126.0000 Du        
  47336 ****       132.2500 134.0000 125.0000 Du        
  47337 ****       132.2500 134.0000 125.2500 Du        
  47338 ****       132.2500 134.0000 125.5000 Du        
  47339 ****       132.2500 143.5000 116.5000 Du        
  47340 ****       132.2500 143.7500 116.5000 Du        
  47341 ****       132.2500 143.7500 116.7500 Du        
  47342 ****       132.2500 146.2500 129.7500 Du        
  47343 ****       132.2500 146.2500 130.0000 Du        
  47344 ****       132.2500 146.2500 130.2500 Du        
  47345 ****       132.2500 146.2500 130.5000 Du        
  47346 ****       132.2500 146.2500 130.7500 Du        
  47347 ****       132.2500 146.5000 129.7500 Du        
  47348 ****       132.2500 146.5000 130.0000 Du        
  47349 ****       132.2500 146.5000 130.2500 Du        
  47350 ****       132.2500 146.5000 130.5000 Du        
  47351 ****       132.2500 146.5000 130.7500 Du        
  47352 ****       132.2500 146.7500 129.7500 Du        
  47353 ****       132.2500 146.7500 130.0000 Du        
  47354 ****       132.2500 146.7500 130.2500 Du        
  47355 ****       132.2500 146.7500 130.5000 Du        
  47356 ****       132.2500 146.7500 130.7500 Du        
  47357 ****       132.2500 147.0000 120.5000 Du        
  47358 ****       132.2500 147.0000 120.7500 Du        
  47359 ****       132.2500 147.0000 121.0000 Du        
  47360 ****       132.2500 147.0000 121.2500 Du        
  47361 ****       132.2500 147.0000 121.5000 Du        
  47362 ****       132.2500 147.0000 121.7500 Du        
  47363 ****       132.2500 147.0000 122.0000 Du        
  47364 ****       132.2500 147.0000 122.2500 Du        
  47365 ****       132.2500 147.0000 122.7500 Du        
  47366 ****       132.2500 147.0000 129.5000 Du        
  47367 ****       132.2500 147.0000 129.7500 Du        
  47368 ****       132.2500 147.0000 130.0000 Du        
  47369 ****       132.2500 147.0000 130.2500 Du        
  47370 ****       132.2500 147.0000 130.5000 Du        
  47371 ****       132.2500 147.0000 130.7500 Du        
  47372 ****       132.2500 147.2500 120.2500 Du        
  47373 ****       132.2500 147.2500 120.5000 Du        
  47374 ****       132.2500 147.2500 120.7500 Du        
  47375 ****       132.2500 147.2500 121.0000 Du        
  47376 ****       132.2500 147.2500 121.2500 Du        
  47377 ****       132.2500 147.2500 121.5000 Du        
  47378 ****       132.2500 147.2500 121.7500 Du        
  47379 ****       132.2500 147.2500 122.0000 Du        
  47380 ****       132.2500 147.2500 122.2500 Du        
  47381 ****       132.2500 147.2500 122.5000 Du        
  47382 ****       132.2500 147.2500 122.7500 Du        
  47383 ****       132.2500 147.2500 123.0000 Du        
  47384 ****       132.2500 147.2500 123.2500 Du        
  47385 ****       132.2500 147.2500 129.5000 Du        
  47386 ****       132.2500 147.2500 129.7500 Du        
  47387 ****       132.2500 147.2500 130.0000 Du        
  47388 ****       132.2500 147.2500 130.2500 Du        
  47389 ****       132.2500 147.2500 130.5000 Du        
  47390 ****       132.2500 147.2500 130.7500 Du        
  47391 ****       132.2500 147.5000 120.2500 Du        
  47392 ****       132.2500 147.5000 120.5000 Du        
  47393 ****       132.2500 147.5000 120.7500 Du        
  47394 ****       132.2500 147.5000 121.0000 Du        
  47395 ****       132.2500 147.5000 121.2500 Du        
  47396 ****       132.2500 147.5000 121.5000 Du        
  47397 ****       132.2500 147.5000 121.7500 Du        
  47398 ****       132.2500 147.5000 122.0000 Du        
  47399 ****       132.2500 147.5000 122.2500 Du        
  47400 ****       132.2500 147.5000 122.5000 Du        
  47401 ****       132.2500 147.5000 122.7500 Du        
  47402 ****       132.2500 147.5000 123.0000 Du        
  47403 ****       132.2500 147.5000 123.2500 Du        
  47404 ****       132.2500 147.5000 123.5000 Du        
  47405 ****       132.2500 147.5000 123.7500 Du        
  47406 ****       132.2500 147.5000 124.0000 Du        
  47407 ****       132.2500 147.5000 129.5000 Du        
  47408 ****       132.2500 147.5000 129.7500 Du        
  47409 ****       132.2500 147.5000 130.0000 Du        
  47410 ****       132.2500 147.5000 130.2500 Du        
  47411 ****       132.2500 147.5000 130.5000 Du        
  47412 ****       132.2500 147.5000 130.7500 Du        
  47413 ****       132.2500 147.7500 120.5000 Du        
  47414 ****       132.2500 147.7500 120.7500 Du        
  47415 ****       132.2500 147.7500 121.0000 Du        
  47416 ****       132.2500 147.7500 121.2500 Du        
  47417 ****       132.2500 147.7500 121.5000 Du        
  47418 ****       132.2500 147.7500 121.7500 Du        
  47419 ****       132.2500 147.7500 122.0000 Du        
  47420 ****       132.2500 147.7500 122.2500 Du        
  47421 ****       132.2500 147.7500 122.5000 Du        
  47422 ****       132.2500 147.7500 122.7500 Du        
  47423 ****       132.2500 147.7500 123.0000 Du        
  47424 ****       132.2500 147.7500 123.2500 Du        
  47425 ****       132.2500 147.7500 123.5000 Du        
  47426 ****       132.2500 147.7500 123.7500 Du        
  47427 ****       132.2500 147.7500 124.0000 Du        
  47428 ****       132.2500 147.7500 124.2500 Du        
  47429 ****       132.2500 147.7500 124.5000 Du        
  47430 ****       132.2500 147.7500 129.5000 Du        
  47431 ****       132.2500 147.7500 129.7500 Du        
  47432 ****       132.2500 147.7500 130.0000 Du        
  47433 ****       132.2500 147.7500 130.2500 Du        
  47434 ****       132.2500 147.7500 130.5000 Du        
  47435 ****       132.2500 147.7500 130.7500 Du        
  47436 ****       132.2500 148.0000 120.5000 Du        
  47437 ****       132.2500 148.0000 120.7500 Du        
  47438 ****       132.2500 148.0000 121.0000 Du        
  47439 ****       132.2500 148.0000 121.2500 Du        
  47440 ****       132.2500 148.0000 121.5000 Du        
  47441 ****       132.2500 148.0000 121.7500 Du        
  47442 ****       132.2500 148.0000 122.0000 Du        
  47443 ****       132.2500 148.0000 122.2500 Du        
  47444 ****       132.2500 148.0000 122.5000 Du        
  47445 ****       132.2500 148.0000 122.7500 Du        
  47446 ****       132.2500 148.0000 123.0000 Du        
  47447 ****       132.2500 148.0000 123.2500 Du        
  47448 ****       132.2500 148.0000 123.5000 Du        
  47449 ****       132.2500 148.0000 123.7500 Du        
  47450 ****       132.2500 148.0000 124.0000 Du        
  47451 ****       132.2500 148.0000 124.2500 Du        
  47452 ****       132.2500 148.0000 124.5000 Du        
  47453 ****       132.2500 148.0000 124.7500 Du        
  47454 ****       132.2500 148.0000 125.0000 Du        
  47455 ****       132.2500 148.0000 125.2500 Du        
  47456 ****       132.2500 148.0000 129.5000 Du        
  47457 ****       132.2500 148.0000 129.7500 Du        
  47458 ****       132.2500 148.0000 130.0000 Du        
  47459 ****       132.2500 148.0000 130.2500 Du        
  47460 ****       132.2500 148.0000 130.5000 Du        
  47461 ****       132.2500 148.0000 130.7500 Du        
  47462 ****       132.2500 148.2500 120.7500 Du        
  47463 ****       132.2500 148.2500 121.0000 Du        
  47464 ****       132.2500 148.2500 121.2500 Du        
  47465 ****       132.2500 148.2500 121.5000 Du        
  47466 ****       132.2500 148.2500 121.7500 Du        
  47467 ****       132.2500 148.2500 122.0000 Du        
  47468 ****       132.2500 148.2500 122.2500 Du        
  47469 ****       132.2500 148.2500 122.5000 Du        
  47470 ****       132.2500 148.2500 122.7500 Du        
  47471 ****       132.2500 148.2500 123.0000 Du        
  47472 ****       132.2500 148.2500 123.2500 Du        
  47473 ****       132.2500 148.2500 123.5000 Du        
  47474 ****       132.2500 148.2500 123.7500 Du        
  47475 ****       132.2500 148.2500 124.0000 Du        
  47476 ****       132.2500 148.2500 124.2500 Du        
  47477 ****       132.2500 148.2500 124.5000 Du        
  47478 ****       132.2500 148.2500 124.7500 Du        
  47479 ****       132.2500 148.2500 125.0000 Du        
  47480 ****       132.2500 148.2500 125.2500 Du        
  47481 ****       132.2500 148.2500 129.7500 Du        
  47482 ****       132.2500 148.2500 130.0000 Du        
  47483 ****       132.2500 148.2500 130.2500 Du        
  47484 ****       132.2500 148.2500 130.5000 Du        
  47485 ****       132.2500 148.5000 121.0000 Du        
  47486 ****       132.2500 148.5000 121.2500 Du        
  47487 ****       132.2500 148.5000 121.5000 Du        
  47488 ****       132.2500 148.5000 121.7500 Du        
  47489 ****       132.2500 148.5000 122.0000 Du        
  47490 ****       132.2500 148.5000 122.2500 Du        
  47491 ****       132.2500 148.5000 122.5000 Du        
  47492 ****       132.2500 148.5000 122.7500 Du        
  47493 ****       132.2500 148.5000 123.0000 Du        
  47494 ****       132.2500 148.5000 123.2500 Du        
  47495 ****       132.2500 148.5000 123.5000 Du        
  47496 ****       132.2500 148.5000 123.7500 Du        
  47497 ****       132.2500 148.5000 124.0000 Du        
  47498 ****       132.2500 148.5000 124.2500 Du        
  47499 ****       132.2500 148.5000 124.5000 Du        
  47500 ****       132.2500 148.5000 124.7500 Du        
  47501 ****       132.2500 148.5000 125.0000 Du        
  47502 ****       132.2500 148.5000 125.2500 Du        
  47503 ****       132.2500 148.5000 125.5000 Du        
  47504 ****       132.2500 148.5000 130.0000 Du        
  47505 ****       132.2500 148.5000 130.2500 Du        
  47506 ****       132.2500 148.5000 130.5000 Du        
  47507 ****       132.2500 148.7500 121.5000 Du        
  47508 ****       132.2500 148.7500 121.7500 Du        
  47509 ****       132.2500 148.7500 122.0000 Du        
  47510 ****       132.2500 148.7500 122.2500 Du        
  47511 ****       132.2500 148.7500 122.5000 Du        
  47512 ****       132.2500 148.7500 122.7500 Du        
  47513 ****       132.2500 148.7500 123.0000 Du        
  47514 ****       132.2500 148.7500 123.2500 Du        
  47515 ****       132.2500 148.7500 123.5000 Du        
  47516 ****       132.2500 148.7500 123.7500 Du        
  47517 ****       132.2500 148.7500 124.0000 Du        
  47518 ****       132.2500 148.7500 124.2500 Du        
  47519 ****       132.2500 148.7500 124.5000 Du        
  47520 ****       132.2500 148.7500 124.7500 Du        
  47521 ****       132.2500 148.7500 125.0000 Du        
  47522 ****       132.2500 148.7500 125.2500 Du        
  47523 ****       132.2500 148.7500 125.5000 Du        
  47524 ****       132.2500 148.7500 125.7500 Du        
  47525 ****       132.2500 148.7500 130.0000 Du        
  47526 ****       132.2500 148.7500 130.2500 Du        
  47527 ****       132.2500 148.7500 130.5000 Du        
  47528 ****       132.2500 148.7500 130.7500 Du        
  47529 ****       132.2500 149.0000 121.7500 Du        
  47530 ****       132.2500 149.0000 122.0000 Du        
  47531 ****       132.2500 149.0000 122.2500 Du        
  47532 ****       132.2500 149.0000 122.5000 Du        
  47533 ****       132.2500 149.0000 122.7500 Du        
  47534 ****       132.2500 149.0000 123.0000 Du        
  47535 ****       132.2500 149.0000 123.2500 Du        
  47536 ****       132.2500 149.0000 123.5000 Du        
  47537 ****       132.2500 149.0000 123.7500 Du        
  47538 ****       132.2500 149.0000 124.0000 Du        
  47539 ****       132.2500 149.0000 124.2500 Du        
  47540 ****       132.2500 149.0000 124.5000 Du        
  47541 ****       132.2500 149.0000 124.7500 Du        
  47542 ****       132.2500 149.0000 125.0000 Du        
  47543 ****       132.2500 149.0000 125.2500 Du        
  47544 ****       132.2500 149.0000 130.0000 Du        
  47545 ****       132.2500 149.0000 130.2500 Du        
  47546 ****       132.2500 149.0000 130.5000 Du        
  47547 ****       132.2500 149.0000 130.7500 Du        
  47548 ****       132.2500 149.2500 122.0000 Du        
  47549 ****       132.2500 149.2500 122.2500 Du        
  47550 ****       132.2500 149.2500 122.5000 Du        
  47551 ****       132.2500 149.2500 122.7500 Du        
  47552 ****       132.2500 149.2500 123.0000 Du        
  47553 ****       132.2500 149.2500 123.2500 Du        
  47554 ****       132.2500 149.2500 123.5000 Du        
  47555 ****       132.2500 149.2500 123.7500 Du        
  47556 ****       132.2500 149.2500 124.0000 Du        
  47557 ****       132.2500 149.2500 124.2500 Du        
  47558 ****       132.2500 149.2500 124.5000 Du        
  47559 ****       132.2500 149.2500 124.7500 Du        
  47560 ****       132.2500 149.2500 125.0000 Du        
  47561 ****       132.2500 149.2500 125.2500 Du        
  47562 ****       132.2500 149.2500 130.0000 Du        
  47563 ****       132.2500 149.2500 130.2500 Du        
  47564 ****       132.2500 149.2500 130.5000 Du        
  47565 ****       132.2500 149.2500 130.7500 Du        
  47566 ****       132.2500 149.5000 122.2500 Du        
  47567 ****       132.2500 149.5000 122.5000 Du        
  47568 ****       132.2500 149.5000 122.7500 Du        
  47569 ****       132.2500 149.5000 123.0000 Du        
  47570 ****       132.2500 149.5000 123.2500 Du        
  47571 ****       132.2500 149.5000 123.5000 Du        
  47572 ****       132.2500 149.5000 123.7500 Du        
  47573 ****       132.2500 149.5000 124.0000 Du        
  47574 ****       132.2500 149.5000 124.2500 Du        
  47575 ****       132.2500 149.5000 124.5000 Du        
  47576 ****       132.2500 149.5000 124.7500 Du        
  47577 ****       132.2500 149.5000 125.0000 Du        
  47578 ****       132.2500 149.5000 125.2500 Du        
  47579 ****       132.2500 149.5000 130.0000 Du        
  47580 ****       132.2500 149.5000 130.2500 Du        
  47581 ****       132.2500 149.5000 130.5000 Du        
  47582 ****       132.2500 149.5000 130.7500 Du        
  47583 ****       132.2500 149.7500 122.2500 Du        
  47584 ****       132.2500 149.7500 122.5000 Du        
  47585 ****       132.2500 149.7500 122.7500 Du        
  47586 ****       132.2500 149.7500 123.0000 Du        
  47587 ****       132.2500 149.7500 123.2500 Du        
  47588 ****       132.2500 149.7500 123.5000 Du        
  47589 ****       132.2500 149.7500 123.7500 Du        
  47590 ****       132.2500 149.7500 124.0000 Du        
  47591 ****       132.2500 149.7500 124.2500 Du        
  47592 ****       132.2500 149.7500 124.5000 Du        
  47593 ****       132.2500 149.7500 124.7500 Du        
  47594 ****       132.2500 149.7500 125.0000 Du        
  47595 ****       132.2500 149.7500 125.2500 Du        
  47596 ****       132.2500 149.7500 130.0000 Du        
  47597 ****       132.2500 149.7500 130.2500 Du        
  47598 ****       132.2500 149.7500 130.5000 Du        
  47599 ****       132.2500 150.0000 122.5000 Du        
  47600 ****       132.2500 150.0000 122.7500 Du        
  47601 ****       132.2500 150.0000 123.0000 Du        
  47602 ****       132.2500 150.0000 123.2500 Du        
  47603 ****       132.2500 150.0000 123.5000 Du        
  47604 ****       132.2500 150.0000 123.7500 Du        
  47605 ****       132.2500 150.0000 124.0000 Du        
  47606 ****       132.2500 150.0000 124.2500 Du        
  47607 ****       132.2500 150.0000 124.5000 Du        
  47608 ****       132.2500 150.0000 124.7500 Du        
  47609 ****       132.2500 150.0000 125.0000 Du        
  47610 ****       132.2500 150.0000 125.2500 Du        
  47611 ****       132.2500 150.2500 122.7500 Du        
  47612 ****       132.2500 150.2500 123.0000 Du        
  47613 ****       132.2500 150.2500 123.2500 Du        
  47614 ****       132.2500 150.2500 123.5000 Du        
  47615 ****       132.2500 150.2500 123.7500 Du        
  47616 ****       132.2500 150.2500 124.0000 Du        
  47617 ****       132.2500 150.2500 124.2500 Du        
  47618 ****       132.2500 150.2500 124.7500 Du        
  47619 ****       132.2500 150.5000 123.2500 Du        
  47620 ****       132.2500 150.5000 123.7500 Du        
  47621 ****       132.2500 152.7500 145.7500 Du        
  47622 ****       132.2500 153.0000 145.2500 Du        
  47623 ****       132.2500 153.0000 145.5000 Du        
  47624 ****       132.2500 153.0000 145.7500 Du        
  47625 ****       132.2500 153.0000 146.0000 Du        
  47626 ****       132.2500 153.0000 146.2500 Du        
  47627 ****       132.2500 153.2500 129.0000 Du        
  47628 ****       132.2500 153.2500 129.2500 Du        
  47629 ****       132.2500 153.2500 129.5000 Du        
  47630 ****       132.2500 153.2500 129.7500 Du        
  47631 ****       132.2500 153.2500 145.0000 Du        
  47632 ****       132.2500 153.2500 145.2500 Du        
  47633 ****       132.2500 153.2500 145.5000 Du        
  47634 ****       132.2500 153.2500 145.7500 Du        
  47635 ****       132.2500 153.2500 146.0000 Du        
  47636 ****       132.2500 153.2500 146.2500 Du        
  47637 ****       132.2500 153.5000 128.7500 Du        
  47638 ****       132.2500 153.5000 129.0000 Du        
  47639 ****       132.2500 153.5000 129.2500 Du        
  47640 ****       132.2500 153.5000 129.5000 Du        
  47641 ****       132.2500 153.5000 129.7500 Du        
  47642 ****       132.2500 153.5000 145.0000 Du        
  47643 ****       132.2500 153.5000 145.2500 Du        
  47644 ****       132.2500 153.5000 145.5000 Du        
  47645 ****       132.2500 153.5000 145.7500 Du        
  47646 ****       132.2500 153.5000 146.0000 Du        
  47647 ****       132.2500 153.5000 146.2500 Du        
  47648 ****       132.2500 153.7500 128.7500 Du        
  47649 ****       132.2500 153.7500 129.0000 Du        
  47650 ****       132.2500 153.7500 129.2500 Du        
  47651 ****       132.2500 153.7500 129.5000 Du        
  47652 ****       132.2500 153.7500 129.7500 Du        
  47653 ****       132.2500 153.7500 145.2500 Du        
  47654 ****       132.2500 153.7500 145.5000 Du        
  47655 ****       132.2500 153.7500 145.7500 Du        
  47656 ****       132.2500 153.7500 146.0000 Du        
  47657 ****       132.2500 153.7500 146.2500 Du        
  47658 ****       132.2500 153.7500 146.5000 Du        
  47659 ****       132.2500 154.0000 128.7500 Du        
  47660 ****       132.2500 154.0000 129.0000 Du        
  47661 ****       132.2500 154.0000 129.2500 Du        
  47662 ****       132.2500 154.0000 129.5000 Du        
  47663 ****       132.2500 154.0000 145.5000 Du        
  47664 ****       132.2500 154.0000 145.7500 Du        
  47665 ****       132.2500 154.0000 146.0000 Du        
  47666 ****       132.2500 154.0000 146.2500 Du        
  47667 ****       132.2500 154.0000 146.5000 Du        
  47668 ****       132.2500 154.2500 127.0000 Du        
  47669 ****       132.2500 154.2500 145.7500 Du        
  47670 ****       132.2500 154.2500 146.0000 Du        
  47671 ****       132.2500 154.2500 146.2500 Du        
  47672 ****       132.2500 154.2500 146.5000 Du        
  47673 ****       132.2500 154.5000 126.7500 Du        
  47674 ****       132.2500 154.5000 127.0000 Du        
  47675 ****       132.2500 154.5000 146.0000 Du        
  47676 ****       132.2500 154.5000 146.2500 Du        
  47677 ****       132.2500 154.7500 126.5000 Du        
  47678 ****       132.2500 154.7500 126.7500 Du        
  47679 ****       132.2500 154.7500 127.0000 Du        
  47680 ****       132.2500 154.7500 127.2500 Du        
  47681 ****       132.2500 155.0000 126.2500 Du        
  47682 ****       132.2500 155.0000 126.5000 Du        
  47683 ****       132.2500 155.0000 126.7500 Du        
  47684 ****       132.2500 155.0000 127.0000 Du        
  47685 ****       132.2500 155.2500 126.0000 Du        
  47686 ****       132.2500 155.2500 126.2500 Du        
  47687 ****       132.2500 155.2500 126.5000 Du        
  47688 ****       132.2500 155.2500 126.7500 Du        
  47689 ****       132.2500 155.5000 125.7500 Du        
  47690 ****       132.2500 155.5000 126.0000 Du        
  47691 ****       132.2500 155.5000 126.2500 Du        
  47692 ****       132.2500 155.5000 126.5000 Du        
  47693 ****       132.2500 155.5000 126.7500 Du        
  47694 ****       132.2500 155.7500 125.5000 Du        
  47695 ****       132.2500 155.7500 125.7500 Du        
  47696 ****       132.2500 155.7500 126.0000 Du        
  47697 ****       132.2500 155.7500 126.2500 Du        
  47698 ****       132.2500 155.7500 126.5000 Du        
  47699 ****       132.2500 155.7500 126.7500 Du        
  47700 ****       132.2500 156.0000 125.2500 Du        
  47701 ****       132.2500 156.0000 125.5000 Du        
  47702 ****       132.2500 156.0000 125.7500 Du        
  47703 ****       132.2500 156.0000 126.0000 Du        
  47704 ****       132.2500 156.0000 126.2500 Du        
  47705 ****       132.2500 156.0000 126.5000 Du        
  47706 ****       132.2500 156.2500 125.2500 Du        
  47707 ****       132.2500 156.2500 125.5000 Du        
  47708 ****       132.2500 156.2500 125.7500 Du        
  47709 ****       132.2500 156.2500 126.0000 Du        
  47710 ****       132.2500 156.2500 126.2500 Du        
  47711 ****       132.2500 156.5000 117.5000 Du        
  47712 ****       132.2500 156.5000 117.7500 Du        
  47713 ****       132.2500 156.5000 125.2500 Du        
  47714 ****       132.2500 156.5000 125.5000 Du        
  47715 ****       132.2500 156.5000 125.7500 Du        
  47716 ****       132.2500 156.5000 126.0000 Du        
  47717 ****       132.2500 156.5000 126.2500 Du        
  47718 ****       132.2500 156.7500 117.2500 Du        
  47719 ****       132.2500 156.7500 117.5000 Du        
  47720 ****       132.2500 156.7500 117.7500 Du        
  47721 ****       132.2500 156.7500 118.0000 Du        
  47722 ****       132.2500 156.7500 125.7500 Du        
  47723 ****       132.2500 156.7500 126.0000 Du        
  47724 ****       132.2500 157.0000 117.0000 Du        
  47725 ****       132.2500 157.0000 117.2500 Du        
  47726 ****       132.2500 157.0000 117.5000 Du        
  47727 ****       132.2500 157.0000 117.7500 Du        
  47728 ****       132.2500 157.0000 118.0000 Du        
  47729 ****       132.2500 157.0000 139.0000 Du        
  47730 ****       132.2500 157.0000 139.2500 Du        
  47731 ****       132.2500 157.0000 139.5000 Du        
  47732 ****       132.2500 157.0000 139.7500 Du        
  47733 ****       132.2500 157.0000 140.0000 Du        
  47734 ****       132.2500 157.0000 140.2500 Du        
  47735 ****       132.2500 157.2500 116.7500 Du        
  47736 ****       132.2500 157.2500 117.0000 Du        
  47737 ****       132.2500 157.2500 117.2500 Du        
  47738 ****       132.2500 157.2500 117.5000 Du        
  47739 ****       132.2500 157.2500 117.7500 Du        
  47740 ****       132.2500 157.2500 118.0000 Du        
  47741 ****       132.2500 157.2500 138.7500 Du        
  47742 ****       132.2500 157.2500 139.0000 Du        
  47743 ****       132.2500 157.2500 139.2500 Du        
  47744 ****       132.2500 157.2500 139.5000 Du        
  47745 ****       132.2500 157.2500 139.7500 Du        
  47746 ****       132.2500 157.2500 140.0000 Du        
  47747 ****       132.2500 157.2500 140.2500 Du        
  47748 ****       132.2500 157.2500 140.5000 Du        
  47749 ****       132.2500 157.5000 116.5000 Du        
  47750 ****       132.2500 157.5000 116.7500 Du        
  47751 ****       132.2500 157.5000 117.0000 Du        
  47752 ****       132.2500 157.5000 117.2500 Du        
  47753 ****       132.2500 157.5000 117.5000 Du        
  47754 ****       132.2500 157.5000 117.7500 Du        
  47755 ****       132.2500 157.5000 118.0000 Du        
  47756 ****       132.2500 157.5000 138.2500 Du        
  47757 ****       132.2500 157.5000 138.5000 Du        
  47758 ****       132.2500 157.5000 138.7500 Du        
  47759 ****       132.2500 157.5000 139.0000 Du        
  47760 ****       132.2500 157.5000 139.2500 Du        
  47761 ****       132.2500 157.5000 139.5000 Du        
  47762 ****       132.2500 157.5000 139.7500 Du        
  47763 ****       132.2500 157.5000 140.0000 Du        
  47764 ****       132.2500 157.5000 140.2500 Du        
  47765 ****       132.2500 157.5000 140.5000 Du        
  47766 ****       132.2500 157.5000 140.7500 Du        
  47767 ****       132.2500 157.7500 116.2500 Du        
  47768 ****       132.2500 157.7500 116.5000 Du        
  47769 ****       132.2500 157.7500 116.7500 Du        
  47770 ****       132.2500 157.7500 117.0000 Du        
  47771 ****       132.2500 157.7500 117.2500 Du        
  47772 ****       132.2500 157.7500 117.5000 Du        
  47773 ****       132.2500 157.7500 137.2500 Du        
  47774 ****       132.2500 157.7500 137.5000 Du        
  47775 ****       132.2500 157.7500 137.7500 Du        
  47776 ****       132.2500 157.7500 138.0000 Du        
  47777 ****       132.2500 157.7500 138.2500 Du        
  47778 ****       132.2500 157.7500 138.5000 Du        
  47779 ****       132.2500 157.7500 138.7500 Du        
  47780 ****       132.2500 157.7500 139.0000 Du        
  47781 ****       132.2500 157.7500 139.2500 Du        
  47782 ****       132.2500 157.7500 139.5000 Du        
  47783 ****       132.2500 157.7500 139.7500 Du        
  47784 ****       132.2500 157.7500 140.0000 Du        
  47785 ****       132.2500 157.7500 140.2500 Du        
  47786 ****       132.2500 157.7500 140.5000 Du        
  47787 ****       132.2500 157.7500 140.7500 Du        
  47788 ****       132.2500 157.7500 141.0000 Du        
  47789 ****       132.2500 157.7500 141.2500 Du        
  47790 ****       132.2500 158.0000 116.2500 Du        
  47791 ****       132.2500 158.0000 116.5000 Du        
  47792 ****       132.2500 158.0000 116.7500 Du        
  47793 ****       132.2500 158.0000 136.7500 Du        
  47794 ****       132.2500 158.0000 137.0000 Du        
  47795 ****       132.2500 158.0000 137.2500 Du        
  47796 ****       132.2500 158.0000 137.5000 Du        
  47797 ****       132.2500 158.0000 137.7500 Du        
  47798 ****       132.2500 158.0000 138.0000 Du        
  47799 ****       132.2500 158.0000 138.2500 Du        
  47800 ****       132.2500 158.0000 138.5000 Du        
  47801 ****       132.2500 158.0000 138.7500 Du        
  47802 ****       132.2500 158.0000 139.0000 Du        
  47803 ****       132.2500 158.0000 139.2500 Du        
  47804 ****       132.2500 158.0000 139.5000 Du        
  47805 ****       132.2500 158.0000 139.7500 Du        
  47806 ****       132.2500 158.0000 140.0000 Du        
  47807 ****       132.2500 158.0000 140.2500 Du        
  47808 ****       132.2500 158.0000 140.5000 Du        
  47809 ****       132.2500 158.0000 140.7500 Du        
  47810 ****       132.2500 158.0000 141.0000 Du        
  47811 ****       132.2500 158.0000 141.2500 Du        
  47812 ****       132.2500 158.0000 141.5000 Du        
  47813 ****       132.2500 158.0000 141.7500 Du        
  47814 ****       132.2500 158.2500 136.7500 Du        
  47815 ****       132.2500 158.2500 137.0000 Du        
  47816 ****       132.2500 158.2500 137.2500 Du        
  47817 ****       132.2500 158.2500 137.5000 Du        
  47818 ****       132.2500 158.2500 137.7500 Du        
  47819 ****       132.2500 158.2500 138.0000 Du        
  47820 ****       132.2500 158.2500 138.2500 Du        
  47821 ****       132.2500 158.2500 138.5000 Du        
  47822 ****       132.2500 158.2500 138.7500 Du        
  47823 ****       132.2500 158.2500 139.0000 Du        
  47824 ****       132.2500 158.2500 139.2500 Du        
  47825 ****       132.2500 158.2500 139.5000 Du        
  47826 ****       132.2500 158.2500 139.7500 Du        
  47827 ****       132.2500 158.2500 140.0000 Du        
  47828 ****       132.2500 158.2500 140.2500 Du        
  47829 ****       132.2500 158.2500 140.5000 Du        
  47830 ****       132.2500 158.2500 140.7500 Du        
  47831 ****       132.2500 158.2500 141.0000 Du        
  47832 ****       132.2500 158.2500 141.2500 Du        
  47833 ****       132.2500 158.2500 141.5000 Du        
  47834 ****       132.2500 158.2500 141.7500 Du        
  47835 ****       132.2500 158.5000 136.7500 Du        
  47836 ****       132.2500 158.5000 137.0000 Du        
  47837 ****       132.2500 158.5000 137.2500 Du        
  47838 ****       132.2500 158.5000 137.5000 Du        
  47839 ****       132.2500 158.5000 137.7500 Du        
  47840 ****       132.2500 158.5000 138.0000 Du        
  47841 ****       132.2500 158.5000 138.2500 Du        
  47842 ****       132.2500 158.5000 138.5000 Du        
  47843 ****       132.2500 158.5000 138.7500 Du        
  47844 ****       132.2500 158.5000 139.0000 Du        
  47845 ****       132.2500 158.5000 139.2500 Du        
  47846 ****       132.2500 158.5000 139.5000 Du        
  47847 ****       132.2500 158.5000 139.7500 Du        
  47848 ****       132.2500 158.5000 140.0000 Du        
  47849 ****       132.2500 158.5000 140.2500 Du        
  47850 ****       132.2500 158.5000 140.5000 Du        
  47851 ****       132.2500 158.5000 140.7500 Du        
  47852 ****       132.2500 158.5000 141.0000 Du        
  47853 ****       132.2500 158.5000 141.2500 Du        
  47854 ****       132.2500 158.5000 141.5000 Du        
  47855 ****       132.2500 158.5000 141.7500 Du        
  47856 ****       132.2500 158.7500 136.7500 Du        
  47857 ****       132.2500 158.7500 137.0000 Du        
  47858 ****       132.2500 158.7500 137.2500 Du        
  47859 ****       132.2500 158.7500 137.5000 Du        
  47860 ****       132.2500 158.7500 137.7500 Du        
  47861 ****       132.2500 158.7500 138.0000 Du        
  47862 ****       132.2500 158.7500 138.2500 Du        
  47863 ****       132.2500 158.7500 138.5000 Du        
  47864 ****       132.2500 158.7500 138.7500 Du        
  47865 ****       132.2500 158.7500 139.0000 Du        
  47866 ****       132.2500 158.7500 139.2500 Du        
  47867 ****       132.2500 158.7500 139.5000 Du        
  47868 ****       132.2500 158.7500 139.7500 Du        
  47869 ****       132.2500 158.7500 140.0000 Du        
  47870 ****       132.2500 158.7500 140.2500 Du        
  47871 ****       132.2500 158.7500 140.5000 Du        
  47872 ****       132.2500 158.7500 140.7500 Du        
  47873 ****       132.2500 158.7500 141.0000 Du        
  47874 ****       132.2500 158.7500 141.2500 Du        
  47875 ****       132.2500 158.7500 141.5000 Du        
  47876 ****       132.2500 159.0000 136.7500 Du        
  47877 ****       132.2500 159.0000 137.0000 Du        
  47878 ****       132.2500 159.0000 137.2500 Du        
  47879 ****       132.2500 159.0000 137.5000 Du        
  47880 ****       132.2500 159.0000 137.7500 Du        
  47881 ****       132.2500 159.0000 138.0000 Du        
  47882 ****       132.2500 159.0000 138.2500 Du        
  47883 ****       132.2500 159.0000 138.5000 Du        
  47884 ****       132.2500 159.0000 138.7500 Du        
  47885 ****       132.2500 159.0000 139.0000 Du        
  47886 ****       132.2500 159.0000 139.2500 Du        
  47887 ****       132.2500 159.0000 139.5000 Du        
  47888 ****       132.2500 159.0000 139.7500 Du        
  47889 ****       132.2500 159.0000 140.0000 Du        
  47890 ****       132.2500 159.0000 140.2500 Du        
  47891 ****       132.2500 159.0000 140.5000 Du        
  47892 ****       132.2500 159.0000 140.7500 Du        
  47893 ****       132.2500 159.0000 141.0000 Du        
  47894 ****       132.2500 159.0000 141.2500 Du        
  47895 ****       132.2500 159.2500 136.7500 Du        
  47896 ****       132.2500 159.2500 137.0000 Du        
  47897 ****       132.2500 159.2500 137.2500 Du        
  47898 ****       132.2500 159.2500 137.5000 Du        
  47899 ****       132.2500 159.2500 137.7500 Du        
  47900 ****       132.2500 159.2500 138.0000 Du        
  47901 ****       132.2500 159.2500 138.2500 Du        
  47902 ****       132.2500 159.2500 138.5000 Du        
  47903 ****       132.2500 159.2500 138.7500 Du        
  47904 ****       132.2500 159.2500 139.0000 Du        
  47905 ****       132.2500 159.2500 139.2500 Du        
  47906 ****       132.2500 159.2500 139.5000 Du        
  47907 ****       132.2500 159.2500 139.7500 Du        
  47908 ****       132.2500 159.2500 140.0000 Du        
  47909 ****       132.2500 159.2500 140.2500 Du        
  47910 ****       132.2500 159.2500 140.5000 Du        
  47911 ****       132.2500 159.5000 137.0000 Du        
  47912 ****       132.2500 159.5000 137.2500 Du        
  47913 ****       132.2500 159.5000 137.5000 Du        
  47914 ****       132.2500 159.5000 137.7500 Du        
  47915 ****       132.2500 159.5000 138.0000 Du        
  47916 ****       132.2500 159.5000 138.2500 Du        
  47917 ****       132.2500 159.5000 138.5000 Du        
  47918 ****       132.2500 159.5000 138.7500 Du        
  47919 ****       132.2500 159.5000 139.0000 Du        
  47920 ****       132.2500 159.5000 139.2500 Du        
  47921 ****       132.2500 159.5000 139.5000 Du        
  47922 ****       132.2500 159.5000 139.7500 Du        
  47923 ****       132.2500 159.7500 137.0000 Du        
  47924 ****       132.2500 159.7500 137.2500 Du        
  47925 ****       132.2500 159.7500 137.5000 Du        
  47926 ****       132.2500 159.7500 137.7500 Du        
  47927 ****       132.2500 159.7500 138.0000 Du        
  47928 ****       132.2500 159.7500 138.2500 Du        
  47929 ****       132.2500 159.7500 138.5000 Du        
  47930 ****       132.2500 159.7500 138.7500 Du        
  47931 ****       132.2500 159.7500 139.0000 Du        
  47932 ****       132.2500 159.7500 139.2500 Du        
  47933 ****       132.2500 160.0000 137.2500 Du        
  47934 ****       132.2500 160.0000 137.5000 Du        
  47935 ****       132.2500 160.0000 137.7500 Du        
  47936 ****       132.2500 160.0000 138.0000 Du        
  47937 ****       132.2500 160.0000 138.2500 Du        
  47938 ****       132.2500 160.0000 138.5000 Du        
  47939 ****       132.2500 160.0000 138.7500 Du        
  47940 ****       132.5000 133.0000 124.7500 Du        
  47941 ****       132.5000 133.0000 125.0000 Du        
  47942 ****       132.5000 133.0000 125.2500 Du        
  47943 ****       132.5000 133.0000 125.5000 Du        
  47944 ****       132.5000 133.0000 125.7500 Du        
  47945 ****       132.5000 133.0000 126.0000 Du        
  47946 ****       132.5000 133.0000 126.2500 Du        
  47947 ****       132.5000 133.0000 126.5000 Du        
  47948 ****       132.5000 133.0000 126.7500 Du        
  47949 ****       132.5000 133.0000 127.0000 Du        
  47950 ****       132.5000 133.0000 127.2500 Du        
  47951 ****       132.5000 133.0000 127.5000 Du        
  47952 ****       132.5000 133.2500 124.7500 Du        
  47953 ****       132.5000 133.2500 125.0000 Du        
  47954 ****       132.5000 133.2500 125.2500 Du        
  47955 ****       132.5000 133.2500 125.5000 Du        
  47956 ****       132.5000 133.2500 125.7500 Du        
  47957 ****       132.5000 133.2500 126.0000 Du        
  47958 ****       132.5000 133.2500 126.2500 Du        
  47959 ****       132.5000 133.2500 126.5000 Du        
  47960 ****       132.5000 133.2500 126.7500 Du        
  47961 ****       132.5000 133.2500 127.0000 Du        
  47962 ****       132.5000 133.5000 124.7500 Du        
  47963 ****       132.5000 133.5000 125.0000 Du        
  47964 ****       132.5000 133.5000 125.2500 Du        
  47965 ****       132.5000 133.5000 125.5000 Du        
  47966 ****       132.5000 133.5000 125.7500 Du        
  47967 ****       132.5000 133.5000 126.0000 Du        
  47968 ****       132.5000 133.5000 126.2500 Du        
  47969 ****       132.5000 133.5000 126.5000 Du        
  47970 ****       132.5000 133.5000 126.7500 Du        
  47971 ****       132.5000 133.7500 125.0000 Du        
  47972 ****       132.5000 133.7500 125.2500 Du        
  47973 ****       132.5000 133.7500 125.5000 Du        
  47974 ****       132.5000 133.7500 125.7500 Du        
  47975 ****       132.5000 133.7500 126.0000 Du        
  47976 ****       132.5000 133.7500 126.2500 Du        
  47977 ****       132.5000 134.0000 125.0000 Du        
  47978 ****       132.5000 134.0000 125.2500 Du        
  47979 ****       132.5000 134.0000 125.5000 Du        
  47980 ****       132.5000 134.0000 125.7500 Du        
  47981 ****       132.5000 134.0000 126.0000 Du        
  47982 ****       132.5000 146.0000 130.0000 Du        
  47983 ****       132.5000 146.0000 130.2500 Du        
  47984 ****       132.5000 146.0000 130.5000 Du        
  47985 ****       132.5000 146.0000 130.7500 Du        
  47986 ****       132.5000 146.0000 131.0000 Du        
  47987 ****       132.5000 146.2500 130.0000 Du        
  47988 ****       132.5000 146.2500 130.2500 Du        
  47989 ****       132.5000 146.2500 130.5000 Du        
  47990 ****       132.5000 146.2500 130.7500 Du        
  47991 ****       132.5000 146.2500 131.0000 Du        
  47992 ****       132.5000 146.5000 130.0000 Du        
  47993 ****       132.5000 146.5000 130.2500 Du        
  47994 ****       132.5000 146.5000 130.5000 Du        
  47995 ****       132.5000 146.5000 130.7500 Du        
  47996 ****       132.5000 146.5000 131.0000 Du        
  47997 ****       132.5000 146.7500 130.0000 Du        
  47998 ****       132.5000 146.7500 130.2500 Du        
  47999 ****       132.5000 146.7500 130.5000 Du        
  48000 ****       132.5000 146.7500 130.7500 Du        
  48001 ****       132.5000 146.7500 131.0000 Du        
  48002 ****       132.5000 147.0000 120.7500 Du        
  48003 ****       132.5000 147.0000 121.0000 Du        
  48004 ****       132.5000 147.0000 121.2500 Du        
  48005 ****       132.5000 147.0000 121.5000 Du        
  48006 ****       132.5000 147.0000 130.0000 Du        
  48007 ****       132.5000 147.0000 130.2500 Du        
  48008 ****       132.5000 147.0000 130.5000 Du        
  48009 ****       132.5000 147.0000 130.7500 Du        
  48010 ****       132.5000 147.2500 120.2500 Du        
  48011 ****       132.5000 147.2500 120.5000 Du        
  48012 ****       132.5000 147.2500 120.7500 Du        
  48013 ****       132.5000 147.2500 121.0000 Du        
  48014 ****       132.5000 147.2500 121.2500 Du        
  48015 ****       132.5000 147.2500 121.5000 Du        
  48016 ****       132.5000 147.2500 121.7500 Du        
  48017 ****       132.5000 147.2500 122.0000 Du        
  48018 ****       132.5000 147.2500 122.2500 Du        
  48019 ****       132.5000 147.2500 122.5000 Du        
  48020 ****       132.5000 147.2500 122.7500 Du        
  48021 ****       132.5000 147.2500 123.0000 Du        
  48022 ****       132.5000 147.2500 123.2500 Du        
  48023 ****       132.5000 147.2500 130.0000 Du        
  48024 ****       132.5000 147.2500 130.2500 Du        
  48025 ****       132.5000 147.2500 130.5000 Du        
  48026 ****       132.5000 147.2500 130.7500 Du        
  48027 ****       132.5000 147.5000 120.2500 Du        
  48028 ****       132.5000 147.5000 120.5000 Du        
  48029 ****       132.5000 147.5000 120.7500 Du        
  48030 ****       132.5000 147.5000 121.0000 Du        
  48031 ****       132.5000 147.5000 121.2500 Du        
  48032 ****       132.5000 147.5000 121.5000 Du        
  48033 ****       132.5000 147.5000 121.7500 Du        
  48034 ****       132.5000 147.5000 122.0000 Du        
  48035 ****       132.5000 147.5000 122.2500 Du        
  48036 ****       132.5000 147.5000 122.5000 Du        
  48037 ****       132.5000 147.5000 122.7500 Du        
  48038 ****       132.5000 147.5000 123.0000 Du        
  48039 ****       132.5000 147.5000 123.2500 Du        
  48040 ****       132.5000 147.5000 123.5000 Du        
  48041 ****       132.5000 147.5000 123.7500 Du        
  48042 ****       132.5000 147.5000 130.0000 Du        
  48043 ****       132.5000 147.5000 130.2500 Du        
  48044 ****       132.5000 147.5000 130.5000 Du        
  48045 ****       132.5000 147.5000 130.7500 Du        
  48046 ****       132.5000 147.7500 120.5000 Du        
  48047 ****       132.5000 147.7500 120.7500 Du        
  48048 ****       132.5000 147.7500 121.0000 Du        
  48049 ****       132.5000 147.7500 121.2500 Du        
  48050 ****       132.5000 147.7500 121.5000 Du        
  48051 ****       132.5000 147.7500 121.7500 Du        
  48052 ****       132.5000 147.7500 122.0000 Du        
  48053 ****       132.5000 147.7500 122.2500 Du        
  48054 ****       132.5000 147.7500 122.5000 Du        
  48055 ****       132.5000 147.7500 122.7500 Du        
  48056 ****       132.5000 147.7500 123.0000 Du        
  48057 ****       132.5000 147.7500 123.2500 Du        
  48058 ****       132.5000 147.7500 123.5000 Du        
  48059 ****       132.5000 147.7500 123.7500 Du        
  48060 ****       132.5000 147.7500 124.0000 Du        
  48061 ****       132.5000 147.7500 124.2500 Du        
  48062 ****       132.5000 147.7500 124.5000 Du        
  48063 ****       132.5000 147.7500 130.0000 Du        
  48064 ****       132.5000 147.7500 130.2500 Du        
  48065 ****       132.5000 147.7500 130.5000 Du        
  48066 ****       132.5000 147.7500 130.7500 Du        
  48067 ****       132.5000 148.0000 120.7500 Du        
  48068 ****       132.5000 148.0000 121.0000 Du        
  48069 ****       132.5000 148.0000 121.2500 Du        
  48070 ****       132.5000 148.0000 121.5000 Du        
  48071 ****       132.5000 148.0000 121.7500 Du        
  48072 ****       132.5000 148.0000 122.0000 Du        
  48073 ****       132.5000 148.0000 122.2500 Du        
  48074 ****       132.5000 148.0000 122.5000 Du        
  48075 ****       132.5000 148.0000 122.7500 Du        
  48076 ****       132.5000 148.0000 123.0000 Du        
  48077 ****       132.5000 148.0000 123.2500 Du        
  48078 ****       132.5000 148.0000 123.5000 Du        
  48079 ****       132.5000 148.0000 123.7500 Du        
  48080 ****       132.5000 148.0000 124.0000 Du        
  48081 ****       132.5000 148.0000 124.2500 Du        
  48082 ****       132.5000 148.0000 124.5000 Du        
  48083 ****       132.5000 148.0000 124.7500 Du        
  48084 ****       132.5000 148.0000 125.0000 Du        
  48085 ****       132.5000 148.0000 125.2500 Du        
  48086 ****       132.5000 148.0000 130.0000 Du        
  48087 ****       132.5000 148.0000 130.2500 Du        
  48088 ****       132.5000 148.0000 130.5000 Du        
  48089 ****       132.5000 148.0000 130.7500 Du        
  48090 ****       132.5000 148.2500 121.0000 Du        
  48091 ****       132.5000 148.2500 121.2500 Du        
  48092 ****       132.5000 148.2500 121.5000 Du        
  48093 ****       132.5000 148.2500 121.7500 Du        
  48094 ****       132.5000 148.2500 122.0000 Du        
  48095 ****       132.5000 148.2500 122.2500 Du        
  48096 ****       132.5000 148.2500 122.5000 Du        
  48097 ****       132.5000 148.2500 122.7500 Du        
  48098 ****       132.5000 148.2500 123.0000 Du        
  48099 ****       132.5000 148.2500 123.2500 Du        
  48100 ****       132.5000 148.2500 123.5000 Du        
  48101 ****       132.5000 148.2500 123.7500 Du        
  48102 ****       132.5000 148.2500 124.0000 Du        
  48103 ****       132.5000 148.2500 124.2500 Du        
  48104 ****       132.5000 148.2500 124.5000 Du        
  48105 ****       132.5000 148.2500 124.7500 Du        
  48106 ****       132.5000 148.2500 125.0000 Du        
  48107 ****       132.5000 148.2500 125.2500 Du        
  48108 ****       132.5000 148.2500 125.5000 Du        
  48109 ****       132.5000 148.2500 125.7500 Du        
  48110 ****       132.5000 148.2500 130.0000 Du        
  48111 ****       132.5000 148.2500 130.2500 Du        
  48112 ****       132.5000 148.2500 130.5000 Du        
  48113 ****       132.5000 148.2500 130.7500 Du        
  48114 ****       132.5000 148.5000 121.7500 Du        
  48115 ****       132.5000 148.5000 122.0000 Du        
  48116 ****       132.5000 148.5000 122.2500 Du        
  48117 ****       132.5000 148.5000 122.5000 Du        
  48118 ****       132.5000 148.5000 122.7500 Du        
  48119 ****       132.5000 148.5000 123.0000 Du        
  48120 ****       132.5000 148.5000 123.2500 Du        
  48121 ****       132.5000 148.5000 123.5000 Du        
  48122 ****       132.5000 148.5000 123.7500 Du        
  48123 ****       132.5000 148.5000 124.0000 Du        
  48124 ****       132.5000 148.5000 124.2500 Du        
  48125 ****       132.5000 148.5000 124.5000 Du        
  48126 ****       132.5000 148.5000 124.7500 Du        
  48127 ****       132.5000 148.5000 125.0000 Du        
  48128 ****       132.5000 148.5000 125.2500 Du        
  48129 ****       132.5000 148.5000 125.5000 Du        
  48130 ****       132.5000 148.5000 125.7500 Du        
  48131 ****       132.5000 148.5000 126.0000 Du        
  48132 ****       132.5000 148.5000 130.0000 Du        
  48133 ****       132.5000 148.5000 130.2500 Du        
  48134 ****       132.5000 148.5000 130.5000 Du        
  48135 ****       132.5000 148.5000 130.7500 Du        
  48136 ****       132.5000 148.7500 122.0000 Du        
  48137 ****       132.5000 148.7500 122.2500 Du        
  48138 ****       132.5000 148.7500 122.5000 Du        
  48139 ****       132.5000 148.7500 122.7500 Du        
  48140 ****       132.5000 148.7500 123.0000 Du        
  48141 ****       132.5000 148.7500 123.2500 Du        
  48142 ****       132.5000 148.7500 123.5000 Du        
  48143 ****       132.5000 148.7500 123.7500 Du        
  48144 ****       132.5000 148.7500 124.0000 Du        
  48145 ****       132.5000 148.7500 124.2500 Du        
  48146 ****       132.5000 148.7500 124.5000 Du        
  48147 ****       132.5000 148.7500 124.7500 Du        
  48148 ****       132.5000 148.7500 125.0000 Du        
  48149 ****       132.5000 148.7500 125.2500 Du        
  48150 ****       132.5000 148.7500 125.5000 Du        
  48151 ****       132.5000 148.7500 125.7500 Du        
  48152 ****       132.5000 148.7500 126.0000 Du        
  48153 ****       132.5000 148.7500 130.0000 Du        
  48154 ****       132.5000 148.7500 130.2500 Du        
  48155 ****       132.5000 148.7500 130.5000 Du        
  48156 ****       132.5000 148.7500 130.7500 Du        
  48157 ****       132.5000 149.0000 122.2500 Du        
  48158 ****       132.5000 149.0000 122.5000 Du        
  48159 ****       132.5000 149.0000 122.7500 Du        
  48160 ****       132.5000 149.0000 123.0000 Du        
  48161 ****       132.5000 149.0000 123.2500 Du        
  48162 ****       132.5000 149.0000 123.5000 Du        
  48163 ****       132.5000 149.0000 123.7500 Du        
  48164 ****       132.5000 149.0000 124.0000 Du        
  48165 ****       132.5000 149.0000 124.2500 Du        
  48166 ****       132.5000 149.0000 124.5000 Du        
  48167 ****       132.5000 149.0000 124.7500 Du        
  48168 ****       132.5000 149.0000 125.0000 Du        
  48169 ****       132.5000 149.0000 125.2500 Du        
  48170 ****       132.5000 149.0000 125.5000 Du        
  48171 ****       132.5000 149.0000 125.7500 Du        
  48172 ****       132.5000 149.0000 126.0000 Du        
  48173 ****       132.5000 149.0000 126.2500 Du        
  48174 ****       132.5000 149.0000 130.0000 Du        
  48175 ****       132.5000 149.0000 130.2500 Du        
  48176 ****       132.5000 149.0000 130.5000 Du        
  48177 ****       132.5000 149.0000 130.7500 Du        
  48178 ****       132.5000 149.2500 122.5000 Du        
  48179 ****       132.5000 149.2500 122.7500 Du        
  48180 ****       132.5000 149.2500 123.0000 Du        
  48181 ****       132.5000 149.2500 123.2500 Du        
  48182 ****       132.5000 149.2500 123.5000 Du        
  48183 ****       132.5000 149.2500 123.7500 Du        
  48184 ****       132.5000 149.2500 124.0000 Du        
  48185 ****       132.5000 149.2500 124.2500 Du        
  48186 ****       132.5000 149.2500 124.5000 Du        
  48187 ****       132.5000 149.2500 124.7500 Du        
  48188 ****       132.5000 149.2500 125.0000 Du        
  48189 ****       132.5000 149.2500 125.2500 Du        
  48190 ****       132.5000 149.2500 125.5000 Du        
  48191 ****       132.5000 149.2500 125.7500 Du        
  48192 ****       132.5000 149.2500 126.0000 Du        
  48193 ****       132.5000 149.2500 126.2500 Du        
  48194 ****       132.5000 149.2500 130.0000 Du        
  48195 ****       132.5000 149.2500 130.2500 Du        
  48196 ****       132.5000 149.2500 130.5000 Du        
  48197 ****       132.5000 149.2500 130.7500 Du        
  48198 ****       132.5000 149.5000 122.7500 Du        
  48199 ****       132.5000 149.5000 123.0000 Du        
  48200 ****       132.5000 149.5000 123.2500 Du        
  48201 ****       132.5000 149.5000 123.5000 Du        
  48202 ****       132.5000 149.5000 123.7500 Du        
  48203 ****       132.5000 149.5000 124.0000 Du        
  48204 ****       132.5000 149.5000 124.2500 Du        
  48205 ****       132.5000 149.5000 124.5000 Du        
  48206 ****       132.5000 149.5000 124.7500 Du        
  48207 ****       132.5000 149.5000 125.0000 Du        
  48208 ****       132.5000 149.5000 125.2500 Du        
  48209 ****       132.5000 149.5000 125.5000 Du        
  48210 ****       132.5000 149.5000 125.7500 Du        
  48211 ****       132.5000 149.5000 126.0000 Du        
  48212 ****       132.5000 149.5000 126.2500 Du        
  48213 ****       132.5000 149.5000 130.2500 Du        
  48214 ****       132.5000 149.5000 130.5000 Du        
  48215 ****       132.5000 149.7500 122.7500 Du        
  48216 ****       132.5000 149.7500 123.0000 Du        
  48217 ****       132.5000 149.7500 123.2500 Du        
  48218 ****       132.5000 149.7500 123.5000 Du        
  48219 ****       132.5000 149.7500 123.7500 Du        
  48220 ****       132.5000 149.7500 124.0000 Du        
  48221 ****       132.5000 149.7500 124.2500 Du        
  48222 ****       132.5000 149.7500 124.5000 Du        
  48223 ****       132.5000 149.7500 124.7500 Du        
  48224 ****       132.5000 149.7500 125.0000 Du        
  48225 ****       132.5000 149.7500 125.2500 Du        
  48226 ****       132.5000 149.7500 125.5000 Du        
  48227 ****       132.5000 149.7500 125.7500 Du        
  48228 ****       132.5000 149.7500 126.0000 Du        
  48229 ****       132.5000 149.7500 126.2500 Du        
  48230 ****       132.5000 150.0000 123.0000 Du        
  48231 ****       132.5000 150.0000 123.2500 Du        
  48232 ****       132.5000 150.0000 123.5000 Du        
  48233 ****       132.5000 150.0000 123.7500 Du        
  48234 ****       132.5000 150.0000 124.0000 Du        
  48235 ****       132.5000 150.0000 124.2500 Du        
  48236 ****       132.5000 150.0000 124.5000 Du        
  48237 ****       132.5000 150.0000 124.7500 Du        
  48238 ****       132.5000 150.0000 125.0000 Du        
  48239 ****       132.5000 150.0000 125.2500 Du        
  48240 ****       132.5000 150.2500 123.2500 Du        
  48241 ****       132.5000 150.2500 123.5000 Du        
  48242 ****       132.5000 150.2500 123.7500 Du        
  48243 ****       132.5000 150.2500 124.0000 Du        
  48244 ****       132.5000 150.2500 124.2500 Du        
  48245 ****       132.5000 150.2500 124.5000 Du        
  48246 ****       132.5000 150.2500 124.7500 Du        
  48247 ****       132.5000 150.2500 125.0000 Du        
  48248 ****       132.5000 150.2500 125.2500 Du        
  48249 ****       132.5000 150.5000 124.0000 Du        
  48250 ****       132.5000 150.5000 124.2500 Du        
  48251 ****       132.5000 150.5000 124.5000 Du        
  48252 ****       132.5000 150.5000 124.7500 Du        
  48253 ****       132.5000 150.5000 125.0000 Du        
  48254 ****       132.5000 150.5000 125.2500 Du        
  48255 ****       132.5000 150.7500 124.2500 Du        
  48256 ****       132.5000 150.7500 124.7500 Du        
  48257 ****       132.5000 150.7500 125.0000 Du        
  48258 ****       132.5000 150.7500 125.2500 Du        
  48259 ****       132.5000 151.0000 125.0000 Du        
  48260 ****       132.5000 151.0000 125.2500 Du        
  48261 ****       132.5000 153.2500 128.7500 Du        
  48262 ****       132.5000 153.2500 129.0000 Du        
  48263 ****       132.5000 153.2500 129.2500 Du        
  48264 ****       132.5000 153.2500 146.0000 Du        
  48265 ****       132.5000 153.5000 128.5000 Du        
  48266 ****       132.5000 153.5000 128.7500 Du        
  48267 ****       132.5000 153.5000 129.0000 Du        
  48268 ****       132.5000 153.5000 129.2500 Du        
  48269 ****       132.5000 153.5000 129.5000 Du        
  48270 ****       132.5000 153.5000 145.5000 Du        
  48271 ****       132.5000 153.5000 145.7500 Du        
  48272 ****       132.5000 153.5000 146.0000 Du        
  48273 ****       132.5000 153.5000 146.2500 Du        
  48274 ****       132.5000 153.7500 128.5000 Du        
  48275 ****       132.5000 153.7500 128.7500 Du        
  48276 ****       132.5000 153.7500 129.0000 Du        
  48277 ****       132.5000 153.7500 129.2500 Du        
  48278 ****       132.5000 153.7500 129.5000 Du        
  48279 ****       132.5000 153.7500 145.7500 Du        
  48280 ****       132.5000 153.7500 146.0000 Du        
  48281 ****       132.5000 153.7500 146.2500 Du        
  48282 ****       132.5000 154.0000 128.7500 Du        
  48283 ****       132.5000 154.0000 129.0000 Du        
  48284 ****       132.5000 154.0000 129.2500 Du        
  48285 ****       132.5000 154.0000 145.7500 Du        
  48286 ****       132.5000 154.0000 146.0000 Du        
  48287 ****       132.5000 154.0000 146.2500 Du        
  48288 ****       132.5000 154.2500 126.7500 Du        
  48289 ****       132.5000 154.2500 146.0000 Du        
  48290 ****       132.5000 154.2500 146.2500 Du        
  48291 ****       132.5000 154.5000 126.5000 Du        
  48292 ****       132.5000 154.5000 126.7500 Du        
  48293 ****       132.5000 154.5000 127.0000 Du        
  48294 ****       132.5000 154.5000 146.2500 Du        
  48295 ****       132.5000 154.7500 126.2500 Du        
  48296 ****       132.5000 154.7500 126.5000 Du        
  48297 ****       132.5000 154.7500 126.7500 Du        
  48298 ****       132.5000 154.7500 127.0000 Du        
  48299 ****       132.5000 155.0000 126.0000 Du        
  48300 ****       132.5000 155.0000 126.2500 Du        
  48301 ****       132.5000 155.0000 126.5000 Du        
  48302 ****       132.5000 155.0000 126.7500 Du        
  48303 ****       132.5000 155.0000 127.0000 Du        
  48304 ****       132.5000 155.2500 125.7500 Du        
  48305 ****       132.5000 155.2500 126.0000 Du        
  48306 ****       132.5000 155.2500 126.2500 Du        
  48307 ****       132.5000 155.2500 126.5000 Du        
  48308 ****       132.5000 155.2500 126.7500 Du        
  48309 ****       132.5000 155.5000 125.5000 Du        
  48310 ****       132.5000 155.5000 125.7500 Du        
  48311 ****       132.5000 155.5000 126.0000 Du        
  48312 ****       132.5000 155.5000 126.2500 Du        
  48313 ****       132.5000 155.5000 126.5000 Du        
  48314 ****       132.5000 155.7500 125.2500 Du        
  48315 ****       132.5000 155.7500 125.5000 Du        
  48316 ****       132.5000 155.7500 125.7500 Du        
  48317 ****       132.5000 155.7500 126.0000 Du        
  48318 ****       132.5000 155.7500 126.2500 Du        
  48319 ****       132.5000 156.0000 125.0000 Du        
  48320 ****       132.5000 156.0000 125.2500 Du        
  48321 ****       132.5000 156.0000 125.5000 Du        
  48322 ****       132.5000 156.0000 125.7500 Du        
  48323 ****       132.5000 156.0000 126.0000 Du        
  48324 ****       132.5000 156.0000 126.2500 Du        
  48325 ****       132.5000 156.2500 125.0000 Du        
  48326 ****       132.5000 156.2500 125.2500 Du        
  48327 ****       132.5000 156.2500 125.5000 Du        
  48328 ****       132.5000 156.2500 125.7500 Du        
  48329 ****       132.5000 156.2500 126.0000 Du        
  48330 ****       132.5000 156.2500 126.2500 Du        
  48331 ****       132.5000 156.5000 117.5000 Du        
  48332 ****       132.5000 156.5000 117.7500 Du        
  48333 ****       132.5000 156.5000 125.0000 Du        
  48334 ****       132.5000 156.5000 125.2500 Du        
  48335 ****       132.5000 156.5000 125.5000 Du        
  48336 ****       132.5000 156.5000 125.7500 Du        
  48337 ****       132.5000 156.5000 126.0000 Du        
  48338 ****       132.5000 156.7500 117.2500 Du        
  48339 ****       132.5000 156.7500 117.5000 Du        
  48340 ****       132.5000 156.7500 117.7500 Du        
  48341 ****       132.5000 156.7500 118.0000 Du        
  48342 ****       132.5000 156.7500 125.2500 Du        
  48343 ****       132.5000 156.7500 125.5000 Du        
  48344 ****       132.5000 156.7500 125.7500 Du        
  48345 ****       132.5000 157.0000 117.0000 Du        
  48346 ****       132.5000 157.0000 117.2500 Du        
  48347 ****       132.5000 157.0000 117.5000 Du        
  48348 ****       132.5000 157.0000 117.7500 Du        
  48349 ****       132.5000 157.0000 118.0000 Du        
  48350 ****       132.5000 157.0000 118.2500 Du        
  48351 ****       132.5000 157.0000 139.7500 Du        
  48352 ****       132.5000 157.2500 116.7500 Du        
  48353 ****       132.5000 157.2500 117.0000 Du        
  48354 ****       132.5000 157.2500 117.2500 Du        
  48355 ****       132.5000 157.2500 117.5000 Du        
  48356 ****       132.5000 157.2500 117.7500 Du        
  48357 ****       132.5000 157.2500 118.0000 Du        
  48358 ****       132.5000 157.2500 118.2500 Du        
  48359 ****       132.5000 157.2500 139.7500 Du        
  48360 ****       132.5000 157.2500 140.0000 Du        
  48361 ****       132.5000 157.5000 116.5000 Du        
  48362 ****       132.5000 157.5000 116.7500 Du        
  48363 ****       132.5000 157.5000 117.0000 Du        
  48364 ****       132.5000 157.5000 117.2500 Du        
  48365 ****       132.5000 157.5000 117.5000 Du        
  48366 ****       132.5000 157.5000 117.7500 Du        
  48367 ****       132.5000 157.5000 118.0000 Du        
  48368 ****       132.5000 157.5000 139.5000 Du        
  48369 ****       132.5000 157.5000 139.7500 Du        
  48370 ****       132.5000 157.5000 140.0000 Du        
  48371 ****       132.5000 157.5000 140.2500 Du        
  48372 ****       132.5000 157.5000 140.5000 Du        
  48373 ****       132.5000 157.5000 140.7500 Du        
  48374 ****       132.5000 157.7500 116.5000 Du        
  48375 ****       132.5000 157.7500 116.7500 Du        
  48376 ****       132.5000 157.7500 117.0000 Du        
  48377 ****       132.5000 157.7500 117.2500 Du        
  48378 ****       132.5000 157.7500 117.5000 Du        
  48379 ****       132.5000 157.7500 117.7500 Du        
  48380 ****       132.5000 157.7500 139.2500 Du        
  48381 ****       132.5000 157.7500 139.5000 Du        
  48382 ****       132.5000 157.7500 139.7500 Du        
  48383 ****       132.5000 157.7500 140.0000 Du        
  48384 ****       132.5000 157.7500 140.2500 Du        
  48385 ****       132.5000 157.7500 140.5000 Du        
  48386 ****       132.5000 157.7500 140.7500 Du        
  48387 ****       132.5000 157.7500 141.0000 Du        
  48388 ****       132.5000 157.7500 141.2500 Du        
  48389 ****       132.5000 158.0000 116.5000 Du        
  48390 ****       132.5000 158.0000 116.7500 Du        
  48391 ****       132.5000 158.0000 138.5000 Du        
  48392 ****       132.5000 158.0000 138.7500 Du        
  48393 ****       132.5000 158.0000 139.0000 Du        
  48394 ****       132.5000 158.0000 139.2500 Du        
  48395 ****       132.5000 158.0000 139.5000 Du        
  48396 ****       132.5000 158.0000 139.7500 Du        
  48397 ****       132.5000 158.0000 140.0000 Du        
  48398 ****       132.5000 158.0000 140.2500 Du        
  48399 ****       132.5000 158.0000 140.5000 Du        
  48400 ****       132.5000 158.0000 140.7500 Du        
  48401 ****       132.5000 158.0000 141.0000 Du        
  48402 ****       132.5000 158.0000 141.2500 Du        
  48403 ****       132.5000 158.0000 141.5000 Du        
  48404 ****       132.5000 158.0000 141.7500 Du        
  48405 ****       132.5000 158.2500 137.7500 Du        
  48406 ****       132.5000 158.2500 138.0000 Du        
  48407 ****       132.5000 158.2500 138.2500 Du        
  48408 ****       132.5000 158.2500 138.5000 Du        
  48409 ****       132.5000 158.2500 138.7500 Du        
  48410 ****       132.5000 158.2500 139.0000 Du        
  48411 ****       132.5000 158.2500 139.2500 Du        
  48412 ****       132.5000 158.2500 139.5000 Du        
  48413 ****       132.5000 158.2500 139.7500 Du        
  48414 ****       132.5000 158.2500 140.0000 Du        
  48415 ****       132.5000 158.2500 140.2500 Du        
  48416 ****       132.5000 158.2500 140.5000 Du        
  48417 ****       132.5000 158.2500 140.7500 Du        
  48418 ****       132.5000 158.2500 141.0000 Du        
  48419 ****       132.5000 158.2500 141.2500 Du        
  48420 ****       132.5000 158.2500 141.5000 Du        
  48421 ****       132.5000 158.2500 141.7500 Du        
  48422 ****       132.5000 158.2500 142.0000 Du        
  48423 ****       132.5000 158.5000 137.0000 Du        
  48424 ****       132.5000 158.5000 137.2500 Du        
  48425 ****       132.5000 158.5000 137.5000 Du        
  48426 ****       132.5000 158.5000 137.7500 Du        
  48427 ****       132.5000 158.5000 138.0000 Du        
  48428 ****       132.5000 158.5000 138.2500 Du        
  48429 ****       132.5000 158.5000 138.5000 Du        
  48430 ****       132.5000 158.5000 138.7500 Du        
  48431 ****       132.5000 158.5000 139.0000 Du        
  48432 ****       132.5000 158.5000 139.2500 Du        
  48433 ****       132.5000 158.5000 139.5000 Du        
  48434 ****       132.5000 158.5000 139.7500 Du        
  48435 ****       132.5000 158.5000 140.0000 Du        
  48436 ****       132.5000 158.5000 140.2500 Du        
  48437 ****       132.5000 158.5000 140.5000 Du        
  48438 ****       132.5000 158.5000 140.7500 Du        
  48439 ****       132.5000 158.5000 141.0000 Du        
  48440 ****       132.5000 158.5000 141.2500 Du        
  48441 ****       132.5000 158.5000 141.5000 Du        
  48442 ****       132.5000 158.5000 141.7500 Du        
  48443 ****       132.5000 158.7500 137.0000 Du        
  48444 ****       132.5000 158.7500 137.2500 Du        
  48445 ****       132.5000 158.7500 137.5000 Du        
  48446 ****       132.5000 158.7500 137.7500 Du        
  48447 ****       132.5000 158.7500 138.0000 Du        
  48448 ****       132.5000 158.7500 138.2500 Du        
  48449 ****       132.5000 158.7500 138.5000 Du        
  48450 ****       132.5000 158.7500 138.7500 Du        
  48451 ****       132.5000 158.7500 139.0000 Du        
  48452 ****       132.5000 158.7500 139.2500 Du        
  48453 ****       132.5000 158.7500 139.5000 Du        
  48454 ****       132.5000 158.7500 139.7500 Du        
  48455 ****       132.5000 158.7500 140.0000 Du        
  48456 ****       132.5000 158.7500 140.2500 Du        
  48457 ****       132.5000 158.7500 140.5000 Du        
  48458 ****       132.5000 158.7500 140.7500 Du        
  48459 ****       132.5000 158.7500 141.0000 Du        
  48460 ****       132.5000 158.7500 141.2500 Du        
  48461 ****       132.5000 158.7500 141.5000 Du        
  48462 ****       132.5000 158.7500 141.7500 Du        
  48463 ****       132.5000 159.0000 137.0000 Du        
  48464 ****       132.5000 159.0000 137.2500 Du        
  48465 ****       132.5000 159.0000 137.5000 Du        
  48466 ****       132.5000 159.0000 137.7500 Du        
  48467 ****       132.5000 159.0000 138.0000 Du        
  48468 ****       132.5000 159.0000 138.2500 Du        
  48469 ****       132.5000 159.0000 138.5000 Du        
  48470 ****       132.5000 159.0000 138.7500 Du        
  48471 ****       132.5000 159.0000 139.0000 Du        
  48472 ****       132.5000 159.0000 139.2500 Du        
  48473 ****       132.5000 159.0000 139.5000 Du        
  48474 ****       132.5000 159.0000 139.7500 Du        
  48475 ****       132.5000 159.0000 140.0000 Du        
  48476 ****       132.5000 159.0000 140.2500 Du        
  48477 ****       132.5000 159.0000 140.5000 Du        
  48478 ****       132.5000 159.0000 140.7500 Du        
  48479 ****       132.5000 159.0000 141.0000 Du        
  48480 ****       132.5000 159.0000 141.2500 Du        
  48481 ****       132.5000 159.0000 141.5000 Du        
  48482 ****       132.5000 159.2500 137.0000 Du        
  48483 ****       132.5000 159.2500 137.2500 Du        
  48484 ****       132.5000 159.2500 137.5000 Du        
  48485 ****       132.5000 159.2500 137.7500 Du        
  48486 ****       132.5000 159.2500 138.0000 Du        
  48487 ****       132.5000 159.2500 138.2500 Du        
  48488 ****       132.5000 159.2500 138.5000 Du        
  48489 ****       132.5000 159.2500 138.7500 Du        
  48490 ****       132.5000 159.2500 139.0000 Du        
  48491 ****       132.5000 159.2500 139.2500 Du        
  48492 ****       132.5000 159.2500 139.5000 Du        
  48493 ****       132.5000 159.2500 139.7500 Du        
  48494 ****       132.5000 159.2500 140.0000 Du        
  48495 ****       132.5000 159.2500 140.2500 Du        
  48496 ****       132.5000 159.2500 140.5000 Du        
  48497 ****       132.5000 159.2500 140.7500 Du        
  48498 ****       132.5000 159.2500 141.0000 Du        
  48499 ****       132.5000 159.5000 137.0000 Du        
  48500 ****       132.5000 159.5000 137.2500 Du        
  48501 ****       132.5000 159.5000 137.5000 Du        
  48502 ****       132.5000 159.5000 137.7500 Du        
  48503 ****       132.5000 159.5000 138.0000 Du        
  48504 ****       132.5000 159.5000 138.2500 Du        
  48505 ****       132.5000 159.5000 138.5000 Du        
  48506 ****       132.5000 159.5000 138.7500 Du        
  48507 ****       132.5000 159.5000 139.0000 Du        
  48508 ****       132.5000 159.5000 139.2500 Du        
  48509 ****       132.5000 159.5000 139.5000 Du        
  48510 ****       132.5000 159.7500 137.0000 Du        
  48511 ****       132.5000 159.7500 137.2500 Du        
  48512 ****       132.5000 159.7500 137.5000 Du        
  48513 ****       132.5000 159.7500 137.7500 Du        
  48514 ****       132.5000 159.7500 138.0000 Du        
  48515 ****       132.5000 159.7500 138.2500 Du        
  48516 ****       132.5000 159.7500 138.5000 Du        
  48517 ****       132.5000 159.7500 138.7500 Du        
  48518 ****       132.5000 159.7500 139.0000 Du        
  48519 ****       132.5000 160.0000 137.2500 Du        
  48520 ****       132.5000 160.0000 137.5000 Du        
  48521 ****       132.5000 160.0000 137.7500 Du        
  48522 ****       132.5000 160.0000 138.0000 Du        
  48523 ****       132.5000 160.0000 138.2500 Du        
  48524 ****       132.5000 160.0000 138.5000 Du        
  48525 ****       132.7500 133.0000 125.0000 Du        
  48526 ****       132.7500 133.0000 125.2500 Du        
  48527 ****       132.7500 133.0000 125.5000 Du        
  48528 ****       132.7500 133.0000 125.7500 Du        
  48529 ****       132.7500 133.0000 126.0000 Du        
  48530 ****       132.7500 133.0000 126.2500 Du        
  48531 ****       132.7500 133.0000 126.5000 Du        
  48532 ****       132.7500 133.0000 126.7500 Du        
  48533 ****       132.7500 133.0000 127.0000 Du        
  48534 ****       132.7500 133.0000 127.2500 Du        
  48535 ****       132.7500 133.2500 125.0000 Du        
  48536 ****       132.7500 133.2500 125.2500 Du        
  48537 ****       132.7500 133.2500 125.5000 Du        
  48538 ****       132.7500 133.2500 125.7500 Du        
  48539 ****       132.7500 133.2500 126.0000 Du        
  48540 ****       132.7500 133.2500 126.2500 Du        
  48541 ****       132.7500 133.2500 126.5000 Du        
  48542 ****       132.7500 133.2500 126.7500 Du        
  48543 ****       132.7500 133.2500 127.0000 Du        
  48544 ****       132.7500 133.5000 125.0000 Du        
  48545 ****       132.7500 133.5000 125.2500 Du        
  48546 ****       132.7500 133.5000 125.5000 Du        
  48547 ****       132.7500 133.5000 125.7500 Du        
  48548 ****       132.7500 133.5000 126.0000 Du        
  48549 ****       132.7500 133.5000 126.2500 Du        
  48550 ****       132.7500 133.5000 126.5000 Du        
  48551 ****       132.7500 133.5000 126.7500 Du        
  48552 ****       132.7500 133.5000 127.0000 Du        
  48553 ****       132.7500 133.7500 125.0000 Du        
  48554 ****       132.7500 133.7500 125.2500 Du        
  48555 ****       132.7500 133.7500 125.5000 Du        
  48556 ****       132.7500 133.7500 125.7500 Du        
  48557 ****       132.7500 133.7500 126.0000 Du        
  48558 ****       132.7500 133.7500 126.2500 Du        
  48559 ****       132.7500 133.7500 126.5000 Du        
  48560 ****       132.7500 134.0000 125.2500 Du        
  48561 ****       132.7500 134.0000 125.5000 Du        
  48562 ****       132.7500 134.0000 125.7500 Du        
  48563 ****       132.7500 134.0000 126.0000 Du        
  48564 ****       132.7500 145.7500 130.2500 Du        
  48565 ****       132.7500 145.7500 130.5000 Du        
  48566 ****       132.7500 145.7500 130.7500 Du        
  48567 ****       132.7500 145.7500 131.0000 Du        
  48568 ****       132.7500 146.0000 130.2500 Du        
  48569 ****       132.7500 146.0000 130.5000 Du        
  48570 ****       132.7500 146.0000 130.7500 Du        
  48571 ****       132.7500 146.0000 131.0000 Du        
  48572 ****       132.7500 146.2500 130.2500 Du        
  48573 ****       132.7500 146.2500 130.5000 Du        
  48574 ****       132.7500 146.2500 130.7500 Du        
  48575 ****       132.7500 146.2500 131.0000 Du        
  48576 ****       132.7500 146.5000 130.2500 Du        
  48577 ****       132.7500 146.5000 130.5000 Du        
  48578 ****       132.7500 146.5000 130.7500 Du        
  48579 ****       132.7500 146.5000 131.0000 Du        
  48580 ****       132.7500 146.7500 130.2500 Du        
  48581 ****       132.7500 146.7500 130.5000 Du        
  48582 ****       132.7500 146.7500 130.7500 Du        
  48583 ****       132.7500 146.7500 131.0000 Du        
  48584 ****       132.7500 147.0000 130.2500 Du        
  48585 ****       132.7500 147.0000 130.5000 Du        
  48586 ****       132.7500 147.0000 130.7500 Du        
  48587 ****       132.7500 147.0000 131.0000 Du        
  48588 ****       132.7500 147.2500 120.2500 Du        
  48589 ****       132.7500 147.2500 120.5000 Du        
  48590 ****       132.7500 147.2500 120.7500 Du        
  48591 ****       132.7500 147.2500 121.0000 Du        
  48592 ****       132.7500 147.2500 121.2500 Du        
  48593 ****       132.7500 147.2500 121.5000 Du        
  48594 ****       132.7500 147.2500 121.7500 Du        
  48595 ****       132.7500 147.2500 122.0000 Du        
  48596 ****       132.7500 147.2500 122.2500 Du        
  48597 ****       132.7500 147.2500 122.5000 Du        
  48598 ****       132.7500 147.2500 122.7500 Du        
  48599 ****       132.7500 147.2500 123.0000 Du        
  48600 ****       132.7500 147.2500 123.2500 Du        
  48601 ****       132.7500 147.2500 130.2500 Du        
  48602 ****       132.7500 147.2500 130.5000 Du        
  48603 ****       132.7500 147.2500 130.7500 Du        
  48604 ****       132.7500 147.2500 131.0000 Du        
  48605 ****       132.7500 147.5000 120.2500 Du        
  48606 ****       132.7500 147.5000 120.5000 Du        
  48607 ****       132.7500 147.5000 120.7500 Du        
  48608 ****       132.7500 147.5000 121.0000 Du        
  48609 ****       132.7500 147.5000 121.2500 Du        
  48610 ****       132.7500 147.5000 121.5000 Du        
  48611 ****       132.7500 147.5000 121.7500 Du        
  48612 ****       132.7500 147.5000 122.0000 Du        
  48613 ****       132.7500 147.5000 122.2500 Du        
  48614 ****       132.7500 147.5000 122.5000 Du        
  48615 ****       132.7500 147.5000 122.7500 Du        
  48616 ****       132.7500 147.5000 123.0000 Du        
  48617 ****       132.7500 147.5000 123.2500 Du        
  48618 ****       132.7500 147.5000 123.5000 Du        
  48619 ****       132.7500 147.5000 123.7500 Du        
  48620 ****       132.7500 147.5000 130.2500 Du        
  48621 ****       132.7500 147.5000 130.5000 Du        
  48622 ****       132.7500 147.5000 130.7500 Du        
  48623 ****       132.7500 147.7500 120.5000 Du        
  48624 ****       132.7500 147.7500 120.7500 Du        
  48625 ****       132.7500 147.7500 121.0000 Du        
  48626 ****       132.7500 147.7500 121.2500 Du        
  48627 ****       132.7500 147.7500 121.5000 Du        
  48628 ****       132.7500 147.7500 121.7500 Du        
  48629 ****       132.7500 147.7500 122.0000 Du        
  48630 ****       132.7500 147.7500 122.2500 Du        
  48631 ****       132.7500 147.7500 122.5000 Du        
  48632 ****       132.7500 147.7500 122.7500 Du        
  48633 ****       132.7500 147.7500 123.0000 Du        
  48634 ****       132.7500 147.7500 123.2500 Du        
  48635 ****       132.7500 147.7500 123.5000 Du        
  48636 ****       132.7500 147.7500 123.7500 Du        
  48637 ****       132.7500 147.7500 124.0000 Du        
  48638 ****       132.7500 147.7500 124.2500 Du        
  48639 ****       132.7500 147.7500 124.5000 Du        
  48640 ****       132.7500 147.7500 130.2500 Du        
  48641 ****       132.7500 147.7500 130.5000 Du        
  48642 ****       132.7500 147.7500 130.7500 Du        
  48643 ****       132.7500 148.0000 121.0000 Du        
  48644 ****       132.7500 148.0000 121.2500 Du        
  48645 ****       132.7500 148.0000 121.5000 Du        
  48646 ****       132.7500 148.0000 121.7500 Du        
  48647 ****       132.7500 148.0000 122.0000 Du        
  48648 ****       132.7500 148.0000 122.2500 Du        
  48649 ****       132.7500 148.0000 122.5000 Du        
  48650 ****       132.7500 148.0000 122.7500 Du        
  48651 ****       132.7500 148.0000 123.0000 Du        
  48652 ****       132.7500 148.0000 123.2500 Du        
  48653 ****       132.7500 148.0000 123.5000 Du        
  48654 ****       132.7500 148.0000 123.7500 Du        
  48655 ****       132.7500 148.0000 124.0000 Du        
  48656 ****       132.7500 148.0000 124.2500 Du        
  48657 ****       132.7500 148.0000 124.5000 Du        
  48658 ****       132.7500 148.0000 124.7500 Du        
  48659 ****       132.7500 148.0000 125.0000 Du        
  48660 ****       132.7500 148.0000 125.2500 Du        
  48661 ****       132.7500 148.0000 125.5000 Du        
  48662 ****       132.7500 148.0000 130.2500 Du        
  48663 ****       132.7500 148.0000 130.5000 Du        
  48664 ****       132.7500 148.0000 130.7500 Du        
  48665 ****       132.7500 148.2500 121.7500 Du        
  48666 ****       132.7500 148.2500 122.0000 Du        
  48667 ****       132.7500 148.2500 122.2500 Du        
  48668 ****       132.7500 148.2500 122.5000 Du        
  48669 ****       132.7500 148.2500 122.7500 Du        
  48670 ****       132.7500 148.2500 123.0000 Du        
  48671 ****       132.7500 148.2500 123.2500 Du        
  48672 ****       132.7500 148.2500 123.5000 Du        
  48673 ****       132.7500 148.2500 123.7500 Du        
  48674 ****       132.7500 148.2500 124.0000 Du        
  48675 ****       132.7500 148.2500 124.2500 Du        
  48676 ****       132.7500 148.2500 124.5000 Du        
  48677 ****       132.7500 148.2500 124.7500 Du        
  48678 ****       132.7500 148.2500 125.0000 Du        
  48679 ****       132.7500 148.2500 125.2500 Du        
  48680 ****       132.7500 148.2500 125.5000 Du        
  48681 ****       132.7500 148.2500 125.7500 Du        
  48682 ****       132.7500 148.2500 126.0000 Du        
  48683 ****       132.7500 148.2500 130.2500 Du        
  48684 ****       132.7500 148.2500 130.5000 Du        
  48685 ****       132.7500 148.2500 130.7500 Du        
  48686 ****       132.7500 148.5000 122.2500 Du        
  48687 ****       132.7500 148.5000 122.5000 Du        
  48688 ****       132.7500 148.5000 122.7500 Du        
  48689 ****       132.7500 148.5000 123.0000 Du        
  48690 ****       132.7500 148.5000 123.2500 Du        
  48691 ****       132.7500 148.5000 123.5000 Du        
  48692 ****       132.7500 148.5000 123.7500 Du        
  48693 ****       132.7500 148.5000 124.0000 Du        
  48694 ****       132.7500 148.5000 124.2500 Du        
  48695 ****       132.7500 148.5000 124.5000 Du        
  48696 ****       132.7500 148.5000 124.7500 Du        
  48697 ****       132.7500 148.5000 125.0000 Du        
  48698 ****       132.7500 148.5000 125.2500 Du        
  48699 ****       132.7500 148.5000 125.5000 Du        
  48700 ****       132.7500 148.5000 125.7500 Du        
  48701 ****       132.7500 148.5000 126.0000 Du        
  48702 ****       132.7500 148.5000 130.2500 Du        
  48703 ****       132.7500 148.5000 130.5000 Du        
  48704 ****       132.7500 148.5000 130.7500 Du        
  48705 ****       132.7500 148.7500 122.5000 Du        
  48706 ****       132.7500 148.7500 122.7500 Du        
  48707 ****       132.7500 148.7500 123.0000 Du        
  48708 ****       132.7500 148.7500 123.2500 Du        
  48709 ****       132.7500 148.7500 123.5000 Du        
  48710 ****       132.7500 148.7500 123.7500 Du        
  48711 ****       132.7500 148.7500 124.0000 Du        
  48712 ****       132.7500 148.7500 124.2500 Du        
  48713 ****       132.7500 148.7500 124.5000 Du        
  48714 ****       132.7500 148.7500 124.7500 Du        
  48715 ****       132.7500 148.7500 125.0000 Du        
  48716 ****       132.7500 148.7500 125.2500 Du        
  48717 ****       132.7500 148.7500 125.5000 Du        
  48718 ****       132.7500 148.7500 125.7500 Du        
  48719 ****       132.7500 148.7500 126.0000 Du        
  48720 ****       132.7500 148.7500 130.2500 Du        
  48721 ****       132.7500 148.7500 130.5000 Du        
  48722 ****       132.7500 148.7500 130.7500 Du        
  48723 ****       132.7500 149.0000 122.7500 Du        
  48724 ****       132.7500 149.0000 123.0000 Du        
  48725 ****       132.7500 149.0000 123.2500 Du        
  48726 ****       132.7500 149.0000 123.5000 Du        
  48727 ****       132.7500 149.0000 123.7500 Du        
  48728 ****       132.7500 149.0000 124.0000 Du        
  48729 ****       132.7500 149.0000 124.2500 Du        
  48730 ****       132.7500 149.0000 124.5000 Du        
  48731 ****       132.7500 149.0000 124.7500 Du        
  48732 ****       132.7500 149.0000 125.0000 Du        
  48733 ****       132.7500 149.0000 125.2500 Du        
  48734 ****       132.7500 149.0000 125.5000 Du        
  48735 ****       132.7500 149.0000 125.7500 Du        
  48736 ****       132.7500 149.0000 126.0000 Du        
  48737 ****       132.7500 149.0000 126.2500 Du        
  48738 ****       132.7500 149.0000 130.2500 Du        
  48739 ****       132.7500 149.0000 130.5000 Du        
  48740 ****       132.7500 149.0000 130.7500 Du        
  48741 ****       132.7500 149.2500 123.0000 Du        
  48742 ****       132.7500 149.2500 123.2500 Du        
  48743 ****       132.7500 149.2500 123.5000 Du        
  48744 ****       132.7500 149.2500 123.7500 Du        
  48745 ****       132.7500 149.2500 124.0000 Du        
  48746 ****       132.7500 149.2500 124.2500 Du        
  48747 ****       132.7500 149.2500 124.5000 Du        
  48748 ****       132.7500 149.2500 124.7500 Du        
  48749 ****       132.7500 149.2500 125.0000 Du        
  48750 ****       132.7500 149.2500 125.2500 Du        
  48751 ****       132.7500 149.2500 125.5000 Du        
  48752 ****       132.7500 149.2500 125.7500 Du        
  48753 ****       132.7500 149.2500 126.0000 Du        
  48754 ****       132.7500 149.2500 126.2500 Du        
  48755 ****       132.7500 149.2500 130.5000 Du        
  48756 ****       132.7500 149.2500 130.7500 Du        
  48757 ****       132.7500 149.5000 123.2500 Du        
  48758 ****       132.7500 149.5000 123.5000 Du        
  48759 ****       132.7500 149.5000 123.7500 Du        
  48760 ****       132.7500 149.5000 124.0000 Du        
  48761 ****       132.7500 149.5000 124.2500 Du        
  48762 ****       132.7500 149.5000 124.5000 Du        
  48763 ****       132.7500 149.5000 124.7500 Du        
  48764 ****       132.7500 149.5000 125.0000 Du        
  48765 ****       132.7500 149.5000 125.2500 Du        
  48766 ****       132.7500 149.5000 125.5000 Du        
  48767 ****       132.7500 149.5000 125.7500 Du        
  48768 ****       132.7500 149.5000 126.0000 Du        
  48769 ****       132.7500 149.5000 126.2500 Du        
  48770 ****       132.7500 149.7500 123.7500 Du        
  48771 ****       132.7500 149.7500 124.0000 Du        
  48772 ****       132.7500 149.7500 124.2500 Du        
  48773 ****       132.7500 149.7500 124.5000 Du        
  48774 ****       132.7500 149.7500 124.7500 Du        
  48775 ****       132.7500 149.7500 125.0000 Du        
  48776 ****       132.7500 149.7500 125.2500 Du        
  48777 ****       132.7500 149.7500 125.5000 Du        
  48778 ****       132.7500 149.7500 125.7500 Du        
  48779 ****       132.7500 149.7500 126.0000 Du        
  48780 ****       132.7500 149.7500 126.2500 Du        
  48781 ****       132.7500 150.0000 124.0000 Du        
  48782 ****       132.7500 150.0000 124.2500 Du        
  48783 ****       132.7500 150.0000 124.5000 Du        
  48784 ****       132.7500 150.0000 124.7500 Du        
  48785 ****       132.7500 150.0000 125.0000 Du        
  48786 ****       132.7500 150.0000 125.2500 Du        
  48787 ****       132.7500 150.0000 125.5000 Du        
  48788 ****       132.7500 150.0000 125.7500 Du        
  48789 ****       132.7500 150.0000 126.0000 Du        
  48790 ****       132.7500 150.0000 126.2500 Du        
  48791 ****       132.7500 150.2500 124.2500 Du        
  48792 ****       132.7500 150.2500 124.5000 Du        
  48793 ****       132.7500 150.2500 124.7500 Du        
  48794 ****       132.7500 150.2500 125.0000 Du        
  48795 ****       132.7500 150.2500 125.2500 Du        
  48796 ****       132.7500 150.2500 125.5000 Du        
  48797 ****       132.7500 150.2500 125.7500 Du        
  48798 ****       132.7500 150.2500 126.0000 Du        
  48799 ****       132.7500 150.2500 126.2500 Du        
  48800 ****       132.7500 150.5000 124.5000 Du        
  48801 ****       132.7500 150.5000 124.7500 Du        
  48802 ****       132.7500 150.5000 125.0000 Du        
  48803 ****       132.7500 150.5000 125.2500 Du        
  48804 ****       132.7500 150.5000 125.5000 Du        
  48805 ****       132.7500 150.5000 125.7500 Du        
  48806 ****       132.7500 150.5000 126.0000 Du        
  48807 ****       132.7500 150.7500 124.7500 Du        
  48808 ****       132.7500 150.7500 125.0000 Du        
  48809 ****       132.7500 150.7500 125.2500 Du        
  48810 ****       132.7500 150.7500 125.5000 Du        
  48811 ****       132.7500 150.7500 125.7500 Du        
  48812 ****       132.7500 150.7500 126.0000 Du        
  48813 ****       132.7500 151.0000 124.7500 Du        
  48814 ****       132.7500 151.0000 125.0000 Du        
  48815 ****       132.7500 151.0000 125.2500 Du        
  48816 ****       132.7500 151.0000 125.5000 Du        
  48817 ****       132.7500 151.0000 125.7500 Du        
  48818 ****       132.7500 151.0000 126.0000 Du        
  48819 ****       132.7500 151.2500 125.2500 Du        
  48820 ****       132.7500 151.2500 125.5000 Du        
  48821 ****       132.7500 151.2500 125.7500 Du        
  48822 ****       132.7500 151.2500 126.0000 Du        
  48823 ****       132.7500 151.5000 125.0000 Du        
  48824 ****       132.7500 151.5000 125.2500 Du        
  48825 ****       132.7500 151.5000 125.5000 Du        
  48826 ****       132.7500 151.5000 125.7500 Du        
  48827 ****       132.7500 151.7500 125.2500 Du        
  48828 ****       132.7500 151.7500 125.5000 Du        
  48829 ****       132.7500 151.7500 125.7500 Du        
  48830 ****       132.7500 152.0000 125.2500 Du        
  48831 ****       132.7500 152.0000 125.7500 Du        
  48832 ****       132.7500 152.2500 126.0000 Du        
  48833 ****       132.7500 152.5000 125.7500 Du        
  48834 ****       132.7500 152.5000 126.0000 Du        
  48835 ****       132.7500 153.5000 126.7500 Du        
  48836 ****       132.7500 153.5000 127.0000 Du        
  48837 ****       132.7500 153.5000 128.5000 Du        
  48838 ****       132.7500 153.5000 128.7500 Du        
  48839 ****       132.7500 153.5000 129.0000 Du        
  48840 ****       132.7500 153.5000 129.2500 Du        
  48841 ****       132.7500 153.5000 145.7500 Du        
  48842 ****       132.7500 153.5000 146.0000 Du        
  48843 ****       132.7500 153.5000 146.2500 Du        
  48844 ****       132.7500 153.7500 126.7500 Du        
  48845 ****       132.7500 153.7500 127.0000 Du        
  48846 ****       132.7500 153.7500 127.2500 Du        
  48847 ****       132.7500 153.7500 128.5000 Du        
  48848 ****       132.7500 153.7500 128.7500 Du        
  48849 ****       132.7500 153.7500 129.0000 Du        
  48850 ****       132.7500 153.7500 129.2500 Du        
  48851 ****       132.7500 153.7500 146.0000 Du        
  48852 ****       132.7500 153.7500 146.2500 Du        
  48853 ****       132.7500 153.7500 146.5000 Du        
  48854 ****       132.7500 154.0000 126.5000 Du        
  48855 ****       132.7500 154.0000 126.7500 Du        
  48856 ****       132.7500 154.0000 127.0000 Du        
  48857 ****       132.7500 154.0000 146.0000 Du        
  48858 ****       132.7500 154.0000 146.2500 Du        
  48859 ****       132.7500 154.0000 146.5000 Du        
  48860 ****       132.7500 154.2500 126.5000 Du        
  48861 ****       132.7500 154.2500 126.7500 Du        
  48862 ****       132.7500 154.2500 127.0000 Du        
  48863 ****       132.7500 154.2500 146.2500 Du        
  48864 ****       132.7500 154.5000 126.2500 Du        
  48865 ****       132.7500 154.5000 126.5000 Du        
  48866 ****       132.7500 154.5000 126.7500 Du        
  48867 ****       132.7500 154.5000 127.0000 Du        
  48868 ****       132.7500 154.5000 146.5000 Du        
  48869 ****       132.7500 154.5000 146.7500 Du        
  48870 ****       132.7500 154.7500 126.0000 Du        
  48871 ****       132.7500 154.7500 126.2500 Du        
  48872 ****       132.7500 154.7500 126.5000 Du        
  48873 ****       132.7500 154.7500 126.7500 Du        
  48874 ****       132.7500 154.7500 127.0000 Du        
  48875 ****       132.7500 154.7500 146.7500 Du        
  48876 ****       132.7500 155.0000 125.7500 Du        
  48877 ****       132.7500 155.0000 126.0000 Du        
  48878 ****       132.7500 155.0000 126.2500 Du        
  48879 ****       132.7500 155.0000 126.5000 Du        
  48880 ****       132.7500 155.0000 126.7500 Du        
  48881 ****       132.7500 155.2500 125.5000 Du        
  48882 ****       132.7500 155.2500 125.7500 Du        
  48883 ****       132.7500 155.2500 126.0000 Du        
  48884 ****       132.7500 155.2500 126.2500 Du        
  48885 ****       132.7500 155.2500 126.5000 Du        
  48886 ****       132.7500 155.5000 125.2500 Du        
  48887 ****       132.7500 155.5000 125.5000 Du        
  48888 ****       132.7500 155.5000 125.7500 Du        
  48889 ****       132.7500 155.5000 126.0000 Du        
  48890 ****       132.7500 155.5000 126.2500 Du        
  48891 ****       132.7500 155.5000 126.5000 Du        
  48892 ****       132.7500 155.7500 125.0000 Du        
  48893 ****       132.7500 155.7500 125.2500 Du        
  48894 ****       132.7500 155.7500 125.5000 Du        
  48895 ****       132.7500 155.7500 125.7500 Du        
  48896 ****       132.7500 155.7500 126.0000 Du        
  48897 ****       132.7500 155.7500 126.2500 Du        
  48898 ****       132.7500 156.0000 124.7500 Du        
  48899 ****       132.7500 156.0000 125.0000 Du        
  48900 ****       132.7500 156.0000 125.2500 Du        
  48901 ****       132.7500 156.0000 125.5000 Du        
  48902 ****       132.7500 156.0000 125.7500 Du        
  48903 ****       132.7500 156.0000 126.0000 Du        
  48904 ****       132.7500 156.0000 126.2500 Du        
  48905 ****       132.7500 156.2500 124.7500 Du        
  48906 ****       132.7500 156.2500 125.0000 Du        
  48907 ****       132.7500 156.2500 125.2500 Du        
  48908 ****       132.7500 156.2500 125.5000 Du        
  48909 ****       132.7500 156.2500 125.7500 Du        
  48910 ****       132.7500 156.2500 126.0000 Du        
  48911 ****       132.7500 156.5000 117.5000 Du        
  48912 ****       132.7500 156.5000 117.7500 Du        
  48913 ****       132.7500 156.5000 124.7500 Du        
  48914 ****       132.7500 156.5000 125.0000 Du        
  48915 ****       132.7500 156.5000 125.2500 Du        
  48916 ****       132.7500 156.5000 125.5000 Du        
  48917 ****       132.7500 156.5000 125.7500 Du        
  48918 ****       132.7500 156.5000 126.0000 Du        
  48919 ****       132.7500 156.7500 117.2500 Du        
  48920 ****       132.7500 156.7500 117.5000 Du        
  48921 ****       132.7500 156.7500 117.7500 Du        
  48922 ****       132.7500 156.7500 118.0000 Du        
  48923 ****       132.7500 156.7500 118.2500 Du        
  48924 ****       132.7500 156.7500 125.0000 Du        
  48925 ****       132.7500 156.7500 125.2500 Du        
  48926 ****       132.7500 156.7500 125.5000 Du        
  48927 ****       132.7500 156.7500 125.7500 Du        
  48928 ****       132.7500 157.0000 117.0000 Du        
  48929 ****       132.7500 157.0000 117.2500 Du        
  48930 ****       132.7500 157.0000 117.5000 Du        
  48931 ****       132.7500 157.0000 117.7500 Du        
  48932 ****       132.7500 157.0000 118.0000 Du        
  48933 ****       132.7500 157.0000 118.2500 Du        
  48934 ****       132.7500 157.2500 116.7500 Du        
  48935 ****       132.7500 157.2500 117.0000 Du        
  48936 ****       132.7500 157.2500 117.2500 Du        
  48937 ****       132.7500 157.2500 117.5000 Du        
  48938 ****       132.7500 157.2500 117.7500 Du        
  48939 ****       132.7500 157.2500 118.0000 Du        
  48940 ****       132.7500 157.2500 118.2500 Du        
  48941 ****       132.7500 157.2500 118.5000 Du        
  48942 ****       132.7500 157.5000 116.5000 Du        
  48943 ****       132.7500 157.5000 116.7500 Du        
  48944 ****       132.7500 157.5000 117.0000 Du        
  48945 ****       132.7500 157.5000 117.2500 Du        
  48946 ****       132.7500 157.5000 117.5000 Du        
  48947 ****       132.7500 157.5000 117.7500 Du        
  48948 ****       132.7500 157.5000 118.0000 Du        
  48949 ****       132.7500 157.5000 118.2500 Du        
  48950 ****       132.7500 157.5000 140.2500 Du        
  48951 ****       132.7500 157.5000 140.5000 Du        
  48952 ****       132.7500 157.7500 116.5000 Du        
  48953 ****       132.7500 157.7500 116.7500 Du        
  48954 ****       132.7500 157.7500 117.0000 Du        
  48955 ****       132.7500 157.7500 117.2500 Du        
  48956 ****       132.7500 157.7500 117.5000 Du        
  48957 ****       132.7500 157.7500 117.7500 Du        
  48958 ****       132.7500 157.7500 118.0000 Du        
  48959 ****       132.7500 157.7500 140.2500 Du        
  48960 ****       132.7500 157.7500 140.5000 Du        
  48961 ****       132.7500 157.7500 140.7500 Du        
  48962 ****       132.7500 157.7500 141.0000 Du        
  48963 ****       132.7500 157.7500 141.2500 Du        
  48964 ****       132.7500 158.0000 116.5000 Du        
  48965 ****       132.7500 158.0000 140.2500 Du        
  48966 ****       132.7500 158.0000 140.5000 Du        
  48967 ****       132.7500 158.0000 140.7500 Du        
  48968 ****       132.7500 158.0000 141.0000 Du        
  48969 ****       132.7500 158.0000 141.2500 Du        
  48970 ****       132.7500 158.0000 141.5000 Du        
  48971 ****       132.7500 158.0000 141.7500 Du        
  48972 ****       132.7500 158.2500 140.2500 Du        
  48973 ****       132.7500 158.2500 140.5000 Du        
  48974 ****       132.7500 158.2500 140.7500 Du        
  48975 ****       132.7500 158.2500 141.0000 Du        
  48976 ****       132.7500 158.2500 141.2500 Du        
  48977 ****       132.7500 158.2500 141.5000 Du        
  48978 ****       132.7500 158.2500 141.7500 Du        
  48979 ****       132.7500 158.2500 142.0000 Du        
  48980 ****       132.7500 158.5000 140.2500 Du        
  48981 ****       132.7500 158.5000 140.5000 Du        
  48982 ****       132.7500 158.5000 140.7500 Du        
  48983 ****       132.7500 158.5000 141.0000 Du        
  48984 ****       132.7500 158.5000 141.2500 Du        
  48985 ****       132.7500 158.5000 141.5000 Du        
  48986 ****       132.7500 158.5000 141.7500 Du        
  48987 ****       132.7500 158.5000 142.0000 Du        
  48988 ****       132.7500 158.7500 140.0000 Du        
  48989 ****       132.7500 158.7500 140.2500 Du        
  48990 ****       132.7500 158.7500 140.5000 Du        
  48991 ****       132.7500 158.7500 140.7500 Du        
  48992 ****       132.7500 158.7500 141.0000 Du        
  48993 ****       132.7500 158.7500 141.2500 Du        
  48994 ****       132.7500 158.7500 141.5000 Du        
  48995 ****       132.7500 158.7500 141.7500 Du        
  48996 ****       132.7500 159.0000 137.2500 Du        
  48997 ****       132.7500 159.0000 137.5000 Du        
  48998 ****       132.7500 159.0000 137.7500 Du        
  48999 ****       132.7500 159.0000 138.0000 Du        
  49000 ****       132.7500 159.0000 138.2500 Du        
  49001 ****       132.7500 159.0000 139.7500 Du        
  49002 ****       132.7500 159.0000 140.0000 Du        
  49003 ****       132.7500 159.0000 140.2500 Du        
  49004 ****       132.7500 159.0000 140.5000 Du        
  49005 ****       132.7500 159.0000 140.7500 Du        
  49006 ****       132.7500 159.0000 141.0000 Du        
  49007 ****       132.7500 159.0000 141.2500 Du        
  49008 ****       132.7500 159.0000 141.5000 Du        
  49009 ****       132.7500 159.2500 137.0000 Du        
  49010 ****       132.7500 159.2500 137.2500 Du        
  49011 ****       132.7500 159.2500 137.5000 Du        
  49012 ****       132.7500 159.2500 137.7500 Du        
  49013 ****       132.7500 159.2500 138.0000 Du        
  49014 ****       132.7500 159.2500 138.2500 Du        
  49015 ****       132.7500 159.2500 138.5000 Du        
  49016 ****       132.7500 159.2500 138.7500 Du        
  49017 ****       132.7500 159.2500 139.0000 Du        
  49018 ****       132.7500 159.2500 139.2500 Du        
  49019 ****       132.7500 159.2500 140.2500 Du        
  49020 ****       132.7500 159.2500 140.5000 Du        
  49021 ****       132.7500 159.2500 140.7500 Du        
  49022 ****       132.7500 159.2500 141.0000 Du        
  49023 ****       132.7500 159.2500 141.2500 Du        
  49024 ****       132.7500 159.5000 137.2500 Du        
  49025 ****       132.7500 159.5000 137.5000 Du        
  49026 ****       132.7500 159.5000 137.7500 Du        
  49027 ****       132.7500 159.5000 138.0000 Du        
  49028 ****       132.7500 159.5000 138.2500 Du        
  49029 ****       132.7500 159.5000 138.5000 Du        
  49030 ****       132.7500 159.5000 138.7500 Du        
  49031 ****       132.7500 159.5000 139.0000 Du        
  49032 ****       132.7500 159.7500 137.2500 Du        
  49033 ****       132.7500 159.7500 137.5000 Du        
  49034 ****       132.7500 159.7500 137.7500 Du        
  49035 ****       132.7500 159.7500 138.0000 Du        
  49036 ****       132.7500 159.7500 138.2500 Du        
  49037 ****       132.7500 159.7500 138.5000 Du        
  49038 ****       132.7500 160.0000 137.5000 Du        
  49039 ****       132.7500 160.0000 137.7500 Du        
  49040 ****       132.7500 160.0000 138.0000 Du        
  49041 ****       133.0000 133.0000 125.2500 Du        
  49042 ****       133.0000 133.0000 125.5000 Du        
  49043 ****       133.0000 133.0000 125.7500 Du        
  49044 ****       133.0000 133.0000 126.0000 Du        
  49045 ****       133.0000 133.0000 126.2500 Du        
  49046 ****       133.0000 133.0000 126.5000 Du        
  49047 ****       133.0000 133.0000 126.7500 Du        
  49048 ****       133.0000 133.0000 127.0000 Du        
  49049 ****       133.0000 133.2500 125.2500 Du        
  49050 ****       133.0000 133.2500 125.5000 Du        
  49051 ****       133.0000 133.2500 125.7500 Du        
  49052 ****       133.0000 133.2500 126.0000 Du        
  49053 ****       133.0000 133.2500 126.2500 Du        
  49054 ****       133.0000 133.2500 126.5000 Du        
  49055 ****       133.0000 133.2500 126.7500 Du        
  49056 ****       133.0000 133.2500 127.0000 Du        
  49057 ****       133.0000 133.5000 125.2500 Du        
  49058 ****       133.0000 133.5000 125.5000 Du        
  49059 ****       133.0000 133.5000 125.7500 Du        
  49060 ****       133.0000 133.5000 126.0000 Du        
  49061 ****       133.0000 133.5000 126.2500 Du        
  49062 ****       133.0000 133.5000 126.5000 Du        
  49063 ****       133.0000 133.5000 126.7500 Du        
  49064 ****       133.0000 133.5000 127.0000 Du        
  49065 ****       133.0000 133.7500 125.2500 Du        
  49066 ****       133.0000 133.7500 125.5000 Du        
  49067 ****       133.0000 133.7500 125.7500 Du        
  49068 ****       133.0000 133.7500 126.0000 Du        
  49069 ****       133.0000 133.7500 126.2500 Du        
  49070 ****       133.0000 133.7500 126.5000 Du        
  49071 ****       133.0000 133.7500 126.7500 Du        
  49072 ****       133.0000 134.0000 125.5000 Du        
  49073 ****       133.0000 134.0000 125.7500 Du        
  49074 ****       133.0000 134.0000 126.0000 Du        
  49075 ****       133.0000 134.0000 126.2500 Du        
  49076 ****       133.0000 145.7500 130.5000 Du        
  49077 ****       133.0000 145.7500 130.7500 Du        
  49078 ****       133.0000 145.7500 131.0000 Du        
  49079 ****       133.0000 145.7500 131.2500 Du        
  49080 ****       133.0000 146.0000 130.5000 Du        
  49081 ****       133.0000 146.0000 130.7500 Du        
  49082 ****       133.0000 146.0000 131.0000 Du        
  49083 ****       133.0000 146.0000 131.2500 Du        
  49084 ****       133.0000 146.2500 130.5000 Du        
  49085 ****       133.0000 146.2500 130.7500 Du        
  49086 ****       133.0000 146.2500 131.0000 Du        
  49087 ****       133.0000 146.2500 131.2500 Du        
  49088 ****       133.0000 146.5000 130.5000 Du        
  49089 ****       133.0000 146.5000 130.7500 Du        
  49090 ****       133.0000 146.5000 131.0000 Du        
  49091 ****       133.0000 146.5000 131.2500 Du        
  49092 ****       133.0000 146.7500 130.5000 Du        
  49093 ****       133.0000 146.7500 130.7500 Du        
  49094 ****       133.0000 146.7500 131.0000 Du        
  49095 ****       133.0000 147.0000 130.5000 Du        
  49096 ****       133.0000 147.0000 130.7500 Du        
  49097 ****       133.0000 147.0000 131.0000 Du        
  49098 ****       133.0000 147.2500 123.0000 Du        
  49099 ****       133.0000 147.2500 130.5000 Du        
  49100 ****       133.0000 147.2500 130.7500 Du        
  49101 ****       133.0000 147.2500 131.0000 Du        
  49102 ****       133.0000 147.5000 120.5000 Du        
  49103 ****       133.0000 147.5000 120.7500 Du        
  49104 ****       133.0000 147.5000 121.0000 Du        
  49105 ****       133.0000 147.5000 121.2500 Du        
  49106 ****       133.0000 147.5000 121.5000 Du        
  49107 ****       133.0000 147.5000 121.7500 Du        
  49108 ****       133.0000 147.5000 122.0000 Du        
  49109 ****       133.0000 147.5000 122.2500 Du        
  49110 ****       133.0000 147.5000 122.5000 Du        
  49111 ****       133.0000 147.5000 122.7500 Du        
  49112 ****       133.0000 147.5000 123.0000 Du        
  49113 ****       133.0000 147.5000 123.2500 Du        
  49114 ****       133.0000 147.5000 123.5000 Du        
  49115 ****       133.0000 147.5000 123.7500 Du        
  49116 ****       133.0000 147.5000 130.5000 Du        
  49117 ****       133.0000 147.5000 130.7500 Du        
  49118 ****       133.0000 147.5000 131.0000 Du        
  49119 ****       133.0000 147.7500 120.7500 Du        
  49120 ****       133.0000 147.7500 121.0000 Du        
  49121 ****       133.0000 147.7500 121.2500 Du        
  49122 ****       133.0000 147.7500 121.5000 Du        
  49123 ****       133.0000 147.7500 121.7500 Du        
  49124 ****       133.0000 147.7500 122.0000 Du        
  49125 ****       133.0000 147.7500 122.2500 Du        
  49126 ****       133.0000 147.7500 122.5000 Du        
  49127 ****       133.0000 147.7500 122.7500 Du        
  49128 ****       133.0000 147.7500 123.0000 Du        
  49129 ****       133.0000 147.7500 123.2500 Du        
  49130 ****       133.0000 147.7500 123.5000 Du        
  49131 ****       133.0000 147.7500 123.7500 Du        
  49132 ****       133.0000 147.7500 124.0000 Du        
  49133 ****       133.0000 147.7500 124.2500 Du        
  49134 ****       133.0000 147.7500 130.5000 Du        
  49135 ****       133.0000 147.7500 130.7500 Du        
  49136 ****       133.0000 147.7500 131.0000 Du        
  49137 ****       133.0000 148.0000 121.7500 Du        
  49138 ****       133.0000 148.0000 122.0000 Du        
  49139 ****       133.0000 148.0000 122.2500 Du        
  49140 ****       133.0000 148.0000 122.5000 Du        
  49141 ****       133.0000 148.0000 122.7500 Du        
  49142 ****       133.0000 148.0000 123.0000 Du        
  49143 ****       133.0000 148.0000 123.2500 Du        
  49144 ****       133.0000 148.0000 123.5000 Du        
  49145 ****       133.0000 148.0000 123.7500 Du        
  49146 ****       133.0000 148.0000 124.0000 Du        
  49147 ****       133.0000 148.0000 124.2500 Du        
  49148 ****       133.0000 148.0000 124.5000 Du        
  49149 ****       133.0000 148.0000 124.7500 Du        
  49150 ****       133.0000 148.0000 125.0000 Du        
  49151 ****       133.0000 148.0000 125.2500 Du        
  49152 ****       133.0000 148.0000 125.5000 Du        
  49153 ****       133.0000 148.0000 130.5000 Du        
  49154 ****       133.0000 148.0000 130.7500 Du        
  49155 ****       133.0000 148.0000 131.0000 Du        
  49156 ****       133.0000 148.2500 122.2500 Du        
  49157 ****       133.0000 148.2500 122.5000 Du        
  49158 ****       133.0000 148.2500 122.7500 Du        
  49159 ****       133.0000 148.2500 123.0000 Du        
  49160 ****       133.0000 148.2500 123.2500 Du        
  49161 ****       133.0000 148.2500 123.5000 Du        
  49162 ****       133.0000 148.2500 123.7500 Du        
  49163 ****       133.0000 148.2500 124.0000 Du        
  49164 ****       133.0000 148.2500 124.2500 Du        
  49165 ****       133.0000 148.2500 124.5000 Du        
  49166 ****       133.0000 148.2500 124.7500 Du        
  49167 ****       133.0000 148.2500 125.0000 Du        
  49168 ****       133.0000 148.2500 125.2500 Du        
  49169 ****       133.0000 148.2500 125.5000 Du        
  49170 ****       133.0000 148.2500 125.7500 Du        
  49171 ****       133.0000 148.2500 130.5000 Du        
  49172 ****       133.0000 148.2500 130.7500 Du        
  49173 ****       133.0000 148.2500 131.0000 Du        
  49174 ****       133.0000 148.5000 122.5000 Du        
  49175 ****       133.0000 148.5000 122.7500 Du        
  49176 ****       133.0000 148.5000 123.0000 Du        
  49177 ****       133.0000 148.5000 123.2500 Du        
  49178 ****       133.0000 148.5000 123.5000 Du        
  49179 ****       133.0000 148.5000 123.7500 Du        
  49180 ****       133.0000 148.5000 124.0000 Du        
  49181 ****       133.0000 148.5000 124.2500 Du        
  49182 ****       133.0000 148.5000 124.5000 Du        
  49183 ****       133.0000 148.5000 124.7500 Du        
  49184 ****       133.0000 148.5000 125.0000 Du        
  49185 ****       133.0000 148.5000 125.2500 Du        
  49186 ****       133.0000 148.5000 125.5000 Du        
  49187 ****       133.0000 148.5000 125.7500 Du        
  49188 ****       133.0000 148.5000 126.0000 Du        
  49189 ****       133.0000 148.5000 130.5000 Du        
  49190 ****       133.0000 148.5000 130.7500 Du        
  49191 ****       133.0000 148.7500 122.7500 Du        
  49192 ****       133.0000 148.7500 123.0000 Du        
  49193 ****       133.0000 148.7500 123.2500 Du        
  49194 ****       133.0000 148.7500 123.5000 Du        
  49195 ****       133.0000 148.7500 123.7500 Du        
  49196 ****       133.0000 148.7500 124.0000 Du        
  49197 ****       133.0000 148.7500 124.2500 Du        
  49198 ****       133.0000 148.7500 124.5000 Du        
  49199 ****       133.0000 148.7500 124.7500 Du        
  49200 ****       133.0000 148.7500 125.0000 Du        
  49201 ****       133.0000 148.7500 125.2500 Du        
  49202 ****       133.0000 148.7500 125.5000 Du        
  49203 ****       133.0000 148.7500 125.7500 Du        
  49204 ****       133.0000 148.7500 126.0000 Du        
  49205 ****       133.0000 148.7500 130.5000 Du        
  49206 ****       133.0000 148.7500 130.7500 Du        
  49207 ****       133.0000 149.0000 123.0000 Du        
  49208 ****       133.0000 149.0000 123.2500 Du        
  49209 ****       133.0000 149.0000 123.5000 Du        
  49210 ****       133.0000 149.0000 123.7500 Du        
  49211 ****       133.0000 149.0000 124.0000 Du        
  49212 ****       133.0000 149.0000 124.2500 Du        
  49213 ****       133.0000 149.0000 124.5000 Du        
  49214 ****       133.0000 149.0000 124.7500 Du        
  49215 ****       133.0000 149.0000 125.0000 Du        
  49216 ****       133.0000 149.0000 125.2500 Du        
  49217 ****       133.0000 149.0000 125.5000 Du        
  49218 ****       133.0000 149.0000 125.7500 Du        
  49219 ****       133.0000 149.0000 126.0000 Du        
  49220 ****       133.0000 149.0000 126.2500 Du        
  49221 ****       133.0000 149.0000 130.7500 Du        
  49222 ****       133.0000 149.2500 123.2500 Du        
  49223 ****       133.0000 149.2500 123.5000 Du        
  49224 ****       133.0000 149.2500 123.7500 Du        
  49225 ****       133.0000 149.2500 124.0000 Du        
  49226 ****       133.0000 149.2500 124.2500 Du        
  49227 ****       133.0000 149.2500 124.5000 Du        
  49228 ****       133.0000 149.2500 124.7500 Du        
  49229 ****       133.0000 149.2500 125.0000 Du        
  49230 ****       133.0000 149.2500 125.2500 Du        
  49231 ****       133.0000 149.2500 125.5000 Du        
  49232 ****       133.0000 149.2500 125.7500 Du        
  49233 ****       133.0000 149.2500 126.0000 Du        
  49234 ****       133.0000 149.2500 126.2500 Du        
  49235 ****       133.0000 149.5000 124.0000 Du        
  49236 ****       133.0000 149.5000 124.2500 Du        
  49237 ****       133.0000 149.5000 124.5000 Du        
  49238 ****       133.0000 149.5000 124.7500 Du        
  49239 ****       133.0000 149.5000 125.0000 Du        
  49240 ****       133.0000 149.5000 125.2500 Du        
  49241 ****       133.0000 149.5000 125.5000 Du        
  49242 ****       133.0000 149.5000 125.7500 Du        
  49243 ****       133.0000 149.5000 126.0000 Du        
  49244 ****       133.0000 149.5000 126.2500 Du        
  49245 ****       133.0000 149.7500 124.5000 Du        
  49246 ****       133.0000 149.7500 124.7500 Du        
  49247 ****       133.0000 149.7500 125.0000 Du        
  49248 ****       133.0000 149.7500 125.2500 Du        
  49249 ****       133.0000 149.7500 125.5000 Du        
  49250 ****       133.0000 149.7500 125.7500 Du        
  49251 ****       133.0000 149.7500 126.0000 Du        
  49252 ****       133.0000 149.7500 126.2500 Du        
  49253 ****       133.0000 150.0000 124.7500 Du        
  49254 ****       133.0000 150.0000 125.0000 Du        
  49255 ****       133.0000 150.0000 125.2500 Du        
  49256 ****       133.0000 150.0000 125.5000 Du        
  49257 ****       133.0000 150.0000 125.7500 Du        
  49258 ****       133.0000 150.0000 126.0000 Du        
  49259 ****       133.0000 150.0000 126.2500 Du        
  49260 ****       133.0000 150.2500 124.7500 Du        
  49261 ****       133.0000 150.2500 125.0000 Du        
  49262 ****       133.0000 150.2500 125.2500 Du        
  49263 ****       133.0000 150.2500 125.5000 Du        
  49264 ****       133.0000 150.2500 125.7500 Du        
  49265 ****       133.0000 150.2500 126.0000 Du        
  49266 ****       133.0000 150.2500 126.2500 Du        
  49267 ****       133.0000 150.5000 125.0000 Du        
  49268 ****       133.0000 150.5000 125.2500 Du        
  49269 ****       133.0000 150.5000 125.5000 Du        
  49270 ****       133.0000 150.5000 125.7500 Du        
  49271 ****       133.0000 150.5000 126.0000 Du        
  49272 ****       133.0000 150.7500 125.0000 Du        
  49273 ****       133.0000 150.7500 125.2500 Du        
  49274 ****       133.0000 150.7500 125.5000 Du        
  49275 ****       133.0000 150.7500 125.7500 Du        
  49276 ****       133.0000 150.7500 126.0000 Du        
  49277 ****       133.0000 150.7500 126.2500 Du        
  49278 ****       133.0000 151.0000 125.0000 Du        
  49279 ****       133.0000 151.0000 125.2500 Du        
  49280 ****       133.0000 151.0000 125.5000 Du        
  49281 ****       133.0000 151.0000 125.7500 Du        
  49282 ****       133.0000 151.0000 126.0000 Du        
  49283 ****       133.0000 151.0000 126.2500 Du        
  49284 ****       133.0000 151.2500 125.0000 Du        
  49285 ****       133.0000 151.2500 125.2500 Du        
  49286 ****       133.0000 151.2500 125.5000 Du        
  49287 ****       133.0000 151.2500 125.7500 Du        
  49288 ****       133.0000 151.2500 126.0000 Du        
  49289 ****       133.0000 151.2500 126.2500 Du        
  49290 ****       133.0000 151.5000 125.2500 Du        
  49291 ****       133.0000 151.5000 125.5000 Du        
  49292 ****       133.0000 151.5000 125.7500 Du        
  49293 ****       133.0000 151.7500 125.2500 Du        
  49294 ****       133.0000 151.7500 125.5000 Du        
  49295 ****       133.0000 151.7500 125.7500 Du        
  49296 ****       133.0000 151.7500 126.0000 Du        
  49297 ****       133.0000 152.0000 125.2500 Du        
  49298 ****       133.0000 152.0000 125.5000 Du        
  49299 ****       133.0000 152.0000 125.7500 Du        
  49300 ****       133.0000 152.0000 126.0000 Du        
  49301 ****       133.0000 152.0000 126.2500 Du        
  49302 ****       133.0000 152.2500 125.5000 Du        
  49303 ****       133.0000 152.2500 125.7500 Du        
  49304 ****       133.0000 152.2500 126.0000 Du        
  49305 ****       133.0000 152.5000 125.7500 Du        
  49306 ****       133.0000 152.5000 126.0000 Du        
  49307 ****       133.0000 152.7500 125.7500 Du        
  49308 ****       133.0000 152.7500 126.0000 Du        
  49309 ****       133.0000 152.7500 126.2500 Du        
  49310 ****       133.0000 153.0000 125.7500 Du        
  49311 ****       133.0000 153.0000 126.0000 Du        
  49312 ****       133.0000 153.2500 125.7500 Du        
  49313 ****       133.0000 153.2500 126.0000 Du        
  49314 ****       133.0000 153.2500 126.7500 Du        
  49315 ****       133.0000 153.2500 128.0000 Du        
  49316 ****       133.0000 153.2500 146.2500 Du        
  49317 ****       133.0000 153.5000 126.0000 Du        
  49318 ****       133.0000 153.5000 126.2500 Du        
  49319 ****       133.0000 153.5000 126.5000 Du        
  49320 ****       133.0000 153.5000 126.7500 Du        
  49321 ****       133.0000 153.5000 127.0000 Du        
  49322 ****       133.0000 153.5000 128.5000 Du        
  49323 ****       133.0000 153.5000 128.7500 Du        
  49324 ****       133.0000 153.5000 146.0000 Du        
  49325 ****       133.0000 153.5000 146.2500 Du        
  49326 ****       133.0000 153.7500 126.0000 Du        
  49327 ****       133.0000 153.7500 126.2500 Du        
  49328 ****       133.0000 153.7500 126.5000 Du        
  49329 ****       133.0000 153.7500 126.7500 Du        
  49330 ****       133.0000 153.7500 127.0000 Du        
  49331 ****       133.0000 153.7500 127.2500 Du        
  49332 ****       133.0000 153.7500 146.0000 Du        
  49333 ****       133.0000 153.7500 146.2500 Du        
  49334 ****       133.0000 153.7500 146.5000 Du        
  49335 ****       133.0000 153.7500 146.7500 Du        
  49336 ****       133.0000 154.0000 126.0000 Du        
  49337 ****       133.0000 154.0000 126.2500 Du        
  49338 ****       133.0000 154.0000 126.5000 Du        
  49339 ****       133.0000 154.0000 126.7500 Du        
  49340 ****       133.0000 154.0000 127.0000 Du        
  49341 ****       133.0000 154.0000 127.2500 Du        
  49342 ****       133.0000 154.0000 146.2500 Du        
  49343 ****       133.0000 154.0000 146.5000 Du        
  49344 ****       133.0000 154.0000 146.7500 Du        
  49345 ****       133.0000 154.2500 125.7500 Du        
  49346 ****       133.0000 154.2500 126.0000 Du        
  49347 ****       133.0000 154.2500 126.2500 Du        
  49348 ****       133.0000 154.2500 126.5000 Du        
  49349 ****       133.0000 154.2500 126.7500 Du        
  49350 ****       133.0000 154.2500 127.0000 Du        
  49351 ****       133.0000 154.2500 146.7500 Du        
  49352 ****       133.0000 154.2500 147.0000 Du        
  49353 ****       133.0000 154.5000 125.7500 Du        
  49354 ****       133.0000 154.5000 126.0000 Du        
  49355 ****       133.0000 154.5000 126.2500 Du        
  49356 ****       133.0000 154.5000 126.5000 Du        
  49357 ****       133.0000 154.5000 126.7500 Du        
  49358 ****       133.0000 154.5000 127.0000 Du        
  49359 ****       133.0000 154.5000 146.7500 Du        
  49360 ****       133.0000 154.5000 147.0000 Du        
  49361 ****       133.0000 154.7500 125.5000 Du        
  49362 ****       133.0000 154.7500 125.7500 Du        
  49363 ****       133.0000 154.7500 126.0000 Du        
  49364 ****       133.0000 154.7500 126.2500 Du        
  49365 ****       133.0000 154.7500 126.5000 Du        
  49366 ****       133.0000 154.7500 126.7500 Du        
  49367 ****       133.0000 154.7500 127.0000 Du        
  49368 ****       133.0000 154.7500 146.7500 Du        
  49369 ****       133.0000 154.7500 147.0000 Du        
  49370 ****       133.0000 154.7500 147.2500 Du        
  49371 ****       133.0000 155.0000 125.2500 Du        
  49372 ****       133.0000 155.0000 125.5000 Du        
  49373 ****       133.0000 155.0000 125.7500 Du        
  49374 ****       133.0000 155.0000 126.0000 Du        
  49375 ****       133.0000 155.0000 126.2500 Du        
  49376 ****       133.0000 155.0000 126.5000 Du        
  49377 ****       133.0000 155.0000 126.7500 Du        
  49378 ****       133.0000 155.0000 146.7500 Du        
  49379 ****       133.0000 155.0000 147.0000 Du        
  49380 ****       133.0000 155.0000 147.2500 Du        
  49381 ****       133.0000 155.2500 125.0000 Du        
  49382 ****       133.0000 155.2500 125.2500 Du        
  49383 ****       133.0000 155.2500 125.5000 Du        
  49384 ****       133.0000 155.2500 125.7500 Du        
  49385 ****       133.0000 155.2500 126.0000 Du        
  49386 ****       133.0000 155.2500 126.2500 Du        
  49387 ****       133.0000 155.2500 126.5000 Du        
  49388 ****       133.0000 155.2500 146.7500 Du        
  49389 ****       133.0000 155.2500 147.0000 Du        
  49390 ****       133.0000 155.2500 147.2500 Du        
  49391 ****       133.0000 155.5000 125.0000 Du        
  49392 ****       133.0000 155.5000 125.2500 Du        
  49393 ****       133.0000 155.5000 125.5000 Du        
  49394 ****       133.0000 155.5000 125.7500 Du        
  49395 ****       133.0000 155.5000 126.0000 Du        
  49396 ****       133.0000 155.5000 126.2500 Du        
  49397 ****       133.0000 155.7500 124.7500 Du        
  49398 ****       133.0000 155.7500 125.0000 Du        
  49399 ****       133.0000 155.7500 125.2500 Du        
  49400 ****       133.0000 155.7500 125.5000 Du        
  49401 ****       133.0000 155.7500 125.7500 Du        
  49402 ****       133.0000 155.7500 126.0000 Du        
  49403 ****       133.0000 155.7500 126.2500 Du        
  49404 ****       133.0000 156.0000 124.7500 Du        
  49405 ****       133.0000 156.0000 125.0000 Du        
  49406 ****       133.0000 156.0000 125.2500 Du        
  49407 ****       133.0000 156.0000 125.5000 Du        
  49408 ****       133.0000 156.0000 125.7500 Du        
  49409 ****       133.0000 156.0000 126.0000 Du        
  49410 ****       133.0000 156.0000 126.2500 Du        
  49411 ****       133.0000 156.2500 124.7500 Du        
  49412 ****       133.0000 156.2500 125.0000 Du        
  49413 ****       133.0000 156.2500 125.2500 Du        
  49414 ****       133.0000 156.2500 125.5000 Du        
  49415 ****       133.0000 156.2500 125.7500 Du        
  49416 ****       133.0000 156.2500 126.0000 Du        
  49417 ****       133.0000 156.5000 117.5000 Du        
  49418 ****       133.0000 156.5000 117.7500 Du        
  49419 ****       133.0000 156.5000 124.7500 Du        
  49420 ****       133.0000 156.5000 125.0000 Du        
  49421 ****       133.0000 156.5000 125.2500 Du        
  49422 ****       133.0000 156.5000 125.5000 Du        
  49423 ****       133.0000 156.5000 125.7500 Du        
  49424 ****       133.0000 156.7500 117.2500 Du        
  49425 ****       133.0000 156.7500 117.5000 Du        
  49426 ****       133.0000 156.7500 117.7500 Du        
  49427 ****       133.0000 156.7500 118.0000 Du        
  49428 ****       133.0000 156.7500 118.2500 Du        
  49429 ****       133.0000 156.7500 124.7500 Du        
  49430 ****       133.0000 156.7500 125.0000 Du        
  49431 ****       133.0000 156.7500 125.2500 Du        
  49432 ****       133.0000 156.7500 125.5000 Du        
  49433 ****       133.0000 157.0000 117.0000 Du        
  49434 ****       133.0000 157.0000 117.2500 Du        
  49435 ****       133.0000 157.0000 117.5000 Du        
  49436 ****       133.0000 157.0000 117.7500 Du        
  49437 ****       133.0000 157.0000 118.0000 Du        
  49438 ****       133.0000 157.0000 118.2500 Du        
  49439 ****       133.0000 157.0000 118.5000 Du        
  49440 ****       133.0000 157.2500 116.7500 Du        
  49441 ****       133.0000 157.2500 117.0000 Du        
  49442 ****       133.0000 157.2500 117.2500 Du        
  49443 ****       133.0000 157.2500 117.5000 Du        
  49444 ****       133.0000 157.2500 117.7500 Du        
  49445 ****       133.0000 157.2500 118.0000 Du        
  49446 ****       133.0000 157.2500 118.2500 Du        
  49447 ****       133.0000 157.2500 118.5000 Du        
  49448 ****       133.0000 157.5000 116.5000 Du        
  49449 ****       133.0000 157.5000 116.7500 Du        
  49450 ****       133.0000 157.5000 117.0000 Du        
  49451 ****       133.0000 157.5000 117.2500 Du        
  49452 ****       133.0000 157.5000 117.5000 Du        
  49453 ****       133.0000 157.5000 117.7500 Du        
  49454 ****       133.0000 157.5000 118.0000 Du        
  49455 ****       133.0000 157.5000 118.2500 Du        
  49456 ****       133.0000 157.5000 118.5000 Du        
  49457 ****       133.0000 157.7500 116.5000 Du        
  49458 ****       133.0000 157.7500 116.7500 Du        
  49459 ****       133.0000 157.7500 117.0000 Du        
  49460 ****       133.0000 157.7500 117.2500 Du        
  49461 ****       133.0000 157.7500 117.5000 Du        
  49462 ****       133.0000 157.7500 117.7500 Du        
  49463 ****       133.0000 157.7500 118.0000 Du        
  49464 ****       133.0000 157.7500 118.2500 Du        
  49465 ****       133.0000 157.7500 141.0000 Du        
  49466 ****       133.0000 158.0000 116.5000 Du        
  49467 ****       133.0000 158.0000 116.7500 Du        
  49468 ****       133.0000 158.0000 140.7500 Du        
  49469 ****       133.0000 158.0000 141.0000 Du        
  49470 ****       133.0000 158.0000 141.2500 Du        
  49471 ****       133.0000 158.0000 141.5000 Du        
  49472 ****       133.0000 158.0000 141.7500 Du        
  49473 ****       133.0000 158.2500 140.7500 Du        
  49474 ****       133.0000 158.2500 141.0000 Du        
  49475 ****       133.0000 158.2500 141.2500 Du        
  49476 ****       133.0000 158.2500 141.5000 Du        
  49477 ****       133.0000 158.2500 141.7500 Du        
  49478 ****       133.0000 158.2500 142.0000 Du        
  49479 ****       133.0000 158.5000 140.7500 Du        
  49480 ****       133.0000 158.5000 141.0000 Du        
  49481 ****       133.0000 158.5000 141.2500 Du        
  49482 ****       133.0000 158.5000 141.5000 Du        
  49483 ****       133.0000 158.5000 141.7500 Du        
  49484 ****       133.0000 158.5000 142.0000 Du        
  49485 ****       133.0000 158.7500 140.7500 Du        
  49486 ****       133.0000 158.7500 141.0000 Du        
  49487 ****       133.0000 158.7500 141.2500 Du        
  49488 ****       133.0000 158.7500 141.5000 Du        
  49489 ****       133.0000 158.7500 141.7500 Du        
  49490 ****       133.0000 159.0000 140.7500 Du        
  49491 ****       133.0000 159.0000 141.0000 Du        
  49492 ****       133.0000 159.0000 141.2500 Du        
  49493 ****       133.0000 159.0000 141.5000 Du        
  49494 ****       133.0000 159.2500 141.0000 Du        
  49495 ****       133.0000 159.2500 141.2500 Du        
  49496 ****       133.2500 133.0000 126.0000 Du        
  49497 ****       133.2500 133.0000 126.2500 Du        
  49498 ****       133.2500 145.5000 130.7500 Du        
  49499 ****       133.2500 145.7500 130.5000 Du        
  49500 ****       133.2500 145.7500 130.7500 Du        
  49501 ****       133.2500 145.7500 131.0000 Du        
  49502 ****       133.2500 145.7500 131.2500 Du        
  49503 ****       133.2500 146.0000 130.5000 Du        
  49504 ****       133.2500 146.0000 130.7500 Du        
  49505 ****       133.2500 146.0000 131.0000 Du        
  49506 ****       133.2500 146.0000 131.2500 Du        
  49507 ****       133.2500 146.2500 130.5000 Du        
  49508 ****       133.2500 146.2500 130.7500 Du        
  49509 ****       133.2500 146.2500 131.0000 Du        
  49510 ****       133.2500 146.2500 131.2500 Du        
  49511 ****       133.2500 146.5000 130.7500 Du        
  49512 ****       133.2500 146.5000 131.0000 Du        
  49513 ****       133.2500 146.5000 131.2500 Du        
  49514 ****       133.2500 146.7500 130.7500 Du        
  49515 ****       133.2500 146.7500 131.0000 Du        
  49516 ****       133.2500 146.7500 131.2500 Du        
  49517 ****       133.2500 147.0000 130.7500 Du        
  49518 ****       133.2500 147.0000 131.0000 Du        
  49519 ****       133.2500 147.0000 131.2500 Du        
  49520 ****       133.2500 147.2500 130.7500 Du        
  49521 ****       133.2500 147.2500 131.0000 Du        
  49522 ****       133.2500 147.5000 123.0000 Du        
  49523 ****       133.2500 147.5000 123.2500 Du        
  49524 ****       133.2500 147.5000 123.5000 Du        
  49525 ****       133.2500 147.5000 130.7500 Du        
  49526 ****       133.2500 147.5000 131.0000 Du        
  49527 ****       133.2500 147.7500 122.5000 Du        
  49528 ****       133.2500 147.7500 122.7500 Du        
  49529 ****       133.2500 147.7500 123.0000 Du        
  49530 ****       133.2500 147.7500 123.2500 Du        
  49531 ****       133.2500 147.7500 123.5000 Du        
  49532 ****       133.2500 147.7500 123.7500 Du        
  49533 ****       133.2500 147.7500 124.0000 Du        
  49534 ****       133.2500 147.7500 124.2500 Du        
  49535 ****       133.2500 147.7500 130.7500 Du        
  49536 ****       133.2500 147.7500 131.0000 Du        
  49537 ****       133.2500 148.0000 122.5000 Du        
  49538 ****       133.2500 148.0000 122.7500 Du        
  49539 ****       133.2500 148.0000 123.0000 Du        
  49540 ****       133.2500 148.0000 123.2500 Du        
  49541 ****       133.2500 148.0000 123.5000 Du        
  49542 ****       133.2500 148.0000 123.7500 Du        
  49543 ****       133.2500 148.0000 124.0000 Du        
  49544 ****       133.2500 148.0000 124.2500 Du        
  49545 ****       133.2500 148.0000 124.5000 Du        
  49546 ****       133.2500 148.0000 124.7500 Du        
  49547 ****       133.2500 148.0000 125.0000 Du        
  49548 ****       133.2500 148.0000 125.2500 Du        
  49549 ****       133.2500 148.0000 130.7500 Du        
  49550 ****       133.2500 148.0000 131.0000 Du        
  49551 ****       133.2500 148.2500 122.7500 Du        
  49552 ****       133.2500 148.2500 123.0000 Du        
  49553 ****       133.2500 148.2500 123.2500 Du        
  49554 ****       133.2500 148.2500 123.5000 Du        
  49555 ****       133.2500 148.2500 123.7500 Du        
  49556 ****       133.2500 148.2500 124.0000 Du        
  49557 ****       133.2500 148.2500 124.2500 Du        
  49558 ****       133.2500 148.2500 124.5000 Du        
  49559 ****       133.2500 148.2500 124.7500 Du        
  49560 ****       133.2500 148.2500 125.0000 Du        
  49561 ****       133.2500 148.2500 125.2500 Du        
  49562 ****       133.2500 148.2500 125.5000 Du        
  49563 ****       133.2500 148.2500 125.7500 Du        
  49564 ****       133.2500 148.2500 130.7500 Du        
  49565 ****       133.2500 148.2500 131.0000 Du        
  49566 ****       133.2500 148.5000 122.7500 Du        
  49567 ****       133.2500 148.5000 123.0000 Du        
  49568 ****       133.2500 148.5000 123.2500 Du        
  49569 ****       133.2500 148.5000 123.5000 Du        
  49570 ****       133.2500 148.5000 123.7500 Du        
  49571 ****       133.2500 148.5000 124.0000 Du        
  49572 ****       133.2500 148.5000 124.2500 Du        
  49573 ****       133.2500 148.5000 124.5000 Du        
  49574 ****       133.2500 148.5000 124.7500 Du        
  49575 ****       133.2500 148.5000 125.0000 Du        
  49576 ****       133.2500 148.5000 125.2500 Du        
  49577 ****       133.2500 148.5000 125.5000 Du        
  49578 ****       133.2500 148.5000 125.7500 Du        
  49579 ****       133.2500 148.7500 123.0000 Du        
  49580 ****       133.2500 148.7500 123.2500 Du        
  49581 ****       133.2500 148.7500 123.5000 Du        
  49582 ****       133.2500 148.7500 123.7500 Du        
  49583 ****       133.2500 148.7500 124.0000 Du        
  49584 ****       133.2500 148.7500 124.2500 Du        
  49585 ****       133.2500 148.7500 124.5000 Du        
  49586 ****       133.2500 148.7500 124.7500 Du        
  49587 ****       133.2500 148.7500 125.0000 Du        
  49588 ****       133.2500 148.7500 125.2500 Du        
  49589 ****       133.2500 148.7500 125.5000 Du        
  49590 ****       133.2500 148.7500 125.7500 Du        
  49591 ****       133.2500 148.7500 126.0000 Du        
  49592 ****       133.2500 149.0000 123.5000 Du        
  49593 ****       133.2500 149.0000 123.7500 Du        
  49594 ****       133.2500 149.0000 124.0000 Du        
  49595 ****       133.2500 149.0000 124.2500 Du        
  49596 ****       133.2500 149.0000 124.5000 Du        
  49597 ****       133.2500 149.0000 124.7500 Du        
  49598 ****       133.2500 149.0000 125.0000 Du        
  49599 ****       133.2500 149.0000 125.2500 Du        
  49600 ****       133.2500 149.0000 125.5000 Du        
  49601 ****       133.2500 149.0000 125.7500 Du        
  49602 ****       133.2500 149.0000 126.0000 Du        
  49603 ****       133.2500 149.2500 124.0000 Du        
  49604 ****       133.2500 149.2500 124.2500 Du        
  49605 ****       133.2500 149.2500 124.5000 Du        
  49606 ****       133.2500 149.2500 124.7500 Du        
  49607 ****       133.2500 149.2500 125.0000 Du        
  49608 ****       133.2500 149.2500 125.2500 Du        
  49609 ****       133.2500 149.2500 125.5000 Du        
  49610 ****       133.2500 149.2500 125.7500 Du        
  49611 ****       133.2500 149.2500 126.0000 Du        
  49612 ****       133.2500 149.5000 124.7500 Du        
  49613 ****       133.2500 149.5000 125.0000 Du        
  49614 ****       133.2500 149.5000 125.2500 Du        
  49615 ****       133.2500 149.5000 125.5000 Du        
  49616 ****       133.2500 149.5000 125.7500 Du        
  49617 ****       133.2500 149.5000 126.0000 Du        
  49618 ****       133.2500 149.7500 124.7500 Du        
  49619 ****       133.2500 149.7500 125.0000 Du        
  49620 ****       133.2500 149.7500 125.2500 Du        
  49621 ****       133.2500 149.7500 125.5000 Du        
  49622 ****       133.2500 149.7500 125.7500 Du        
  49623 ****       133.2500 149.7500 126.0000 Du        
  49624 ****       133.2500 149.7500 126.2500 Du        
  49625 ****       133.2500 150.0000 125.0000 Du        
  49626 ****       133.2500 150.0000 125.2500 Du        
  49627 ****       133.2500 150.0000 125.5000 Du        
  49628 ****       133.2500 150.0000 125.7500 Du        
  49629 ****       133.2500 150.0000 126.0000 Du        
  49630 ****       133.2500 150.0000 126.2500 Du        
  49631 ****       133.2500 150.2500 125.0000 Du        
  49632 ****       133.2500 150.2500 125.2500 Du        
  49633 ****       133.2500 150.2500 125.5000 Du        
  49634 ****       133.2500 150.2500 125.7500 Du        
  49635 ****       133.2500 150.2500 126.0000 Du        
  49636 ****       133.2500 150.2500 126.2500 Du        
  49637 ****       133.2500 150.5000 125.2500 Du        
  49638 ****       133.2500 150.5000 125.5000 Du        
  49639 ****       133.2500 150.5000 125.7500 Du        
  49640 ****       133.2500 150.5000 126.0000 Du        
  49641 ****       133.2500 150.7500 125.2500 Du        
  49642 ****       133.2500 150.7500 125.5000 Du        
  49643 ****       133.2500 150.7500 125.7500 Du        
  49644 ****       133.2500 150.7500 126.0000 Du        
  49645 ****       133.2500 150.7500 126.2500 Du        
  49646 ****       133.2500 151.0000 125.2500 Du        
  49647 ****       133.2500 151.0000 125.5000 Du        
  49648 ****       133.2500 151.0000 125.7500 Du        
  49649 ****       133.2500 151.0000 126.0000 Du        
  49650 ****       133.2500 151.0000 126.2500 Du        
  49651 ****       133.2500 151.2500 125.2500 Du        
  49652 ****       133.2500 151.2500 125.5000 Du        
  49653 ****       133.2500 151.2500 125.7500 Du        
  49654 ****       133.2500 151.2500 126.0000 Du        
  49655 ****       133.2500 151.2500 126.2500 Du        
  49656 ****       133.2500 151.5000 125.5000 Du        
  49657 ****       133.2500 151.5000 125.7500 Du        
  49658 ****       133.2500 151.5000 126.0000 Du        
  49659 ****       133.2500 151.5000 126.2500 Du        
  49660 ****       133.2500 151.7500 125.5000 Du        
  49661 ****       133.2500 151.7500 125.7500 Du        
  49662 ****       133.2500 151.7500 126.0000 Du        
  49663 ****       133.2500 151.7500 126.2500 Du        
  49664 ****       133.2500 152.0000 125.5000 Du        
  49665 ****       133.2500 152.0000 125.7500 Du        
  49666 ****       133.2500 152.0000 126.0000 Du        
  49667 ****       133.2500 152.0000 126.2500 Du        
  49668 ****       133.2500 152.2500 125.5000 Du        
  49669 ****       133.2500 152.2500 125.7500 Du        
  49670 ****       133.2500 152.2500 126.0000 Du        
  49671 ****       133.2500 152.2500 126.2500 Du        
  49672 ****       133.2500 152.5000 125.5000 Du        
  49673 ****       133.2500 152.5000 125.7500 Du        
  49674 ****       133.2500 152.5000 126.0000 Du        
  49675 ****       133.2500 152.5000 126.2500 Du        
  49676 ****       133.2500 152.7500 125.5000 Du        
  49677 ****       133.2500 152.7500 125.7500 Du        
  49678 ****       133.2500 152.7500 126.0000 Du        
  49679 ****       133.2500 152.7500 126.2500 Du        
  49680 ****       133.2500 152.7500 126.5000 Du        
  49681 ****       133.2500 152.7500 126.7500 Du        
  49682 ****       133.2500 153.0000 125.5000 Du        
  49683 ****       133.2500 153.0000 125.7500 Du        
  49684 ****       133.2500 153.0000 126.0000 Du        
  49685 ****       133.2500 153.0000 126.2500 Du        
  49686 ****       133.2500 153.0000 126.5000 Du        
  49687 ****       133.2500 153.0000 126.7500 Du        
  49688 ****       133.2500 153.0000 127.0000 Du        
  49689 ****       133.2500 153.2500 125.7500 Du        
  49690 ****       133.2500 153.2500 126.0000 Du        
  49691 ****       133.2500 153.2500 126.2500 Du        
  49692 ****       133.2500 153.2500 126.5000 Du        
  49693 ****       133.2500 153.2500 126.7500 Du        
  49694 ****       133.2500 153.2500 127.0000 Du        
  49695 ****       133.2500 153.5000 125.7500 Du        
  49696 ****       133.2500 153.5000 126.0000 Du        
  49697 ****       133.2500 153.5000 126.2500 Du        
  49698 ****       133.2500 153.5000 126.5000 Du        
  49699 ****       133.2500 153.5000 126.7500 Du        
  49700 ****       133.2500 153.5000 127.0000 Du        
  49701 ****       133.2500 153.5000 127.2500 Du        
  49702 ****       133.2500 153.5000 146.2500 Du        
  49703 ****       133.2500 153.7500 125.7500 Du        
  49704 ****       133.2500 153.7500 126.0000 Du        
  49705 ****       133.2500 153.7500 126.2500 Du        
  49706 ****       133.2500 153.7500 126.5000 Du        
  49707 ****       133.2500 153.7500 126.7500 Du        
  49708 ****       133.2500 153.7500 127.0000 Du        
  49709 ****       133.2500 153.7500 127.2500 Du        
  49710 ****       133.2500 153.7500 146.2500 Du        
  49711 ****       133.2500 153.7500 146.7500 Du        
  49712 ****       133.2500 154.0000 125.7500 Du        
  49713 ****       133.2500 154.0000 126.0000 Du        
  49714 ****       133.2500 154.0000 126.2500 Du        
  49715 ****       133.2500 154.0000 126.5000 Du        
  49716 ****       133.2500 154.0000 126.7500 Du        
  49717 ****       133.2500 154.0000 127.0000 Du        
  49718 ****       133.2500 154.0000 127.2500 Du        
  49719 ****       133.2500 154.0000 146.5000 Du        
  49720 ****       133.2500 154.0000 146.7500 Du        
  49721 ****       133.2500 154.0000 147.0000 Du        
  49722 ****       133.2500 154.2500 125.5000 Du        
  49723 ****       133.2500 154.2500 125.7500 Du        
  49724 ****       133.2500 154.2500 126.0000 Du        
  49725 ****       133.2500 154.2500 126.2500 Du        
  49726 ****       133.2500 154.2500 126.5000 Du        
  49727 ****       133.2500 154.2500 126.7500 Du        
  49728 ****       133.2500 154.2500 127.0000 Du        
  49729 ****       133.2500 154.2500 146.7500 Du        
  49730 ****       133.2500 154.2500 147.0000 Du        
  49731 ****       133.2500 154.2500 147.2500 Du        
  49732 ****       133.2500 154.5000 125.2500 Du        
  49733 ****       133.2500 154.5000 125.5000 Du        
  49734 ****       133.2500 154.5000 125.7500 Du        
  49735 ****       133.2500 154.5000 126.0000 Du        
  49736 ****       133.2500 154.5000 126.2500 Du        
  49737 ****       133.2500 154.5000 126.5000 Du        
  49738 ****       133.2500 154.5000 126.7500 Du        
  49739 ****       133.2500 154.5000 147.0000 Du        
  49740 ****       133.2500 154.5000 147.2500 Du        
  49741 ****       133.2500 154.7500 125.2500 Du        
  49742 ****       133.2500 154.7500 125.5000 Du        
  49743 ****       133.2500 154.7500 125.7500 Du        
  49744 ****       133.2500 154.7500 126.0000 Du        
  49745 ****       133.2500 154.7500 126.2500 Du        
  49746 ****       133.2500 154.7500 126.5000 Du        
  49747 ****       133.2500 154.7500 126.7500 Du        
  49748 ****       133.2500 154.7500 146.7500 Du        
  49749 ****       133.2500 154.7500 147.0000 Du        
  49750 ****       133.2500 154.7500 147.2500 Du        
  49751 ****       133.2500 155.0000 125.0000 Du        
  49752 ****       133.2500 155.0000 125.2500 Du        
  49753 ****       133.2500 155.0000 125.5000 Du        
  49754 ****       133.2500 155.0000 125.7500 Du        
  49755 ****       133.2500 155.0000 126.0000 Du        
  49756 ****       133.2500 155.0000 126.2500 Du        
  49757 ****       133.2500 155.0000 126.5000 Du        
  49758 ****       133.2500 155.0000 126.7500 Du        
  49759 ****       133.2500 155.0000 146.7500 Du        
  49760 ****       133.2500 155.0000 147.0000 Du        
  49761 ****       133.2500 155.0000 147.2500 Du        
  49762 ****       133.2500 155.2500 124.7500 Du        
  49763 ****       133.2500 155.2500 125.0000 Du        
  49764 ****       133.2500 155.2500 125.2500 Du        
  49765 ****       133.2500 155.2500 125.5000 Du        
  49766 ****       133.2500 155.2500 125.7500 Du        
  49767 ****       133.2500 155.2500 126.0000 Du        
  49768 ****       133.2500 155.2500 126.2500 Du        
  49769 ****       133.2500 155.2500 126.5000 Du        
  49770 ****       133.2500 155.2500 146.7500 Du        
  49771 ****       133.2500 155.2500 147.0000 Du        
  49772 ****       133.2500 155.2500 147.2500 Du        
  49773 ****       133.2500 155.5000 124.7500 Du        
  49774 ****       133.2500 155.5000 125.0000 Du        
  49775 ****       133.2500 155.5000 125.2500 Du        
  49776 ****       133.2500 155.5000 125.5000 Du        
  49777 ****       133.2500 155.5000 125.7500 Du        
  49778 ****       133.2500 155.5000 126.0000 Du        
  49779 ****       133.2500 155.5000 126.2500 Du        
  49780 ****       133.2500 155.5000 147.0000 Du        
  49781 ****       133.2500 155.5000 147.2500 Du        
  49782 ****       133.2500 155.7500 124.7500 Du        
  49783 ****       133.2500 155.7500 125.0000 Du        
  49784 ****       133.2500 155.7500 125.2500 Du        
  49785 ****       133.2500 155.7500 125.5000 Du        
  49786 ****       133.2500 155.7500 125.7500 Du        
  49787 ****       133.2500 155.7500 126.0000 Du        
  49788 ****       133.2500 155.7500 126.2500 Du        
  49789 ****       133.2500 155.7500 147.0000 Du        
  49790 ****       133.2500 155.7500 147.2500 Du        
  49791 ****       133.2500 156.0000 124.7500 Du        
  49792 ****       133.2500 156.0000 125.0000 Du        
  49793 ****       133.2500 156.0000 125.2500 Du        
  49794 ****       133.2500 156.0000 125.5000 Du        
  49795 ****       133.2500 156.0000 125.7500 Du        
  49796 ****       133.2500 156.0000 126.0000 Du        
  49797 ****       133.2500 156.0000 147.0000 Du        
  49798 ****       133.2500 156.0000 147.2500 Du        
  49799 ****       133.2500 156.2500 124.7500 Du        
  49800 ****       133.2500 156.2500 125.0000 Du        
  49801 ****       133.2500 156.2500 125.2500 Du        
  49802 ****       133.2500 156.2500 125.5000 Du        
  49803 ****       133.2500 156.2500 125.7500 Du        
  49804 ****       133.2500 156.2500 126.0000 Du        
  49805 ****       133.2500 156.5000 117.5000 Du        
  49806 ****       133.2500 156.5000 117.7500 Du        
  49807 ****       133.2500 156.5000 124.7500 Du        
  49808 ****       133.2500 156.5000 125.0000 Du        
  49809 ****       133.2500 156.5000 125.2500 Du        
  49810 ****       133.2500 156.5000 125.5000 Du        
  49811 ****       133.2500 156.5000 125.7500 Du        
  49812 ****       133.2500 156.7500 117.2500 Du        
  49813 ****       133.2500 156.7500 117.5000 Du        
  49814 ****       133.2500 156.7500 117.7500 Du        
  49815 ****       133.2500 156.7500 118.0000 Du        
  49816 ****       133.2500 156.7500 118.2500 Du        
  49817 ****       133.2500 156.7500 124.7500 Du        
  49818 ****       133.2500 156.7500 125.0000 Du        
  49819 ****       133.2500 156.7500 125.2500 Du        
  49820 ****       133.2500 156.7500 125.5000 Du        
  49821 ****       133.2500 157.0000 117.0000 Du        
  49822 ****       133.2500 157.0000 117.2500 Du        
  49823 ****       133.2500 157.0000 117.5000 Du        
  49824 ****       133.2500 157.0000 117.7500 Du        
  49825 ****       133.2500 157.0000 118.0000 Du        
  49826 ****       133.2500 157.0000 118.2500 Du        
  49827 ****       133.2500 157.0000 118.5000 Du        
  49828 ****       133.2500 157.0000 125.0000 Du        
  49829 ****       133.2500 157.0000 125.2500 Du        
  49830 ****       133.2500 157.2500 116.7500 Du        
  49831 ****       133.2500 157.2500 117.0000 Du        
  49832 ****       133.2500 157.2500 117.2500 Du        
  49833 ****       133.2500 157.2500 117.5000 Du        
  49834 ****       133.2500 157.2500 117.7500 Du        
  49835 ****       133.2500 157.2500 118.0000 Du        
  49836 ****       133.2500 157.2500 118.2500 Du        
  49837 ****       133.2500 157.2500 118.5000 Du        
  49838 ****       133.2500 157.2500 118.7500 Du        
  49839 ****       133.2500 157.5000 116.5000 Du        
  49840 ****       133.2500 157.5000 116.7500 Du        
  49841 ****       133.2500 157.5000 117.0000 Du        
  49842 ****       133.2500 157.5000 117.2500 Du        
  49843 ****       133.2500 157.5000 117.5000 Du        
  49844 ****       133.2500 157.5000 117.7500 Du        
  49845 ****       133.2500 157.5000 118.0000 Du        
  49846 ****       133.2500 157.5000 118.2500 Du        
  49847 ****       133.2500 157.5000 118.5000 Du        
  49848 ****       133.2500 157.5000 118.7500 Du        
  49849 ****       133.2500 157.7500 116.5000 Du        
  49850 ****       133.2500 157.7500 116.7500 Du        
  49851 ****       133.2500 157.7500 117.0000 Du        
  49852 ****       133.2500 157.7500 117.2500 Du        
  49853 ****       133.2500 157.7500 117.5000 Du        
  49854 ****       133.2500 157.7500 117.7500 Du        
  49855 ****       133.2500 157.7500 118.0000 Du        
  49856 ****       133.2500 157.7500 118.2500 Du        
  49857 ****       133.2500 157.7500 118.5000 Du        
  49858 ****       133.2500 158.0000 116.5000 Du        
  49859 ****       133.2500 158.0000 116.7500 Du        
  49860 ****       133.2500 158.0000 117.0000 Du        
  49861 ****       133.2500 158.0000 141.2500 Du        
  49862 ****       133.2500 158.0000 141.5000 Du        
  49863 ****       133.2500 158.0000 141.7500 Du        
  49864 ****       133.2500 158.2500 141.2500 Du        
  49865 ****       133.2500 158.2500 141.5000 Du        
  49866 ****       133.2500 158.2500 141.7500 Du        
  49867 ****       133.2500 158.2500 142.0000 Du        
  49868 ****       133.2500 158.5000 141.2500 Du        
  49869 ****       133.2500 158.5000 141.5000 Du        
  49870 ****       133.2500 158.5000 141.7500 Du        
  49871 ****       133.2500 158.5000 142.0000 Du        
  49872 ****       133.2500 158.7500 141.0000 Du        
  49873 ****       133.2500 158.7500 141.2500 Du        
  49874 ****       133.2500 158.7500 141.5000 Du        
  49875 ****       133.2500 158.7500 141.7500 Du        
  49876 ****       133.2500 159.0000 141.0000 Du        
  49877 ****       133.2500 159.0000 141.2500 Du        
  49878 ****       133.2500 159.0000 141.5000 Du        
  49879 ****       133.2500 159.0000 141.7500 Du        
  49880 ****       133.2500 159.2500 141.2500 Du        
  49881 ****       133.5000 145.7500 130.7500 Du        
  49882 ****       133.5000 145.7500 131.0000 Du        
  49883 ****       133.5000 145.7500 131.2500 Du        
  49884 ****       133.5000 146.0000 130.7500 Du        
  49885 ****       133.5000 146.0000 131.0000 Du        
  49886 ****       133.5000 146.0000 131.2500 Du        
  49887 ****       133.5000 146.0000 131.5000 Du        
  49888 ****       133.5000 146.2500 130.7500 Du        
  49889 ****       133.5000 146.2500 131.0000 Du        
  49890 ****       133.5000 146.2500 131.2500 Du        
  49891 ****       133.5000 146.2500 131.5000 Du        
  49892 ****       133.5000 146.5000 130.7500 Du        
  49893 ****       133.5000 146.5000 131.0000 Du        
  49894 ****       133.5000 146.5000 131.2500 Du        
  49895 ****       133.5000 146.7500 130.7500 Du        
  49896 ****       133.5000 146.7500 131.0000 Du        
  49897 ****       133.5000 146.7500 131.2500 Du        
  49898 ****       133.5000 147.0000 130.7500 Du        
  49899 ****       133.5000 147.0000 131.0000 Du        
  49900 ****       133.5000 147.0000 131.2500 Du        
  49901 ****       133.5000 147.2500 130.7500 Du        
  49902 ****       133.5000 147.2500 131.0000 Du        
  49903 ****       133.5000 147.2500 131.2500 Du        
  49904 ****       133.5000 147.5000 130.7500 Du        
  49905 ****       133.5000 147.5000 131.0000 Du        
  49906 ****       133.5000 147.5000 131.2500 Du        
  49907 ****       133.5000 147.7500 123.0000 Du        
  49908 ****       133.5000 147.7500 123.2500 Du        
  49909 ****       133.5000 147.7500 123.5000 Du        
  49910 ****       133.5000 147.7500 123.7500 Du        
  49911 ****       133.5000 147.7500 124.0000 Du        
  49912 ****       133.5000 147.7500 124.2500 Du        
  49913 ****       133.5000 147.7500 130.7500 Du        
  49914 ****       133.5000 147.7500 131.0000 Du        
  49915 ****       133.5000 148.0000 122.7500 Du        
  49916 ****       133.5000 148.0000 123.0000 Du        
  49917 ****       133.5000 148.0000 123.2500 Du        
  49918 ****       133.5000 148.0000 123.5000 Du        
  49919 ****       133.5000 148.0000 123.7500 Du        
  49920 ****       133.5000 148.0000 124.0000 Du        
  49921 ****       133.5000 148.0000 124.2500 Du        
  49922 ****       133.5000 148.0000 124.5000 Du        
  49923 ****       133.5000 148.0000 124.7500 Du        
  49924 ****       133.5000 148.0000 125.0000 Du        
  49925 ****       133.5000 148.0000 125.2500 Du        
  49926 ****       133.5000 148.0000 130.7500 Du        
  49927 ****       133.5000 148.0000 131.0000 Du        
  49928 ****       133.5000 148.2500 122.7500 Du        
  49929 ****       133.5000 148.2500 123.0000 Du        
  49930 ****       133.5000 148.2500 123.2500 Du        
  49931 ****       133.5000 148.2500 123.5000 Du        
  49932 ****       133.5000 148.2500 123.7500 Du        
  49933 ****       133.5000 148.2500 124.0000 Du        
  49934 ****       133.5000 148.2500 124.2500 Du        
  49935 ****       133.5000 148.2500 124.5000 Du        
  49936 ****       133.5000 148.2500 124.7500 Du        
  49937 ****       133.5000 148.2500 125.0000 Du        
  49938 ****       133.5000 148.2500 125.2500 Du        
  49939 ****       133.5000 148.2500 125.5000 Du        
  49940 ****       133.5000 148.2500 131.0000 Du        
  49941 ****       133.5000 148.5000 123.0000 Du        
  49942 ****       133.5000 148.5000 123.2500 Du        
  49943 ****       133.5000 148.5000 123.5000 Du        
  49944 ****       133.5000 148.5000 123.7500 Du        
  49945 ****       133.5000 148.5000 124.0000 Du        
  49946 ****       133.5000 148.5000 124.2500 Du        
  49947 ****       133.5000 148.5000 124.5000 Du        
  49948 ****       133.5000 148.5000 124.7500 Du        
  49949 ****       133.5000 148.5000 125.0000 Du        
  49950 ****       133.5000 148.5000 125.2500 Du        
  49951 ****       133.5000 148.5000 125.5000 Du        
  49952 ****       133.5000 148.5000 125.7500 Du        
  49953 ****       133.5000 148.7500 123.5000 Du        
  49954 ****       133.5000 148.7500 123.7500 Du        
  49955 ****       133.5000 148.7500 124.0000 Du        
  49956 ****       133.5000 148.7500 124.2500 Du        
  49957 ****       133.5000 148.7500 124.5000 Du        
  49958 ****       133.5000 148.7500 124.7500 Du        
  49959 ****       133.5000 148.7500 125.0000 Du        
  49960 ****       133.5000 148.7500 125.2500 Du        
  49961 ****       133.5000 148.7500 125.5000 Du        
  49962 ****       133.5000 148.7500 125.7500 Du        
  49963 ****       133.5000 149.0000 124.0000 Du        
  49964 ****       133.5000 149.0000 124.2500 Du        
  49965 ****       133.5000 149.0000 124.5000 Du        
  49966 ****       133.5000 149.0000 124.7500 Du        
  49967 ****       133.5000 149.0000 125.0000 Du        
  49968 ****       133.5000 149.0000 125.2500 Du        
  49969 ****       133.5000 149.0000 125.5000 Du        
  49970 ****       133.5000 149.0000 125.7500 Du        
  49971 ****       133.5000 149.0000 126.0000 Du        
  49972 ****       133.5000 149.2500 124.7500 Du        
  49973 ****       133.5000 149.2500 125.0000 Du        
  49974 ****       133.5000 149.2500 125.2500 Du        
  49975 ****       133.5000 149.2500 125.5000 Du        
  49976 ****       133.5000 149.2500 125.7500 Du        
  49977 ****       133.5000 149.2500 126.0000 Du        
  49978 ****       133.5000 149.5000 124.7500 Du        
  49979 ****       133.5000 149.5000 125.0000 Du        
  49980 ****       133.5000 149.5000 125.2500 Du        
  49981 ****       133.5000 149.5000 125.5000 Du        
  49982 ****       133.5000 149.5000 125.7500 Du        
  49983 ****       133.5000 149.5000 126.0000 Du        
  49984 ****       133.5000 149.7500 125.0000 Du        
  49985 ****       133.5000 149.7500 125.2500 Du        
  49986 ****       133.5000 149.7500 125.5000 Du        
  49987 ****       133.5000 149.7500 125.7500 Du        
  49988 ****       133.5000 149.7500 126.0000 Du        
  49989 ****       133.5000 150.0000 125.2500 Du        
  49990 ****       133.5000 150.0000 125.5000 Du        
  49991 ****       133.5000 150.0000 125.7500 Du        
  49992 ****       133.5000 150.0000 126.0000 Du        
  49993 ****       133.5000 150.0000 126.2500 Du        
  49994 ****       133.5000 150.2500 125.2500 Du        
  49995 ****       133.5000 150.2500 125.5000 Du        
  49996 ****       133.5000 150.2500 125.7500 Du        
  49997 ****       133.5000 150.2500 126.0000 Du        
  49998 ****       133.5000 150.2500 126.2500 Du        
  49999 ****       133.5000 150.5000 125.2500 Du        
  50000 ****       133.5000 150.5000 125.5000 Du        
  50001 ****       133.5000 150.5000 125.7500 Du        
  50002 ****       133.5000 150.5000 126.0000 Du        
  50003 ****       133.5000 150.5000 126.2500 Du        
  50004 ****       133.5000 150.7500 125.5000 Du        
  50005 ****       133.5000 150.7500 125.7500 Du        
  50006 ****       133.5000 150.7500 126.0000 Du        
  50007 ****       133.5000 150.7500 126.2500 Du        
  50008 ****       133.5000 150.7500 126.5000 Du        
  50009 ****       133.5000 151.0000 125.5000 Du        
  50010 ****       133.5000 151.0000 125.7500 Du        
  50011 ****       133.5000 151.0000 126.0000 Du        
  50012 ****       133.5000 151.0000 126.2500 Du        
  50013 ****       133.5000 151.0000 126.5000 Du        
  50014 ****       133.5000 151.2500 125.5000 Du        
  50015 ****       133.5000 151.2500 125.7500 Du        
  50016 ****       133.5000 151.2500 126.0000 Du        
  50017 ****       133.5000 151.2500 126.2500 Du        
  50018 ****       133.5000 151.2500 126.5000 Du        
  50019 ****       133.5000 151.5000 125.5000 Du        
  50020 ****       133.5000 151.5000 125.7500 Du        
  50021 ****       133.5000 151.5000 126.0000 Du        
  50022 ****       133.5000 151.5000 126.2500 Du        
  50023 ****       133.5000 151.7500 125.5000 Du        
  50024 ****       133.5000 151.7500 125.7500 Du        
  50025 ****       133.5000 151.7500 126.0000 Du        
  50026 ****       133.5000 151.7500 126.2500 Du        
  50027 ****       133.5000 151.7500 126.5000 Du        
  50028 ****       133.5000 151.7500 126.7500 Du        
  50029 ****       133.5000 152.0000 125.5000 Du        
  50030 ****       133.5000 152.0000 125.7500 Du        
  50031 ****       133.5000 152.0000 126.0000 Du        
  50032 ****       133.5000 152.0000 126.2500 Du        
  50033 ****       133.5000 152.0000 126.5000 Du        
  50034 ****       133.5000 152.0000 126.7500 Du        
  50035 ****       133.5000 152.0000 127.2500 Du        
  50036 ****       133.5000 152.2500 125.7500 Du        
  50037 ****       133.5000 152.2500 126.0000 Du        
  50038 ****       133.5000 152.2500 126.2500 Du        
  50039 ****       133.5000 152.2500 126.5000 Du        
  50040 ****       133.5000 152.2500 127.0000 Du        
  50041 ****       133.5000 152.2500 127.2500 Du        
  50042 ****       133.5000 152.5000 125.7500 Du        
  50043 ****       133.5000 152.5000 126.0000 Du        
  50044 ****       133.5000 152.5000 126.2500 Du        
  50045 ****       133.5000 152.5000 126.7500 Du        
  50046 ****       133.5000 152.5000 127.0000 Du        
  50047 ****       133.5000 152.5000 127.2500 Du        
  50048 ****       133.5000 152.7500 125.5000 Du        
  50049 ****       133.5000 152.7500 125.7500 Du        
  50050 ****       133.5000 152.7500 126.0000 Du        
  50051 ****       133.5000 152.7500 126.2500 Du        
  50052 ****       133.5000 152.7500 126.5000 Du        
  50053 ****       133.5000 152.7500 126.7500 Du        
  50054 ****       133.5000 152.7500 127.0000 Du        
  50055 ****       133.5000 152.7500 127.2500 Du        
  50056 ****       133.5000 152.7500 127.7500 Du        
  50057 ****       133.5000 153.0000 125.7500 Du        
  50058 ****       133.5000 153.0000 126.0000 Du        
  50059 ****       133.5000 153.0000 126.2500 Du        
  50060 ****       133.5000 153.0000 126.5000 Du        
  50061 ****       133.5000 153.0000 126.7500 Du        
  50062 ****       133.5000 153.0000 127.0000 Du        
  50063 ****       133.5000 153.0000 127.2500 Du        
  50064 ****       133.5000 153.0000 127.5000 Du        
  50065 ****       133.5000 153.0000 127.7500 Du        
  50066 ****       133.5000 153.0000 128.0000 Du        
  50067 ****       133.5000 153.2500 125.7500 Du        
  50068 ****       133.5000 153.2500 126.0000 Du        
  50069 ****       133.5000 153.2500 126.2500 Du        
  50070 ****       133.5000 153.2500 126.5000 Du        
  50071 ****       133.5000 153.2500 126.7500 Du        
  50072 ****       133.5000 153.2500 127.0000 Du        
  50073 ****       133.5000 153.2500 127.2500 Du        
  50074 ****       133.5000 153.2500 127.5000 Du        
  50075 ****       133.5000 153.2500 127.7500 Du        
  50076 ****       133.5000 153.2500 128.0000 Du        
  50077 ****       133.5000 153.5000 125.7500 Du        
  50078 ****       133.5000 153.5000 126.0000 Du        
  50079 ****       133.5000 153.5000 126.2500 Du        
  50080 ****       133.5000 153.5000 126.5000 Du        
  50081 ****       133.5000 153.5000 126.7500 Du        
  50082 ****       133.5000 153.5000 127.0000 Du        
  50083 ****       133.5000 153.5000 127.2500 Du        
  50084 ****       133.5000 153.5000 128.0000 Du        
  50085 ****       133.5000 153.5000 146.2500 Du        
  50086 ****       133.5000 153.5000 146.5000 Du        
  50087 ****       133.5000 153.5000 146.7500 Du        
  50088 ****       133.5000 153.5000 147.0000 Du        
  50089 ****       133.5000 153.7500 125.7500 Du        
  50090 ****       133.5000 153.7500 126.0000 Du        
  50091 ****       133.5000 153.7500 126.2500 Du        
  50092 ****       133.5000 153.7500 126.5000 Du        
  50093 ****       133.5000 153.7500 126.7500 Du        
  50094 ****       133.5000 153.7500 127.0000 Du        
  50095 ****       133.5000 153.7500 127.2500 Du        
  50096 ****       133.5000 153.7500 146.2500 Du        
  50097 ****       133.5000 153.7500 146.5000 Du        
  50098 ****       133.5000 153.7500 146.7500 Du        
  50099 ****       133.5000 153.7500 147.0000 Du        
  50100 ****       133.5000 153.7500 147.2500 Du        
  50101 ****       133.5000 154.0000 125.2500 Du        
  50102 ****       133.5000 154.0000 125.5000 Du        
  50103 ****       133.5000 154.0000 125.7500 Du        
  50104 ****       133.5000 154.0000 126.0000 Du        
  50105 ****       133.5000 154.0000 126.2500 Du        
  50106 ****       133.5000 154.0000 126.5000 Du        
  50107 ****       133.5000 154.0000 126.7500 Du        
  50108 ****       133.5000 154.0000 127.0000 Du        
  50109 ****       133.5000 154.0000 127.2500 Du        
  50110 ****       133.5000 154.0000 146.5000 Du        
  50111 ****       133.5000 154.0000 146.7500 Du        
  50112 ****       133.5000 154.0000 147.0000 Du        
  50113 ****       133.5000 154.0000 147.2500 Du        
  50114 ****       133.5000 154.2500 125.2500 Du        
  50115 ****       133.5000 154.2500 125.5000 Du        
  50116 ****       133.5000 154.2500 125.7500 Du        
  50117 ****       133.5000 154.2500 126.0000 Du        
  50118 ****       133.5000 154.2500 126.2500 Du        
  50119 ****       133.5000 154.2500 126.5000 Du        
  50120 ****       133.5000 154.2500 126.7500 Du        
  50121 ****       133.5000 154.2500 127.0000 Du        
  50122 ****       133.5000 154.2500 146.7500 Du        
  50123 ****       133.5000 154.2500 147.0000 Du        
  50124 ****       133.5000 154.2500 147.2500 Du        
  50125 ****       133.5000 154.5000 125.0000 Du        
  50126 ****       133.5000 154.5000 125.2500 Du        
  50127 ****       133.5000 154.5000 125.5000 Du        
  50128 ****       133.5000 154.5000 125.7500 Du        
  50129 ****       133.5000 154.5000 126.0000 Du        
  50130 ****       133.5000 154.5000 126.2500 Du        
  50131 ****       133.5000 154.5000 126.5000 Du        
  50132 ****       133.5000 154.5000 126.7500 Du        
  50133 ****       133.5000 154.5000 147.0000 Du        
  50134 ****       133.5000 154.5000 147.2500 Du        
  50135 ****       133.5000 154.5000 147.5000 Du        
  50136 ****       133.5000 154.7500 125.0000 Du        
  50137 ****       133.5000 154.7500 125.2500 Du        
  50138 ****       133.5000 154.7500 125.5000 Du        
  50139 ****       133.5000 154.7500 125.7500 Du        
  50140 ****       133.5000 154.7500 126.0000 Du        
  50141 ****       133.5000 154.7500 126.2500 Du        
  50142 ****       133.5000 154.7500 126.5000 Du        
  50143 ****       133.5000 154.7500 126.7500 Du        
  50144 ****       133.5000 154.7500 147.0000 Du        
  50145 ****       133.5000 154.7500 147.2500 Du        
  50146 ****       133.5000 154.7500 147.5000 Du        
  50147 ****       133.5000 154.7500 147.7500 Du        
  50148 ****       133.5000 155.0000 124.7500 Du        
  50149 ****       133.5000 155.0000 125.0000 Du        
  50150 ****       133.5000 155.0000 125.2500 Du        
  50151 ****       133.5000 155.0000 125.5000 Du        
  50152 ****       133.5000 155.0000 125.7500 Du        
  50153 ****       133.5000 155.0000 126.0000 Du        
  50154 ****       133.5000 155.0000 126.2500 Du        
  50155 ****       133.5000 155.0000 126.5000 Du        
  50156 ****       133.5000 155.0000 147.0000 Du        
  50157 ****       133.5000 155.0000 147.2500 Du        
  50158 ****       133.5000 155.0000 147.5000 Du        
  50159 ****       133.5000 155.0000 147.7500 Du        
  50160 ****       133.5000 155.2500 124.5000 Du        
  50161 ****       133.5000 155.2500 124.7500 Du        
  50162 ****       133.5000 155.2500 125.0000 Du        
  50163 ****       133.5000 155.2500 125.2500 Du        
  50164 ****       133.5000 155.2500 125.5000 Du        
  50165 ****       133.5000 155.2500 125.7500 Du        
  50166 ****       133.5000 155.2500 126.0000 Du        
  50167 ****       133.5000 155.2500 126.2500 Du        
  50168 ****       133.5000 155.2500 147.0000 Du        
  50169 ****       133.5000 155.2500 147.2500 Du        
  50170 ****       133.5000 155.2500 147.5000 Du        
  50171 ****       133.5000 155.2500 147.7500 Du        
  50172 ****       133.5000 155.5000 124.5000 Du        
  50173 ****       133.5000 155.5000 124.7500 Du        
  50174 ****       133.5000 155.5000 125.0000 Du        
  50175 ****       133.5000 155.5000 125.2500 Du        
  50176 ****       133.5000 155.5000 125.5000 Du        
  50177 ****       133.5000 155.5000 125.7500 Du        
  50178 ****       133.5000 155.5000 126.0000 Du        
  50179 ****       133.5000 155.5000 126.2500 Du        
  50180 ****       133.5000 155.5000 147.0000 Du        
  50181 ****       133.5000 155.5000 147.2500 Du        
  50182 ****       133.5000 155.7500 124.5000 Du        
  50183 ****       133.5000 155.7500 124.7500 Du        
  50184 ****       133.5000 155.7500 125.0000 Du        
  50185 ****       133.5000 155.7500 125.2500 Du        
  50186 ****       133.5000 155.7500 125.5000 Du        
  50187 ****       133.5000 155.7500 125.7500 Du        
  50188 ****       133.5000 155.7500 126.0000 Du        
  50189 ****       133.5000 155.7500 147.0000 Du        
  50190 ****       133.5000 155.7500 147.2500 Du        
  50191 ****       133.5000 155.7500 147.5000 Du        
  50192 ****       133.5000 155.7500 147.7500 Du        
  50193 ****       133.5000 156.0000 124.5000 Du        
  50194 ****       133.5000 156.0000 124.7500 Du        
  50195 ****       133.5000 156.0000 125.0000 Du        
  50196 ****       133.5000 156.0000 125.2500 Du        
  50197 ****       133.5000 156.0000 125.5000 Du        
  50198 ****       133.5000 156.0000 125.7500 Du        
  50199 ****       133.5000 156.0000 126.0000 Du        
  50200 ****       133.5000 156.0000 147.0000 Du        
  50201 ****       133.5000 156.0000 147.2500 Du        
  50202 ****       133.5000 156.2500 124.5000 Du        
  50203 ****       133.5000 156.2500 124.7500 Du        
  50204 ****       133.5000 156.2500 125.0000 Du        
  50205 ****       133.5000 156.2500 125.2500 Du        
  50206 ****       133.5000 156.2500 125.5000 Du        
  50207 ****       133.5000 156.2500 125.7500 Du        
  50208 ****       133.5000 156.2500 147.0000 Du        
  50209 ****       133.5000 156.5000 117.5000 Du        
  50210 ****       133.5000 156.5000 117.7500 Du        
  50211 ****       133.5000 156.5000 124.7500 Du        
  50212 ****       133.5000 156.5000 125.0000 Du        
  50213 ****       133.5000 156.5000 125.2500 Du        
  50214 ****       133.5000 156.5000 125.5000 Du        
  50215 ****       133.5000 156.5000 125.7500 Du        
  50216 ****       133.5000 156.7500 117.2500 Du        
  50217 ****       133.5000 156.7500 117.5000 Du        
  50218 ****       133.5000 156.7500 117.7500 Du        
  50219 ****       133.5000 156.7500 118.0000 Du        
  50220 ****       133.5000 156.7500 118.2500 Du        
  50221 ****       133.5000 156.7500 124.7500 Du        
  50222 ****       133.5000 156.7500 125.0000 Du        
  50223 ****       133.5000 156.7500 125.2500 Du        
  50224 ****       133.5000 156.7500 125.5000 Du        
  50225 ****       133.5000 157.0000 117.0000 Du        
  50226 ****       133.5000 157.0000 117.2500 Du        
  50227 ****       133.5000 157.0000 117.5000 Du        
  50228 ****       133.5000 157.0000 117.7500 Du        
  50229 ****       133.5000 157.0000 118.0000 Du        
  50230 ****       133.5000 157.0000 118.2500 Du        
  50231 ****       133.5000 157.0000 118.5000 Du        
  50232 ****       133.5000 157.0000 118.7500 Du        
  50233 ****       133.5000 157.0000 125.0000 Du        
  50234 ****       133.5000 157.0000 125.2500 Du        
  50235 ****       133.5000 157.2500 116.7500 Du        
  50236 ****       133.5000 157.2500 117.0000 Du        
  50237 ****       133.5000 157.2500 117.2500 Du        
  50238 ****       133.5000 157.2500 117.5000 Du        
  50239 ****       133.5000 157.2500 117.7500 Du        
  50240 ****       133.5000 157.2500 118.0000 Du        
  50241 ****       133.5000 157.2500 118.2500 Du        
  50242 ****       133.5000 157.2500 118.5000 Du        
  50243 ****       133.5000 157.2500 118.7500 Du        
  50244 ****       133.5000 157.5000 116.7500 Du        
  50245 ****       133.5000 157.5000 117.0000 Du        
  50246 ****       133.5000 157.5000 117.2500 Du        
  50247 ****       133.5000 157.5000 117.5000 Du        
  50248 ****       133.5000 157.5000 117.7500 Du        
  50249 ****       133.5000 157.5000 118.0000 Du        
  50250 ****       133.5000 157.5000 118.2500 Du        
  50251 ****       133.5000 157.5000 118.5000 Du        
  50252 ****       133.5000 157.5000 118.7500 Du        
  50253 ****       133.5000 157.7500 116.5000 Du        
  50254 ****       133.5000 157.7500 116.7500 Du        
  50255 ****       133.5000 157.7500 117.0000 Du        
  50256 ****       133.5000 157.7500 117.2500 Du        
  50257 ****       133.5000 157.7500 117.5000 Du        
  50258 ****       133.5000 157.7500 117.7500 Du        
  50259 ****       133.5000 157.7500 118.0000 Du        
  50260 ****       133.5000 157.7500 118.2500 Du        
  50261 ****       133.5000 157.7500 118.5000 Du        
  50262 ****       133.5000 157.7500 118.7500 Du        
  50263 ****       133.5000 158.0000 116.7500 Du        
  50264 ****       133.5000 158.0000 117.0000 Du        
  50265 ****       133.5000 158.0000 117.2500 Du        
  50266 ****       133.5000 158.0000 117.5000 Du        
  50267 ****       133.5000 158.0000 117.7500 Du        
  50268 ****       133.5000 158.0000 118.0000 Du        
  50269 ****       133.5000 158.2500 141.5000 Du        
  50270 ****       133.5000 158.2500 141.7500 Du        
  50271 ****       133.5000 158.2500 142.0000 Du        
  50272 ****       133.5000 158.5000 141.2500 Du        
  50273 ****       133.5000 158.5000 141.5000 Du        
  50274 ****       133.5000 158.5000 141.7500 Du        
  50275 ****       133.5000 158.5000 142.0000 Du        
  50276 ****       133.5000 158.7500 141.2500 Du        
  50277 ****       133.5000 158.7500 141.5000 Du        
  50278 ****       133.5000 158.7500 141.7500 Du        
  50279 ****       133.5000 158.7500 142.0000 Du        
  50280 ****       133.5000 159.0000 141.2500 Du        
  50281 ****       133.5000 159.0000 141.5000 Du        
  50282 ****       133.5000 159.0000 141.7500 Du        
  50283 ****       133.7500 145.5000 131.0000 Du        
  50284 ****       133.7500 145.7500 130.7500 Du        
  50285 ****       133.7500 145.7500 131.0000 Du        
  50286 ****       133.7500 145.7500 131.2500 Du        
  50287 ****       133.7500 145.7500 131.5000 Du        
  50288 ****       133.7500 146.0000 130.7500 Du        
  50289 ****       133.7500 146.0000 131.0000 Du        
  50290 ****       133.7500 146.0000 131.2500 Du        
  50291 ****       133.7500 146.0000 131.5000 Du        
  50292 ****       133.7500 146.2500 130.7500 Du        
  50293 ****       133.7500 146.2500 131.0000 Du        
  50294 ****       133.7500 146.2500 131.2500 Du        
  50295 ****       133.7500 146.2500 131.5000 Du        
  50296 ****       133.7500 146.5000 131.0000 Du        
  50297 ****       133.7500 146.5000 131.2500 Du        
  50298 ****       133.7500 146.5000 131.5000 Du        
  50299 ****       133.7500 146.7500 131.0000 Du        
  50300 ****       133.7500 146.7500 131.2500 Du        
  50301 ****       133.7500 146.7500 131.5000 Du        
  50302 ****       133.7500 147.0000 131.0000 Du        
  50303 ****       133.7500 147.0000 131.2500 Du        
  50304 ****       133.7500 147.0000 131.5000 Du        
  50305 ****       133.7500 147.2500 131.0000 Du        
  50306 ****       133.7500 147.2500 131.2500 Du        
  50307 ****       133.7500 147.5000 131.0000 Du        
  50308 ****       133.7500 147.5000 131.2500 Du        
  50309 ****       133.7500 147.7500 123.5000 Du        
  50310 ****       133.7500 147.7500 123.7500 Du        
  50311 ****       133.7500 147.7500 124.0000 Du        
  50312 ****       133.7500 147.7500 124.2500 Du        
  50313 ****       133.7500 147.7500 131.0000 Du        
  50314 ****       133.7500 147.7500 131.2500 Du        
  50315 ****       133.7500 148.0000 123.0000 Du        
  50316 ****       133.7500 148.0000 123.2500 Du        
  50317 ****       133.7500 148.0000 123.5000 Du        
  50318 ****       133.7500 148.0000 123.7500 Du        
  50319 ****       133.7500 148.0000 124.0000 Du        
  50320 ****       133.7500 148.0000 124.2500 Du        
  50321 ****       133.7500 148.0000 124.5000 Du        
  50322 ****       133.7500 148.0000 124.7500 Du        
  50323 ****       133.7500 148.0000 125.0000 Du        
  50324 ****       133.7500 148.0000 131.0000 Du        
  50325 ****       133.7500 148.0000 131.2500 Du        
  50326 ****       133.7500 148.2500 123.0000 Du        
  50327 ****       133.7500 148.2500 123.2500 Du        
  50328 ****       133.7500 148.2500 123.5000 Du        
  50329 ****       133.7500 148.2500 123.7500 Du        
  50330 ****       133.7500 148.2500 124.0000 Du        
  50331 ****       133.7500 148.2500 124.2500 Du        
  50332 ****       133.7500 148.2500 124.5000 Du        
  50333 ****       133.7500 148.2500 124.7500 Du        
  50334 ****       133.7500 148.2500 125.0000 Du        
  50335 ****       133.7500 148.2500 125.2500 Du        
  50336 ****       133.7500 148.5000 123.5000 Du        
  50337 ****       133.7500 148.5000 123.7500 Du        
  50338 ****       133.7500 148.5000 124.0000 Du        
  50339 ****       133.7500 148.5000 124.2500 Du        
  50340 ****       133.7500 148.5000 124.5000 Du        
  50341 ****       133.7500 148.5000 124.7500 Du        
  50342 ****       133.7500 148.5000 125.0000 Du        
  50343 ****       133.7500 148.5000 125.2500 Du        
  50344 ****       133.7500 148.5000 125.5000 Du        
  50345 ****       133.7500 148.7500 124.0000 Du        
  50346 ****       133.7500 148.7500 124.2500 Du        
  50347 ****       133.7500 148.7500 124.5000 Du        
  50348 ****       133.7500 148.7500 124.7500 Du        
  50349 ****       133.7500 148.7500 125.0000 Du        
  50350 ****       133.7500 148.7500 125.2500 Du        
  50351 ****       133.7500 148.7500 125.5000 Du        
  50352 ****       133.7500 149.0000 124.5000 Du        
  50353 ****       133.7500 149.0000 124.7500 Du        
  50354 ****       133.7500 149.0000 125.0000 Du        
  50355 ****       133.7500 149.0000 125.2500 Du        
  50356 ****       133.7500 149.0000 125.5000 Du        
  50357 ****       133.7500 149.0000 125.7500 Du        
  50358 ****       133.7500 149.2500 124.7500 Du        
  50359 ****       133.7500 149.2500 125.0000 Du        
  50360 ****       133.7500 149.2500 125.2500 Du        
  50361 ****       133.7500 149.2500 125.5000 Du        
  50362 ****       133.7500 149.2500 125.7500 Du        
  50363 ****       133.7500 149.5000 125.0000 Du        
  50364 ****       133.7500 149.5000 125.2500 Du        
  50365 ****       133.7500 149.5000 125.5000 Du        
  50366 ****       133.7500 149.5000 125.7500 Du        
  50367 ****       133.7500 149.7500 125.2500 Du        
  50368 ****       133.7500 149.7500 125.5000 Du        
  50369 ****       133.7500 149.7500 125.7500 Du        
  50370 ****       133.7500 149.7500 126.0000 Du        
  50371 ****       133.7500 150.0000 125.5000 Du        
  50372 ****       133.7500 150.0000 125.7500 Du        
  50373 ****       133.7500 150.0000 126.0000 Du        
  50374 ****       133.7500 150.2500 125.5000 Du        
  50375 ****       133.7500 150.2500 125.7500 Du        
  50376 ****       133.7500 150.2500 126.0000 Du        
  50377 ****       133.7500 150.2500 126.2500 Du        
  50378 ****       133.7500 150.5000 125.5000 Du        
  50379 ****       133.7500 150.5000 125.7500 Du        
  50380 ****       133.7500 150.5000 126.0000 Du        
  50381 ****       133.7500 150.5000 126.2500 Du        
  50382 ****       133.7500 150.7500 125.7500 Du        
  50383 ****       133.7500 150.7500 126.0000 Du        
  50384 ****       133.7500 150.7500 126.2500 Du        
  50385 ****       133.7500 150.7500 126.5000 Du        
  50386 ****       133.7500 151.0000 125.7500 Du        
  50387 ****       133.7500 151.0000 126.0000 Du        
  50388 ****       133.7500 151.0000 126.2500 Du        
  50389 ****       133.7500 151.0000 126.5000 Du        
  50390 ****       133.7500 151.2500 125.7500 Du        
  50391 ****       133.7500 151.2500 126.0000 Du        
  50392 ****       133.7500 151.2500 126.2500 Du        
  50393 ****       133.7500 151.2500 126.5000 Du        
  50394 ****       133.7500 151.2500 126.7500 Du        
  50395 ****       133.7500 151.5000 125.7500 Du        
  50396 ****       133.7500 151.5000 126.0000 Du        
  50397 ****       133.7500 151.5000 126.2500 Du        
  50398 ****       133.7500 151.5000 126.5000 Du        
  50399 ****       133.7500 151.5000 126.7500 Du        
  50400 ****       133.7500 151.5000 127.0000 Du        
  50401 ****       133.7500 151.7500 125.7500 Du        
  50402 ****       133.7500 151.7500 126.0000 Du        
  50403 ****       133.7500 151.7500 126.2500 Du        
  50404 ****       133.7500 151.7500 126.5000 Du        
  50405 ****       133.7500 151.7500 126.7500 Du        
  50406 ****       133.7500 151.7500 127.0000 Du        
  50407 ****       133.7500 151.7500 127.2500 Du        
  50408 ****       133.7500 152.0000 125.7500 Du        
  50409 ****       133.7500 152.0000 126.0000 Du        
  50410 ****       133.7500 152.0000 126.2500 Du        
  50411 ****       133.7500 152.0000 126.5000 Du        
  50412 ****       133.7500 152.0000 126.7500 Du        
  50413 ****       133.7500 152.0000 127.0000 Du        
  50414 ****       133.7500 152.0000 127.2500 Du        
  50415 ****       133.7500 152.2500 125.7500 Du        
  50416 ****       133.7500 152.2500 126.0000 Du        
  50417 ****       133.7500 152.2500 126.2500 Du        
  50418 ****       133.7500 152.2500 126.5000 Du        
  50419 ****       133.7500 152.2500 126.7500 Du        
  50420 ****       133.7500 152.2500 127.0000 Du        
  50421 ****       133.7500 152.2500 127.2500 Du        
  50422 ****       133.7500 152.2500 127.5000 Du        
  50423 ****       133.7500 152.2500 127.7500 Du        
  50424 ****       133.7500 152.5000 125.7500 Du        
  50425 ****       133.7500 152.5000 126.0000 Du        
  50426 ****       133.7500 152.5000 126.2500 Du        
  50427 ****       133.7500 152.5000 126.5000 Du        
  50428 ****       133.7500 152.5000 126.7500 Du        
  50429 ****       133.7500 152.5000 127.0000 Du        
  50430 ****       133.7500 152.5000 127.2500 Du        
  50431 ****       133.7500 152.7500 125.7500 Du        
  50432 ****       133.7500 152.7500 126.0000 Du        
  50433 ****       133.7500 152.7500 126.2500 Du        
  50434 ****       133.7500 152.7500 126.5000 Du        
  50435 ****       133.7500 152.7500 126.7500 Du        
  50436 ****       133.7500 152.7500 127.0000 Du        
  50437 ****       133.7500 152.7500 127.2500 Du        
  50438 ****       133.7500 152.7500 127.5000 Du        
  50439 ****       133.7500 152.7500 127.7500 Du        
  50440 ****       133.7500 153.0000 125.7500 Du        
  50441 ****       133.7500 153.0000 126.0000 Du        
  50442 ****       133.7500 153.0000 126.2500 Du        
  50443 ****       133.7500 153.0000 126.5000 Du        
  50444 ****       133.7500 153.0000 126.7500 Du        
  50445 ****       133.7500 153.0000 127.0000 Du        
  50446 ****       133.7500 153.0000 127.2500 Du        
  50447 ****       133.7500 153.0000 127.5000 Du        
  50448 ****       133.7500 153.0000 127.7500 Du        
  50449 ****       133.7500 153.0000 128.0000 Du        
  50450 ****       133.7500 153.2500 125.7500 Du        
  50451 ****       133.7500 153.2500 126.0000 Du        
  50452 ****       133.7500 153.2500 126.2500 Du        
  50453 ****       133.7500 153.2500 126.5000 Du        
  50454 ****       133.7500 153.2500 126.7500 Du        
  50455 ****       133.7500 153.2500 127.0000 Du        
  50456 ****       133.7500 153.2500 127.2500 Du        
  50457 ****       133.7500 153.2500 127.5000 Du        
  50458 ****       133.7500 153.2500 127.7500 Du        
  50459 ****       133.7500 153.2500 128.0000 Du        
  50460 ****       133.7500 153.5000 125.5000 Du        
  50461 ****       133.7500 153.5000 125.7500 Du        
  50462 ****       133.7500 153.5000 126.0000 Du        
  50463 ****       133.7500 153.5000 126.2500 Du        
  50464 ****       133.7500 153.5000 126.5000 Du        
  50465 ****       133.7500 153.5000 126.7500 Du        
  50466 ****       133.7500 153.5000 127.0000 Du        
  50467 ****       133.7500 153.5000 127.2500 Du        
  50468 ****       133.7500 153.5000 127.5000 Du        
  50469 ****       133.7500 153.5000 127.7500 Du        
  50470 ****       133.7500 153.5000 146.5000 Du        
  50471 ****       133.7500 153.5000 146.7500 Du        
  50472 ****       133.7500 153.5000 147.0000 Du        
  50473 ****       133.7500 153.5000 147.2500 Du        
  50474 ****       133.7500 153.7500 125.5000 Du        
  50475 ****       133.7500 153.7500 125.7500 Du        
  50476 ****       133.7500 153.7500 126.0000 Du        
  50477 ****       133.7500 153.7500 126.2500 Du        
  50478 ****       133.7500 153.7500 126.5000 Du        
  50479 ****       133.7500 153.7500 126.7500 Du        
  50480 ****       133.7500 153.7500 127.0000 Du        
  50481 ****       133.7500 153.7500 127.2500 Du        
  50482 ****       133.7500 153.7500 146.5000 Du        
  50483 ****       133.7500 153.7500 146.7500 Du        
  50484 ****       133.7500 153.7500 147.0000 Du        
  50485 ****       133.7500 153.7500 147.2500 Du        
  50486 ****       133.7500 154.0000 125.5000 Du        
  50487 ****       133.7500 154.0000 125.7500 Du        
  50488 ****       133.7500 154.0000 126.0000 Du        
  50489 ****       133.7500 154.0000 126.2500 Du        
  50490 ****       133.7500 154.0000 126.5000 Du        
  50491 ****       133.7500 154.0000 126.7500 Du        
  50492 ****       133.7500 154.0000 127.0000 Du        
  50493 ****       133.7500 154.0000 127.2500 Du        
  50494 ****       133.7500 154.0000 146.7500 Du        
  50495 ****       133.7500 154.0000 147.0000 Du        
  50496 ****       133.7500 154.0000 147.2500 Du        
  50497 ****       133.7500 154.2500 125.2500 Du        
  50498 ****       133.7500 154.2500 125.5000 Du        
  50499 ****       133.7500 154.2500 125.7500 Du        
  50500 ****       133.7500 154.2500 126.0000 Du        
  50501 ****       133.7500 154.2500 126.2500 Du        
  50502 ****       133.7500 154.2500 126.5000 Du        
  50503 ****       133.7500 154.2500 126.7500 Du        
  50504 ****       133.7500 154.2500 127.0000 Du        
  50505 ****       133.7500 154.2500 146.7500 Du        
  50506 ****       133.7500 154.2500 147.0000 Du        
  50507 ****       133.7500 154.2500 147.2500 Du        
  50508 ****       133.7500 154.5000 125.0000 Du        
  50509 ****       133.7500 154.5000 125.2500 Du        
  50510 ****       133.7500 154.5000 125.5000 Du        
  50511 ****       133.7500 154.5000 125.7500 Du        
  50512 ****       133.7500 154.5000 126.0000 Du        
  50513 ****       133.7500 154.5000 126.2500 Du        
  50514 ****       133.7500 154.5000 126.5000 Du        
  50515 ****       133.7500 154.5000 126.7500 Du        
  50516 ****       133.7500 154.5000 147.0000 Du        
  50517 ****       133.7500 154.5000 147.2500 Du        
  50518 ****       133.7500 154.5000 147.5000 Du        
  50519 ****       133.7500 154.7500 124.7500 Du        
  50520 ****       133.7500 154.7500 125.0000 Du        
  50521 ****       133.7500 154.7500 125.2500 Du        
  50522 ****       133.7500 154.7500 125.5000 Du        
  50523 ****       133.7500 154.7500 125.7500 Du        
  50524 ****       133.7500 154.7500 126.0000 Du        
  50525 ****       133.7500 154.7500 126.2500 Du        
  50526 ****       133.7500 154.7500 126.5000 Du        
  50527 ****       133.7500 154.7500 147.0000 Du        
  50528 ****       133.7500 154.7500 147.2500 Du        
  50529 ****       133.7500 154.7500 147.5000 Du        
  50530 ****       133.7500 155.0000 124.7500 Du        
  50531 ****       133.7500 155.0000 125.0000 Du        
  50532 ****       133.7500 155.0000 125.2500 Du        
  50533 ****       133.7500 155.0000 125.5000 Du        
  50534 ****       133.7500 155.0000 125.7500 Du        
  50535 ****       133.7500 155.0000 126.0000 Du        
  50536 ****       133.7500 155.0000 126.2500 Du        
  50537 ****       133.7500 155.0000 126.5000 Du        
  50538 ****       133.7500 155.0000 147.0000 Du        
  50539 ****       133.7500 155.0000 147.2500 Du        
  50540 ****       133.7500 155.0000 147.5000 Du        
  50541 ****       133.7500 155.2500 124.5000 Du        
  50542 ****       133.7500 155.2500 124.7500 Du        
  50543 ****       133.7500 155.2500 125.0000 Du        
  50544 ****       133.7500 155.2500 125.2500 Du        
  50545 ****       133.7500 155.2500 125.5000 Du        
  50546 ****       133.7500 155.2500 125.7500 Du        
  50547 ****       133.7500 155.2500 126.0000 Du        
  50548 ****       133.7500 155.2500 126.2500 Du        
  50549 ****       133.7500 155.2500 147.0000 Du        
  50550 ****       133.7500 155.2500 147.2500 Du        
  50551 ****       133.7500 155.2500 147.5000 Du        
  50552 ****       133.7500 155.5000 124.5000 Du        
  50553 ****       133.7500 155.5000 124.7500 Du        
  50554 ****       133.7500 155.5000 125.0000 Du        
  50555 ****       133.7500 155.5000 125.2500 Du        
  50556 ****       133.7500 155.5000 125.5000 Du        
  50557 ****       133.7500 155.5000 125.7500 Du        
  50558 ****       133.7500 155.5000 126.0000 Du        
  50559 ****       133.7500 155.5000 126.2500 Du        
  50560 ****       133.7500 155.5000 147.0000 Du        
  50561 ****       133.7500 155.5000 147.2500 Du        
  50562 ****       133.7500 155.5000 147.5000 Du        
  50563 ****       133.7500 155.7500 124.5000 Du        
  50564 ****       133.7500 155.7500 124.7500 Du        
  50565 ****       133.7500 155.7500 125.0000 Du        
  50566 ****       133.7500 155.7500 125.2500 Du        
  50567 ****       133.7500 155.7500 125.5000 Du        
  50568 ****       133.7500 155.7500 125.7500 Du        
  50569 ****       133.7500 155.7500 126.0000 Du        
  50570 ****       133.7500 155.7500 147.0000 Du        
  50571 ****       133.7500 155.7500 147.2500 Du        
  50572 ****       133.7500 155.7500 147.5000 Du        
  50573 ****       133.7500 156.0000 124.5000 Du        
  50574 ****       133.7500 156.0000 124.7500 Du        
  50575 ****       133.7500 156.0000 125.0000 Du        
  50576 ****       133.7500 156.0000 125.2500 Du        
  50577 ****       133.7500 156.0000 125.5000 Du        
  50578 ****       133.7500 156.0000 125.7500 Du        
  50579 ****       133.7500 156.0000 126.0000 Du        
  50580 ****       133.7500 156.0000 147.0000 Du        
  50581 ****       133.7500 156.2500 117.5000 Du        
  50582 ****       133.7500 156.2500 124.5000 Du        
  50583 ****       133.7500 156.2500 124.7500 Du        
  50584 ****       133.7500 156.2500 125.0000 Du        
  50585 ****       133.7500 156.2500 125.2500 Du        
  50586 ****       133.7500 156.2500 125.5000 Du        
  50587 ****       133.7500 156.2500 125.7500 Du        
  50588 ****       133.7500 156.5000 117.5000 Du        
  50589 ****       133.7500 156.5000 117.7500 Du        
  50590 ****       133.7500 156.5000 118.0000 Du        
  50591 ****       133.7500 156.5000 124.5000 Du        
  50592 ****       133.7500 156.5000 124.7500 Du        
  50593 ****       133.7500 156.5000 125.0000 Du        
  50594 ****       133.7500 156.5000 125.2500 Du        
  50595 ****       133.7500 156.5000 125.5000 Du        
  50596 ****       133.7500 156.5000 125.7500 Du        
  50597 ****       133.7500 156.7500 117.2500 Du        
  50598 ****       133.7500 156.7500 117.5000 Du        
  50599 ****       133.7500 156.7500 117.7500 Du        
  50600 ****       133.7500 156.7500 118.0000 Du        
  50601 ****       133.7500 156.7500 118.2500 Du        
  50602 ****       133.7500 156.7500 118.5000 Du        
  50603 ****       133.7500 156.7500 124.7500 Du        
  50604 ****       133.7500 156.7500 125.0000 Du        
  50605 ****       133.7500 156.7500 125.2500 Du        
  50606 ****       133.7500 156.7500 125.5000 Du        
  50607 ****       133.7500 157.0000 117.0000 Du        
  50608 ****       133.7500 157.0000 117.2500 Du        
  50609 ****       133.7500 157.0000 117.5000 Du        
  50610 ****       133.7500 157.0000 117.7500 Du        
  50611 ****       133.7500 157.0000 118.0000 Du        
  50612 ****       133.7500 157.0000 118.2500 Du        
  50613 ****       133.7500 157.0000 118.5000 Du        
  50614 ****       133.7500 157.0000 118.7500 Du        
  50615 ****       133.7500 157.0000 125.0000 Du        
  50616 ****       133.7500 157.0000 125.2500 Du        
  50617 ****       133.7500 157.2500 116.7500 Du        
  50618 ****       133.7500 157.2500 117.0000 Du        
  50619 ****       133.7500 157.2500 117.2500 Du        
  50620 ****       133.7500 157.2500 117.5000 Du        
  50621 ****       133.7500 157.2500 117.7500 Du        
  50622 ****       133.7500 157.2500 118.0000 Du        
  50623 ****       133.7500 157.2500 118.2500 Du        
  50624 ****       133.7500 157.2500 118.5000 Du        
  50625 ****       133.7500 157.2500 118.7500 Du        
  50626 ****       133.7500 157.2500 119.0000 Du        
  50627 ****       133.7500 157.5000 116.5000 Du        
  50628 ****       133.7500 157.5000 116.7500 Du        
  50629 ****       133.7500 157.5000 117.0000 Du        
  50630 ****       133.7500 157.5000 117.2500 Du        
  50631 ****       133.7500 157.5000 117.5000 Du        
  50632 ****       133.7500 157.5000 117.7500 Du        
  50633 ****       133.7500 157.5000 118.0000 Du        
  50634 ****       133.7500 157.5000 118.2500 Du        
  50635 ****       133.7500 157.5000 118.5000 Du        
  50636 ****       133.7500 157.5000 118.7500 Du        
  50637 ****       133.7500 157.5000 119.0000 Du        
  50638 ****       133.7500 157.7500 116.5000 Du        
  50639 ****       133.7500 157.7500 116.7500 Du        
  50640 ****       133.7500 157.7500 117.0000 Du        
  50641 ****       133.7500 157.7500 117.2500 Du        
  50642 ****       133.7500 157.7500 117.5000 Du        
  50643 ****       133.7500 157.7500 117.7500 Du        
  50644 ****       133.7500 157.7500 118.0000 Du        
  50645 ****       133.7500 157.7500 118.2500 Du        
  50646 ****       133.7500 157.7500 118.5000 Du        
  50647 ****       133.7500 157.7500 118.7500 Du        
  50648 ****       133.7500 157.7500 119.0000 Du        
  50649 ****       133.7500 158.0000 116.5000 Du        
  50650 ****       133.7500 158.0000 116.7500 Du        
  50651 ****       133.7500 158.0000 117.0000 Du        
  50652 ****       133.7500 158.0000 117.2500 Du        
  50653 ****       133.7500 158.0000 117.5000 Du        
  50654 ****       133.7500 158.0000 117.7500 Du        
  50655 ****       133.7500 158.0000 118.0000 Du        
  50656 ****       133.7500 158.0000 118.2500 Du        
  50657 ****       133.7500 158.2500 141.7500 Du        
  50658 ****       133.7500 158.2500 142.0000 Du        
  50659 ****       133.7500 158.5000 141.5000 Du        
  50660 ****       133.7500 158.5000 141.7500 Du        
  50661 ****       133.7500 158.5000 142.0000 Du        
  50662 ****       133.7500 158.5000 142.2500 Du        
  50663 ****       133.7500 158.7500 141.5000 Du        
  50664 ****       133.7500 158.7500 141.7500 Du        
  50665 ****       133.7500 158.7500 142.0000 Du        
  50666 ****       133.7500 159.0000 141.5000 Du        
  50667 ****       133.7500 159.0000 141.7500 Du        
  50668 ****       134.0000 145.7500 130.7500 Du        
  50669 ****       134.0000 145.7500 131.0000 Du        
  50670 ****       134.0000 145.7500 131.2500 Du        
  50671 ****       134.0000 145.7500 131.5000 Du        
  50672 ****       134.0000 146.0000 131.0000 Du        
  50673 ****       134.0000 146.0000 131.2500 Du        
  50674 ****       134.0000 146.0000 131.5000 Du        
  50675 ****       134.0000 146.2500 131.0000 Du        
  50676 ****       134.0000 146.2500 131.2500 Du        
  50677 ****       134.0000 146.2500 131.5000 Du        
  50678 ****       134.0000 146.5000 131.0000 Du        
  50679 ****       134.0000 146.5000 131.2500 Du        
  50680 ****       134.0000 146.5000 131.5000 Du        
  50681 ****       134.0000 146.7500 131.0000 Du        
  50682 ****       134.0000 146.7500 131.2500 Du        
  50683 ****       134.0000 146.7500 131.5000 Du        
  50684 ****       134.0000 147.0000 131.0000 Du        
  50685 ****       134.0000 147.0000 131.2500 Du        
  50686 ****       134.0000 147.0000 131.5000 Du        
  50687 ****       134.0000 147.2500 131.0000 Du        
  50688 ****       134.0000 147.2500 131.2500 Du        
  50689 ****       134.0000 147.2500 131.5000 Du        
  50690 ****       134.0000 147.5000 131.0000 Du        
  50691 ****       134.0000 147.5000 131.2500 Du        
  50692 ****       134.0000 147.7500 131.0000 Du        
  50693 ****       134.0000 147.7500 131.2500 Du        
  50694 ****       134.0000 148.0000 123.2500 Du        
  50695 ****       134.0000 148.0000 123.5000 Du        
  50696 ****       134.0000 148.0000 123.7500 Du        
  50697 ****       134.0000 148.0000 124.0000 Du        
  50698 ****       134.0000 148.0000 124.2500 Du        
  50699 ****       134.0000 148.0000 124.5000 Du        
  50700 ****       134.0000 148.0000 124.7500 Du        
  50701 ****       134.0000 148.0000 131.2500 Du        
  50702 ****       134.0000 148.2500 123.2500 Du        
  50703 ****       134.0000 148.2500 123.5000 Du        
  50704 ****       134.0000 148.2500 123.7500 Du        
  50705 ****       134.0000 148.2500 124.0000 Du        
  50706 ****       134.0000 148.2500 124.2500 Du        
  50707 ****       134.0000 148.2500 124.5000 Du        
  50708 ****       134.0000 148.2500 124.7500 Du        
  50709 ****       134.0000 148.2500 125.0000 Du        
  50710 ****       134.0000 148.2500 125.2500 Du        
  50711 ****       134.0000 148.5000 123.7500 Du        
  50712 ****       134.0000 148.5000 124.0000 Du        
  50713 ****       134.0000 148.5000 124.2500 Du        
  50714 ****       134.0000 148.5000 124.5000 Du        
  50715 ****       134.0000 148.5000 124.7500 Du        
  50716 ****       134.0000 148.5000 125.0000 Du        
  50717 ****       134.0000 148.5000 125.2500 Du        
  50718 ****       134.0000 148.7500 124.2500 Du        
  50719 ****       134.0000 148.7500 124.5000 Du        
  50720 ****       134.0000 148.7500 124.7500 Du        
  50721 ****       134.0000 148.7500 125.0000 Du        
  50722 ****       134.0000 148.7500 125.2500 Du        
  50723 ****       134.0000 148.7500 125.5000 Du        
  50724 ****       134.0000 149.0000 124.7500 Du        
  50725 ****       134.0000 149.0000 125.0000 Du        
  50726 ****       134.0000 149.0000 125.2500 Du        
  50727 ****       134.0000 149.0000 125.5000 Du        
  50728 ****       134.0000 149.2500 125.0000 Du        
  50729 ****       134.0000 149.2500 125.2500 Du        
  50730 ****       134.0000 149.2500 125.5000 Du        
  50731 ****       134.0000 149.5000 125.2500 Du        
  50732 ****       134.0000 149.5000 125.5000 Du        
  50733 ****       134.0000 149.7500 125.5000 Du        
  50734 ****       134.0000 149.7500 125.7500 Du        
  50735 ****       134.0000 150.0000 125.5000 Du        
  50736 ****       134.0000 150.0000 125.7500 Du        
  50737 ****       134.0000 150.2500 125.7500 Du        
  50738 ****       134.0000 150.2500 126.0000 Du        
  50739 ****       134.0000 150.5000 125.7500 Du        
  50740 ****       134.0000 150.5000 126.0000 Du        
  50741 ****       134.0000 150.7500 125.7500 Du        
  50742 ****       134.0000 150.7500 126.0000 Du        
  50743 ****       134.0000 150.7500 126.2500 Du        
  50744 ****       134.0000 151.0000 125.7500 Du        
  50745 ****       134.0000 151.0000 126.0000 Du        
  50746 ****       134.0000 151.0000 126.2500 Du        
  50747 ****       134.0000 151.0000 126.5000 Du        
  50748 ****       134.0000 151.2500 125.7500 Du        
  50749 ****       134.0000 151.2500 126.0000 Du        
  50750 ****       134.0000 151.2500 126.2500 Du        
  50751 ****       134.0000 151.2500 126.5000 Du        
  50752 ****       134.0000 151.2500 126.7500 Du        
  50753 ****       134.0000 151.5000 125.7500 Du        
  50754 ****       134.0000 151.5000 126.0000 Du        
  50755 ****       134.0000 151.5000 126.2500 Du        
  50756 ****       134.0000 151.5000 126.5000 Du        
  50757 ****       134.0000 151.5000 126.7500 Du        
  50758 ****       134.0000 151.5000 127.0000 Du        
  50759 ****       134.0000 151.7500 125.7500 Du        
  50760 ****       134.0000 151.7500 126.0000 Du        
  50761 ****       134.0000 151.7500 126.2500 Du        
  50762 ****       134.0000 151.7500 126.5000 Du        
  50763 ****       134.0000 151.7500 126.7500 Du        
  50764 ****       134.0000 151.7500 127.0000 Du        
  50765 ****       134.0000 152.0000 125.7500 Du        
  50766 ****       134.0000 152.0000 126.0000 Du        
  50767 ****       134.0000 152.0000 126.2500 Du        
  50768 ****       134.0000 152.0000 126.5000 Du        
  50769 ****       134.0000 152.0000 126.7500 Du        
  50770 ****       134.0000 152.0000 127.0000 Du        
  50771 ****       134.0000 152.0000 127.2500 Du        
  50772 ****       134.0000 152.0000 127.5000 Du        
  50773 ****       134.0000 152.2500 125.7500 Du        
  50774 ****       134.0000 152.2500 126.0000 Du        
  50775 ****       134.0000 152.2500 126.2500 Du        
  50776 ****       134.0000 152.2500 126.5000 Du        
  50777 ****       134.0000 152.2500 126.7500 Du        
  50778 ****       134.0000 152.2500 127.0000 Du        
  50779 ****       134.0000 152.2500 127.2500 Du        
  50780 ****       134.0000 152.2500 127.5000 Du        
  50781 ****       134.0000 152.5000 125.7500 Du        
  50782 ****       134.0000 152.5000 126.0000 Du        
  50783 ****       134.0000 152.5000 126.2500 Du        
  50784 ****       134.0000 152.5000 126.5000 Du        
  50785 ****       134.0000 152.5000 126.7500 Du        
  50786 ****       134.0000 152.5000 127.0000 Du        
  50787 ****       134.0000 152.5000 127.2500 Du        
  50788 ****       134.0000 152.7500 125.7500 Du        
  50789 ****       134.0000 152.7500 126.0000 Du        
  50790 ****       134.0000 152.7500 126.2500 Du        
  50791 ****       134.0000 152.7500 126.5000 Du        
  50792 ****       134.0000 152.7500 126.7500 Du        
  50793 ****       134.0000 152.7500 127.0000 Du        
  50794 ****       134.0000 152.7500 127.2500 Du        
  50795 ****       134.0000 152.7500 127.5000 Du        
  50796 ****       134.0000 152.7500 127.7500 Du        
  50797 ****       134.0000 153.0000 125.7500 Du        
  50798 ****       134.0000 153.0000 126.0000 Du        
  50799 ****       134.0000 153.0000 126.2500 Du        
  50800 ****       134.0000 153.0000 126.5000 Du        
  50801 ****       134.0000 153.0000 126.7500 Du        
  50802 ****       134.0000 153.0000 127.0000 Du        
  50803 ****       134.0000 153.0000 127.2500 Du        
  50804 ****       134.0000 153.0000 127.5000 Du        
  50805 ****       134.0000 153.0000 127.7500 Du        
  50806 ****       134.0000 153.0000 128.0000 Du        
  50807 ****       134.0000 153.2500 125.7500 Du        
  50808 ****       134.0000 153.2500 126.0000 Du        
  50809 ****       134.0000 153.2500 126.2500 Du        
  50810 ****       134.0000 153.2500 126.5000 Du        
  50811 ****       134.0000 153.2500 126.7500 Du        
  50812 ****       134.0000 153.2500 127.0000 Du        
  50813 ****       134.0000 153.2500 127.2500 Du        
  50814 ****       134.0000 153.2500 127.5000 Du        
  50815 ****       134.0000 153.2500 127.7500 Du        
  50816 ****       134.0000 153.2500 128.0000 Du        
  50817 ****       134.0000 153.2500 146.7500 Du        
  50818 ****       134.0000 153.2500 147.0000 Du        
  50819 ****       134.0000 153.5000 125.7500 Du        
  50820 ****       134.0000 153.5000 126.0000 Du        
  50821 ****       134.0000 153.5000 126.2500 Du        
  50822 ****       134.0000 153.5000 126.5000 Du        
  50823 ****       134.0000 153.5000 126.7500 Du        
  50824 ****       134.0000 153.5000 127.0000 Du        
  50825 ****       134.0000 153.5000 127.2500 Du        
  50826 ****       134.0000 153.5000 127.5000 Du        
  50827 ****       134.0000 153.5000 127.7500 Du        
  50828 ****       134.0000 153.5000 146.7500 Du        
  50829 ****       134.0000 153.5000 147.0000 Du        
  50830 ****       134.0000 153.5000 147.2500 Du        
  50831 ****       134.0000 153.7500 125.7500 Du        
  50832 ****       134.0000 153.7500 126.0000 Du        
  50833 ****       134.0000 153.7500 126.2500 Du        
  50834 ****       134.0000 153.7500 126.5000 Du        
  50835 ****       134.0000 153.7500 126.7500 Du        
  50836 ****       134.0000 153.7500 127.0000 Du        
  50837 ****       134.0000 153.7500 127.2500 Du        
  50838 ****       134.0000 153.7500 146.5000 Du        
  50839 ****       134.0000 153.7500 146.7500 Du        
  50840 ****       134.0000 153.7500 147.0000 Du        
  50841 ****       134.0000 153.7500 147.2500 Du        
  50842 ****       134.0000 154.0000 125.5000 Du        
  50843 ****       134.0000 154.0000 125.7500 Du        
  50844 ****       134.0000 154.0000 126.0000 Du        
  50845 ****       134.0000 154.0000 126.2500 Du        
  50846 ****       134.0000 154.0000 126.5000 Du        
  50847 ****       134.0000 154.0000 126.7500 Du        
  50848 ****       134.0000 154.0000 127.0000 Du        
  50849 ****       134.0000 154.0000 127.2500 Du        
  50850 ****       134.0000 154.0000 146.7500 Du        
  50851 ****       134.0000 154.0000 147.0000 Du        
  50852 ****       134.0000 154.0000 147.2500 Du        
  50853 ****       134.0000 154.0000 147.5000 Du        
  50854 ****       134.0000 154.2500 125.2500 Du        
  50855 ****       134.0000 154.2500 125.5000 Du        
  50856 ****       134.0000 154.2500 125.7500 Du        
  50857 ****       134.0000 154.2500 126.0000 Du        
  50858 ****       134.0000 154.2500 126.2500 Du        
  50859 ****       134.0000 154.2500 126.5000 Du        
  50860 ****       134.0000 154.2500 126.7500 Du        
  50861 ****       134.0000 154.2500 127.0000 Du        
  50862 ****       134.0000 154.2500 146.7500 Du        
  50863 ****       134.0000 154.2500 147.0000 Du        
  50864 ****       134.0000 154.2500 147.2500 Du        
  50865 ****       134.0000 154.2500 147.5000 Du        
  50866 ****       134.0000 154.5000 125.2500 Du        
  50867 ****       134.0000 154.5000 125.5000 Du        
  50868 ****       134.0000 154.5000 125.7500 Du        
  50869 ****       134.0000 154.5000 126.0000 Du        
  50870 ****       134.0000 154.5000 126.2500 Du        
  50871 ****       134.0000 154.5000 126.5000 Du        
  50872 ****       134.0000 154.5000 126.7500 Du        
  50873 ****       134.0000 154.5000 147.0000 Du        
  50874 ****       134.0000 154.5000 147.2500 Du        
  50875 ****       134.0000 154.5000 147.5000 Du        
  50876 ****       134.0000 154.7500 125.0000 Du        
  50877 ****       134.0000 154.7500 125.2500 Du        
  50878 ****       134.0000 154.7500 125.5000 Du        
  50879 ****       134.0000 154.7500 125.7500 Du        
  50880 ****       134.0000 154.7500 126.0000 Du        
  50881 ****       134.0000 154.7500 126.2500 Du        
  50882 ****       134.0000 154.7500 126.5000 Du        
  50883 ****       134.0000 154.7500 147.0000 Du        
  50884 ****       134.0000 154.7500 147.2500 Du        
  50885 ****       134.0000 154.7500 147.5000 Du        
  50886 ****       134.0000 155.0000 124.7500 Du        
  50887 ****       134.0000 155.0000 125.0000 Du        
  50888 ****       134.0000 155.0000 125.2500 Du        
  50889 ****       134.0000 155.0000 125.5000 Du        
  50890 ****       134.0000 155.0000 125.7500 Du        
  50891 ****       134.0000 155.0000 126.0000 Du        
  50892 ****       134.0000 155.0000 126.2500 Du        
  50893 ****       134.0000 155.0000 126.5000 Du        
  50894 ****       134.0000 155.0000 147.0000 Du        
  50895 ****       134.0000 155.0000 147.2500 Du        
  50896 ****       134.0000 155.0000 147.5000 Du        
  50897 ****       134.0000 155.2500 124.5000 Du        
  50898 ****       134.0000 155.2500 124.7500 Du        
  50899 ****       134.0000 155.2500 125.0000 Du        
  50900 ****       134.0000 155.2500 125.2500 Du        
  50901 ****       134.0000 155.2500 125.5000 Du        
  50902 ****       134.0000 155.2500 125.7500 Du        
  50903 ****       134.0000 155.2500 126.0000 Du        
  50904 ****       134.0000 155.2500 126.2500 Du        
  50905 ****       134.0000 155.2500 147.0000 Du        
  50906 ****       134.0000 155.2500 147.2500 Du        
  50907 ****       134.0000 155.2500 147.5000 Du        
  50908 ****       134.0000 155.5000 124.2500 Du        
  50909 ****       134.0000 155.5000 124.5000 Du        
  50910 ****       134.0000 155.5000 124.7500 Du        
  50911 ****       134.0000 155.5000 125.0000 Du        
  50912 ****       134.0000 155.5000 125.2500 Du        
  50913 ****       134.0000 155.5000 125.5000 Du        
  50914 ****       134.0000 155.5000 125.7500 Du        
  50915 ****       134.0000 155.5000 126.0000 Du        
  50916 ****       134.0000 155.5000 147.2500 Du        
  50917 ****       134.0000 155.5000 147.5000 Du        
  50918 ****       134.0000 155.7500 124.2500 Du        
  50919 ****       134.0000 155.7500 124.5000 Du        
  50920 ****       134.0000 155.7500 124.7500 Du        
  50921 ****       134.0000 155.7500 125.0000 Du        
  50922 ****       134.0000 155.7500 125.2500 Du        
  50923 ****       134.0000 155.7500 125.5000 Du        
  50924 ****       134.0000 155.7500 125.7500 Du        
  50925 ****       134.0000 155.7500 126.0000 Du        
  50926 ****       134.0000 155.7500 147.2500 Du        
  50927 ****       134.0000 156.0000 124.2500 Du        
  50928 ****       134.0000 156.0000 124.5000 Du        
  50929 ****       134.0000 156.0000 124.7500 Du        
  50930 ****       134.0000 156.0000 125.0000 Du        
  50931 ****       134.0000 156.0000 125.2500 Du        
  50932 ****       134.0000 156.0000 125.5000 Du        
  50933 ****       134.0000 156.0000 125.7500 Du        
  50934 ****       134.0000 156.2500 117.5000 Du        
  50935 ****       134.0000 156.2500 117.7500 Du        
  50936 ****       134.0000 156.2500 124.2500 Du        
  50937 ****       134.0000 156.2500 124.5000 Du        
  50938 ****       134.0000 156.2500 124.7500 Du        
  50939 ****       134.0000 156.2500 125.0000 Du        
  50940 ****       134.0000 156.2500 125.2500 Du        
  50941 ****       134.0000 156.2500 125.5000 Du        
  50942 ****       134.0000 156.2500 125.7500 Du        
  50943 ****       134.0000 156.5000 117.2500 Du        
  50944 ****       134.0000 156.5000 117.5000 Du        
  50945 ****       134.0000 156.5000 117.7500 Du        
  50946 ****       134.0000 156.5000 118.0000 Du        
  50947 ****       134.0000 156.5000 124.5000 Du        
  50948 ****       134.0000 156.5000 124.7500 Du        
  50949 ****       134.0000 156.5000 125.0000 Du        
  50950 ****       134.0000 156.5000 125.2500 Du        
  50951 ****       134.0000 156.5000 125.5000 Du        
  50952 ****       134.0000 156.7500 117.0000 Du        
  50953 ****       134.0000 156.7500 117.2500 Du        
  50954 ****       134.0000 156.7500 117.5000 Du        
  50955 ****       134.0000 156.7500 117.7500 Du        
  50956 ****       134.0000 156.7500 118.0000 Du        
  50957 ****       134.0000 156.7500 118.2500 Du        
  50958 ****       134.0000 156.7500 118.5000 Du        
  50959 ****       134.0000 156.7500 124.7500 Du        
  50960 ****       134.0000 156.7500 125.0000 Du        
  50961 ****       134.0000 156.7500 125.2500 Du        
  50962 ****       134.0000 156.7500 125.5000 Du        
  50963 ****       134.0000 157.0000 116.7500 Du        
  50964 ****       134.0000 157.0000 117.0000 Du        
  50965 ****       134.0000 157.0000 117.2500 Du        
  50966 ****       134.0000 157.0000 117.5000 Du        
  50967 ****       134.0000 157.0000 117.7500 Du        
  50968 ****       134.0000 157.0000 118.0000 Du        
  50969 ****       134.0000 157.0000 118.2500 Du        
  50970 ****       134.0000 157.0000 118.5000 Du        
  50971 ****       134.0000 157.0000 118.7500 Du        
  50972 ****       134.0000 157.0000 119.0000 Du        
  50973 ****       134.0000 157.0000 125.0000 Du        
  50974 ****       134.0000 157.0000 125.2500 Du        
  50975 ****       134.0000 157.2500 116.7500 Du        
  50976 ****       134.0000 157.2500 117.0000 Du        
  50977 ****       134.0000 157.2500 117.2500 Du        
  50978 ****       134.0000 157.2500 117.5000 Du        
  50979 ****       134.0000 157.2500 117.7500 Du        
  50980 ****       134.0000 157.2500 118.0000 Du        
  50981 ****       134.0000 157.2500 118.2500 Du        
  50982 ****       134.0000 157.2500 118.5000 Du        
  50983 ****       134.0000 157.2500 118.7500 Du        
  50984 ****       134.0000 157.2500 119.0000 Du        
  50985 ****       134.0000 157.2500 119.2500 Du        
  50986 ****       134.0000 157.5000 116.5000 Du        
  50987 ****       134.0000 157.5000 116.7500 Du        
  50988 ****       134.0000 157.5000 117.0000 Du        
  50989 ****       134.0000 157.5000 117.2500 Du        
  50990 ****       134.0000 157.5000 117.5000 Du        
  50991 ****       134.0000 157.5000 117.7500 Du        
  50992 ****       134.0000 157.5000 118.0000 Du        
  50993 ****       134.0000 157.5000 118.2500 Du        
  50994 ****       134.0000 157.5000 118.5000 Du        
  50995 ****       134.0000 157.5000 118.7500 Du        
  50996 ****       134.0000 157.5000 119.0000 Du        
  50997 ****       134.0000 157.5000 119.2500 Du        
  50998 ****       134.0000 157.7500 116.5000 Du        
  50999 ****       134.0000 157.7500 116.7500 Du        
  51000 ****       134.0000 157.7500 117.0000 Du        
  51001 ****       134.0000 157.7500 117.2500 Du        
  51002 ****       134.0000 157.7500 117.5000 Du        
  51003 ****       134.0000 157.7500 117.7500 Du        
  51004 ****       134.0000 157.7500 118.0000 Du        
  51005 ****       134.0000 157.7500 118.2500 Du        
  51006 ****       134.0000 157.7500 118.5000 Du        
  51007 ****       134.0000 157.7500 118.7500 Du        
  51008 ****       134.0000 157.7500 119.0000 Du        
  51009 ****       134.0000 158.0000 116.5000 Du        
  51010 ****       134.0000 158.0000 116.7500 Du        
  51011 ****       134.0000 158.0000 117.0000 Du        
  51012 ****       134.0000 158.0000 117.2500 Du        
  51013 ****       134.0000 158.0000 117.5000 Du        
  51014 ****       134.0000 158.0000 117.7500 Du        
  51015 ****       134.0000 158.0000 118.0000 Du        
  51016 ****       134.0000 158.0000 118.2500 Du        
  51017 ****       134.0000 158.0000 118.5000 Du        
  51018 ****       134.0000 158.2500 142.0000 Du        
  51019 ****       134.0000 158.5000 141.7500 Du        
  51020 ****       134.0000 158.5000 142.0000 Du        
  51021 ****       134.0000 158.5000 142.2500 Du        
  51022 ****       134.0000 158.7500 141.7500 Du        
  51023 ****       134.0000 158.7500 142.0000 Du        
  51024 ****       134.0000 158.7500 142.2500 Du        
  51025 ****       134.0000 159.0000 141.7500 Du        
  51026 ****       134.0000 159.0000 142.0000 Du        
  51027 ****       134.2500 145.7500 131.0000 Du        
  51028 ****       134.2500 145.7500 131.2500 Du        
  51029 ****       134.2500 146.0000 131.0000 Du        
  51030 ****       134.2500 146.0000 131.2500 Du        
  51031 ****       134.2500 146.0000 131.5000 Du        
  51032 ****       134.2500 146.2500 131.0000 Du        
  51033 ****       134.2500 146.2500 131.2500 Du        
  51034 ****       134.2500 146.2500 131.5000 Du        
  51035 ****       134.2500 146.5000 131.0000 Du        
  51036 ****       134.2500 146.5000 131.2500 Du        
  51037 ****       134.2500 146.5000 131.5000 Du        
  51038 ****       134.2500 146.7500 131.0000 Du        
  51039 ****       134.2500 146.7500 131.2500 Du        
  51040 ****       134.2500 146.7500 131.5000 Du        
  51041 ****       134.2500 147.0000 131.0000 Du        
  51042 ****       134.2500 147.0000 131.2500 Du        
  51043 ****       134.2500 147.0000 131.5000 Du        
  51044 ****       134.2500 147.2500 131.0000 Du        
  51045 ****       134.2500 147.2500 131.2500 Du        
  51046 ****       134.2500 147.5000 131.2500 Du        
  51047 ****       134.2500 147.7500 131.2500 Du        
  51048 ****       134.2500 148.2500 123.7500 Du        
  51049 ****       134.2500 148.2500 124.0000 Du        
  51050 ****       134.2500 148.2500 124.2500 Du        
  51051 ****       134.2500 148.2500 124.5000 Du        
  51052 ****       134.2500 148.2500 124.7500 Du        
  51053 ****       134.2500 148.5000 124.2500 Du        
  51054 ****       134.2500 148.5000 124.5000 Du        
  51055 ****       134.2500 148.5000 124.7500 Du        
  51056 ****       134.2500 148.5000 125.0000 Du        
  51057 ****       134.2500 148.7500 124.7500 Du        
  51058 ****       134.2500 148.7500 125.0000 Du        
  51059 ****       134.2500 148.7500 125.2500 Du        
  51060 ****       134.2500 149.0000 125.0000 Du        
  51061 ****       134.2500 149.0000 125.2500 Du        
  51062 ****       134.2500 149.2500 125.2500 Du        
  51063 ****       134.2500 150.7500 125.7500 Du        
  51064 ****       134.2500 150.7500 126.0000 Du        
  51065 ****       134.2500 150.7500 126.2500 Du        
  51066 ****       134.2500 151.0000 125.7500 Du        
  51067 ****       134.2500 151.0000 126.0000 Du        
  51068 ****       134.2500 151.0000 126.2500 Du        
  51069 ****       134.2500 151.0000 126.5000 Du        
  51070 ****       134.2500 151.2500 125.7500 Du        
  51071 ****       134.2500 151.2500 126.0000 Du        
  51072 ****       134.2500 151.2500 126.2500 Du        
  51073 ****       134.2500 151.2500 126.5000 Du        
  51074 ****       134.2500 151.5000 125.7500 Du        
  51075 ****       134.2500 151.5000 126.0000 Du        
  51076 ****       134.2500 151.5000 126.2500 Du        
  51077 ****       134.2500 151.5000 126.5000 Du        
  51078 ****       134.2500 151.5000 126.7500 Du        
  51079 ****       134.2500 151.7500 125.7500 Du        
  51080 ****       134.2500 151.7500 126.0000 Du        
  51081 ****       134.2500 151.7500 126.2500 Du        
  51082 ****       134.2500 151.7500 126.5000 Du        
  51083 ****       134.2500 151.7500 126.7500 Du        
  51084 ****       134.2500 151.7500 127.0000 Du        
  51085 ****       134.2500 152.0000 125.7500 Du        
  51086 ****       134.2500 152.0000 126.0000 Du        
  51087 ****       134.2500 152.0000 126.2500 Du        
  51088 ****       134.2500 152.0000 126.5000 Du        
  51089 ****       134.2500 152.0000 126.7500 Du        
  51090 ****       134.2500 152.0000 127.0000 Du        
  51091 ****       134.2500 152.0000 127.2500 Du        
  51092 ****       134.2500 152.2500 125.7500 Du        
  51093 ****       134.2500 152.2500 126.0000 Du        
  51094 ****       134.2500 152.2500 126.2500 Du        
  51095 ****       134.2500 152.2500 126.5000 Du        
  51096 ****       134.2500 152.2500 126.7500 Du        
  51097 ****       134.2500 152.2500 127.0000 Du        
  51098 ****       134.2500 152.2500 127.2500 Du        
  51099 ****       134.2500 152.2500 127.5000 Du        
  51100 ****       134.2500 152.5000 125.7500 Du        
  51101 ****       134.2500 152.5000 126.0000 Du        
  51102 ****       134.2500 152.5000 126.2500 Du        
  51103 ****       134.2500 152.5000 126.5000 Du        
  51104 ****       134.2500 152.5000 126.7500 Du        
  51105 ****       134.2500 152.5000 127.0000 Du        
  51106 ****       134.2500 152.5000 127.2500 Du        
  51107 ****       134.2500 152.7500 125.7500 Du        
  51108 ****       134.2500 152.7500 126.0000 Du        
  51109 ****       134.2500 152.7500 126.2500 Du        
  51110 ****       134.2500 152.7500 126.5000 Du        
  51111 ****       134.2500 152.7500 126.7500 Du        
  51112 ****       134.2500 152.7500 127.0000 Du        
  51113 ****       134.2500 152.7500 127.2500 Du        
  51114 ****       134.2500 152.7500 127.5000 Du        
  51115 ****       134.2500 153.0000 125.7500 Du        
  51116 ****       134.2500 153.0000 126.0000 Du        
  51117 ****       134.2500 153.0000 126.2500 Du        
  51118 ****       134.2500 153.0000 126.5000 Du        
  51119 ****       134.2500 153.0000 126.7500 Du        
  51120 ****       134.2500 153.0000 127.0000 Du        
  51121 ****       134.2500 153.0000 127.2500 Du        
  51122 ****       134.2500 153.0000 127.5000 Du        
  51123 ****       134.2500 153.0000 127.7500 Du        
  51124 ****       134.2500 153.2500 125.7500 Du        
  51125 ****       134.2500 153.2500 126.0000 Du        
  51126 ****       134.2500 153.2500 126.2500 Du        
  51127 ****       134.2500 153.2500 126.5000 Du        
  51128 ****       134.2500 153.2500 126.7500 Du        
  51129 ****       134.2500 153.2500 127.0000 Du        
  51130 ****       134.2500 153.2500 127.2500 Du        
  51131 ****       134.2500 153.2500 127.5000 Du        
  51132 ****       134.2500 153.2500 127.7500 Du        
  51133 ****       134.2500 153.2500 147.0000 Du        
  51134 ****       134.2500 153.5000 125.7500 Du        
  51135 ****       134.2500 153.5000 126.0000 Du        
  51136 ****       134.2500 153.5000 126.2500 Du        
  51137 ****       134.2500 153.5000 126.5000 Du        
  51138 ****       134.2500 153.5000 126.7500 Du        
  51139 ****       134.2500 153.5000 127.0000 Du        
  51140 ****       134.2500 153.5000 127.2500 Du        
  51141 ****       134.2500 153.5000 127.5000 Du        
  51142 ****       134.2500 153.5000 146.7500 Du        
  51143 ****       134.2500 153.5000 147.0000 Du        
  51144 ****       134.2500 153.7500 125.7500 Du        
  51145 ****       134.2500 153.7500 126.0000 Du        
  51146 ****       134.2500 153.7500 126.2500 Du        
  51147 ****       134.2500 153.7500 126.5000 Du        
  51148 ****       134.2500 153.7500 126.7500 Du        
  51149 ****       134.2500 153.7500 127.0000 Du        
  51150 ****       134.2500 153.7500 127.2500 Du        
  51151 ****       134.2500 153.7500 146.7500 Du        
  51152 ****       134.2500 153.7500 147.0000 Du        
  51153 ****       134.2500 154.0000 125.7500 Du        
  51154 ****       134.2500 154.0000 126.0000 Du        
  51155 ****       134.2500 154.0000 126.2500 Du        
  51156 ****       134.2500 154.0000 126.5000 Du        
  51157 ****       134.2500 154.0000 126.7500 Du        
  51158 ****       134.2500 154.0000 127.0000 Du        
  51159 ****       134.2500 154.0000 146.7500 Du        
  51160 ****       134.2500 154.0000 147.0000 Du        
  51161 ****       134.2500 154.2500 125.5000 Du        
  51162 ****       134.2500 154.2500 125.7500 Du        
  51163 ****       134.2500 154.2500 126.0000 Du        
  51164 ****       134.2500 154.2500 126.2500 Du        
  51165 ****       134.2500 154.2500 126.5000 Du        
  51166 ****       134.2500 154.2500 126.7500 Du        
  51167 ****       134.2500 154.2500 127.0000 Du        
  51168 ****       134.2500 154.2500 147.0000 Du        
  51169 ****       134.2500 154.5000 125.2500 Du        
  51170 ****       134.2500 154.5000 125.5000 Du        
  51171 ****       134.2500 154.5000 125.7500 Du        
  51172 ****       134.2500 154.5000 126.0000 Du        
  51173 ****       134.2500 154.5000 126.2500 Du        
  51174 ****       134.2500 154.5000 126.5000 Du        
  51175 ****       134.2500 154.5000 126.7500 Du        
  51176 ****       134.2500 154.5000 147.0000 Du        
  51177 ****       134.2500 154.7500 125.0000 Du        
  51178 ****       134.2500 154.7500 125.2500 Du        
  51179 ****       134.2500 154.7500 125.5000 Du        
  51180 ****       134.2500 154.7500 125.7500 Du        
  51181 ****       134.2500 154.7500 126.0000 Du        
  51182 ****       134.2500 154.7500 126.2500 Du        
  51183 ****       134.2500 154.7500 126.5000 Du        
  51184 ****       134.2500 154.7500 147.0000 Du        
  51185 ****       134.2500 155.0000 124.7500 Du        
  51186 ****       134.2500 155.0000 125.0000 Du        
  51187 ****       134.2500 155.0000 125.2500 Du        
  51188 ****       134.2500 155.0000 125.5000 Du        
  51189 ****       134.2500 155.0000 125.7500 Du        
  51190 ****       134.2500 155.0000 126.0000 Du        
  51191 ****       134.2500 155.0000 126.2500 Du        
  51192 ****       134.2500 155.0000 147.0000 Du        
  51193 ****       134.2500 155.2500 124.5000 Du        
  51194 ****       134.2500 155.2500 124.7500 Du        
  51195 ****       134.2500 155.2500 125.0000 Du        
  51196 ****       134.2500 155.2500 125.2500 Du        
  51197 ****       134.2500 155.2500 125.5000 Du        
  51198 ****       134.2500 155.2500 125.7500 Du        
  51199 ****       134.2500 155.2500 126.0000 Du        
  51200 ****       134.2500 155.2500 126.2500 Du        
  51201 ****       134.2500 155.5000 124.2500 Du        
  51202 ****       134.2500 155.5000 124.5000 Du        
  51203 ****       134.2500 155.5000 124.7500 Du        
  51204 ****       134.2500 155.5000 125.0000 Du        
  51205 ****       134.2500 155.5000 125.2500 Du        
  51206 ****       134.2500 155.5000 125.5000 Du        
  51207 ****       134.2500 155.5000 125.7500 Du        
  51208 ****       134.2500 155.5000 126.0000 Du        
  51209 ****       134.2500 155.7500 124.2500 Du        
  51210 ****       134.2500 155.7500 124.5000 Du        
  51211 ****       134.2500 155.7500 124.7500 Du        
  51212 ****       134.2500 155.7500 125.0000 Du        
  51213 ****       134.2500 155.7500 125.2500 Du        
  51214 ****       134.2500 155.7500 125.5000 Du        
  51215 ****       134.2500 155.7500 125.7500 Du        
  51216 ****       134.2500 156.0000 124.2500 Du        
  51217 ****       134.2500 156.0000 124.5000 Du        
  51218 ****       134.2500 156.0000 124.7500 Du        
  51219 ****       134.2500 156.0000 125.0000 Du        
  51220 ****       134.2500 156.0000 125.2500 Du        
  51221 ****       134.2500 156.0000 125.5000 Du        
  51222 ****       134.2500 156.0000 125.7500 Du        
  51223 ****       134.2500 156.2500 117.5000 Du        
  51224 ****       134.2500 156.2500 117.7500 Du        
  51225 ****       134.2500 156.2500 124.2500 Du        
  51226 ****       134.2500 156.2500 124.5000 Du        
  51227 ****       134.2500 156.2500 124.7500 Du        
  51228 ****       134.2500 156.2500 125.0000 Du        
  51229 ****       134.2500 156.2500 125.2500 Du        
  51230 ****       134.2500 156.2500 125.5000 Du        
  51231 ****       134.2500 156.5000 117.2500 Du        
  51232 ****       134.2500 156.5000 117.5000 Du        
  51233 ****       134.2500 156.5000 117.7500 Du        
  51234 ****       134.2500 156.5000 118.0000 Du        
  51235 ****       134.2500 156.5000 118.2500 Du        
  51236 ****       134.2500 156.5000 124.5000 Du        
  51237 ****       134.2500 156.5000 124.7500 Du        
  51238 ****       134.2500 156.5000 125.0000 Du        
  51239 ****       134.2500 156.5000 125.2500 Du        
  51240 ****       134.2500 156.5000 125.5000 Du        
  51241 ****       134.2500 156.7500 117.0000 Du        
  51242 ****       134.2500 156.7500 117.2500 Du        
  51243 ****       134.2500 156.7500 117.5000 Du        
  51244 ****       134.2500 156.7500 117.7500 Du        
  51245 ****       134.2500 156.7500 118.0000 Du        
  51246 ****       134.2500 156.7500 118.2500 Du        
  51247 ****       134.2500 156.7500 118.5000 Du        
  51248 ****       134.2500 156.7500 118.7500 Du        
  51249 ****       134.2500 156.7500 124.7500 Du        
  51250 ****       134.2500 156.7500 125.0000 Du        
  51251 ****       134.2500 156.7500 125.2500 Du        
  51252 ****       134.2500 157.0000 117.0000 Du        
  51253 ****       134.2500 157.0000 117.2500 Du        
  51254 ****       134.2500 157.0000 117.5000 Du        
  51255 ****       134.2500 157.0000 117.7500 Du        
  51256 ****       134.2500 157.0000 118.0000 Du        
  51257 ****       134.2500 157.0000 118.2500 Du        
  51258 ****       134.2500 157.0000 118.5000 Du        
  51259 ****       134.2500 157.0000 118.7500 Du        
  51260 ****       134.2500 157.0000 119.0000 Du        
  51261 ****       134.2500 157.0000 119.2500 Du        
  51262 ****       134.2500 157.0000 125.0000 Du        
  51263 ****       134.2500 157.0000 125.2500 Du        
  51264 ****       134.2500 157.2500 116.7500 Du        
  51265 ****       134.2500 157.2500 117.0000 Du        
  51266 ****       134.2500 157.2500 117.2500 Du        
  51267 ****       134.2500 157.2500 117.5000 Du        
  51268 ****       134.2500 157.2500 117.7500 Du        
  51269 ****       134.2500 157.2500 118.0000 Du        
  51270 ****       134.2500 157.2500 118.2500 Du        
  51271 ****       134.2500 157.2500 118.5000 Du        
  51272 ****       134.2500 157.2500 118.7500 Du        
  51273 ****       134.2500 157.2500 119.0000 Du        
  51274 ****       134.2500 157.2500 119.2500 Du        
  51275 ****       134.2500 157.5000 116.5000 Du        
  51276 ****       134.2500 157.5000 116.7500 Du        
  51277 ****       134.2500 157.5000 117.0000 Du        
  51278 ****       134.2500 157.5000 117.2500 Du        
  51279 ****       134.2500 157.5000 117.5000 Du        
  51280 ****       134.2500 157.5000 117.7500 Du        
  51281 ****       134.2500 157.5000 118.0000 Du        
  51282 ****       134.2500 157.5000 118.2500 Du        
  51283 ****       134.2500 157.5000 118.5000 Du        
  51284 ****       134.2500 157.5000 118.7500 Du        
  51285 ****       134.2500 157.5000 119.0000 Du        
  51286 ****       134.2500 157.5000 119.2500 Du        
  51287 ****       134.2500 157.7500 116.5000 Du        
  51288 ****       134.2500 157.7500 116.7500 Du        
  51289 ****       134.2500 157.7500 117.0000 Du        
  51290 ****       134.2500 157.7500 117.2500 Du        
  51291 ****       134.2500 157.7500 117.5000 Du        
  51292 ****       134.2500 157.7500 117.7500 Du        
  51293 ****       134.2500 157.7500 118.0000 Du        
  51294 ****       134.2500 157.7500 118.2500 Du        
  51295 ****       134.2500 157.7500 118.5000 Du        
  51296 ****       134.2500 157.7500 118.7500 Du        
  51297 ****       134.2500 157.7500 119.0000 Du        
  51298 ****       134.2500 158.0000 116.5000 Du        
  51299 ****       134.2500 158.0000 116.7500 Du        
  51300 ****       134.2500 158.0000 117.0000 Du        
  51301 ****       134.2500 158.0000 117.2500 Du        
  51302 ****       134.2500 158.0000 117.5000 Du        
  51303 ****       134.2500 158.0000 117.7500 Du        
  51304 ****       134.2500 158.0000 118.0000 Du        
  51305 ****       134.2500 158.0000 118.2500 Du        
  51306 ****       134.2500 158.0000 118.5000 Du        
  51307 ****       134.2500 158.2500 116.5000 Du        
  51308 ****       134.2500 158.2500 116.7500 Du        
  51309 ****       134.2500 158.2500 117.0000 Du        
  51310 ****       134.2500 158.2500 117.2500 Du        
  51311 ****       134.2500 158.2500 117.5000 Du        
  51312 ****       134.2500 158.2500 117.7500 Du        
  51313 ****       134.2500 158.2500 118.0000 Du        
  51314 ****       134.2500 158.5000 142.0000 Du        
  51315 ****       134.2500 158.5000 142.2500 Du        
  51316 ****       134.2500 158.7500 142.0000 Du        
  51317 ****       134.2500 158.7500 142.2500 Du        
  51318 ****       134.5000 145.7500 131.0000 Du        
  51319 ****       134.5000 145.7500 131.2500 Du        
  51320 ****       134.5000 146.0000 131.0000 Du        
  51321 ****       134.5000 146.0000 131.2500 Du        
  51322 ****       134.5000 146.2500 131.0000 Du        
  51323 ****       134.5000 146.2500 131.2500 Du        
  51324 ****       134.5000 146.5000 131.2500 Du        
  51325 ****       134.5000 146.7500 131.2500 Du        
  51326 ****       134.5000 147.0000 131.2500 Du        
  51327 ****       134.5000 151.0000 126.0000 Du        
  51328 ****       134.5000 151.0000 126.2500 Du        
  51329 ****       134.5000 151.2500 126.0000 Du        
  51330 ****       134.5000 151.2500 126.2500 Du        
  51331 ****       134.5000 151.2500 126.5000 Du        
  51332 ****       134.5000 151.5000 125.7500 Du        
  51333 ****       134.5000 151.5000 126.0000 Du        
  51334 ****       134.5000 151.5000 126.2500 Du        
  51335 ****       134.5000 151.5000 126.5000 Du        
  51336 ****       134.5000 151.5000 126.7500 Du        
  51337 ****       134.5000 151.7500 125.7500 Du        
  51338 ****       134.5000 151.7500 126.0000 Du        
  51339 ****       134.5000 151.7500 126.2500 Du        
  51340 ****       134.5000 151.7500 126.5000 Du        
  51341 ****       134.5000 151.7500 126.7500 Du        
  51342 ****       134.5000 151.7500 127.0000 Du        
  51343 ****       134.5000 152.0000 126.0000 Du        
  51344 ****       134.5000 152.0000 126.2500 Du        
  51345 ****       134.5000 152.0000 126.5000 Du        
  51346 ****       134.5000 152.0000 126.7500 Du        
  51347 ****       134.5000 152.0000 127.0000 Du        
  51348 ****       134.5000 152.2500 126.0000 Du        
  51349 ****       134.5000 152.2500 126.2500 Du        
  51350 ****       134.5000 152.2500 126.5000 Du        
  51351 ****       134.5000 152.2500 126.7500 Du        
  51352 ****       134.5000 152.2500 127.0000 Du        
  51353 ****       134.5000 152.2500 127.2500 Du        
  51354 ****       134.5000 152.5000 125.7500 Du        
  51355 ****       134.5000 152.5000 126.0000 Du        
  51356 ****       134.5000 152.5000 126.2500 Du        
  51357 ****       134.5000 152.5000 126.5000 Du        
  51358 ****       134.5000 152.5000 126.7500 Du        
  51359 ****       134.5000 152.5000 127.0000 Du        
  51360 ****       134.5000 152.5000 127.2500 Du        
  51361 ****       134.5000 152.7500 125.7500 Du        
  51362 ****       134.5000 152.7500 126.0000 Du        
  51363 ****       134.5000 152.7500 126.2500 Du        
  51364 ****       134.5000 152.7500 126.5000 Du        
  51365 ****       134.5000 152.7500 126.7500 Du        
  51366 ****       134.5000 152.7500 127.0000 Du        
  51367 ****       134.5000 152.7500 127.2500 Du        
  51368 ****       134.5000 152.7500 127.5000 Du        
  51369 ****       134.5000 153.0000 125.7500 Du        
  51370 ****       134.5000 153.0000 126.0000 Du        
  51371 ****       134.5000 153.0000 126.2500 Du        
  51372 ****       134.5000 153.0000 126.5000 Du        
  51373 ****       134.5000 153.0000 126.7500 Du        
  51374 ****       134.5000 153.0000 127.0000 Du        
  51375 ****       134.5000 153.0000 127.2500 Du        
  51376 ****       134.5000 153.0000 127.5000 Du        
  51377 ****       134.5000 153.2500 125.7500 Du        
  51378 ****       134.5000 153.2500 126.0000 Du        
  51379 ****       134.5000 153.2500 126.2500 Du        
  51380 ****       134.5000 153.2500 126.5000 Du        
  51381 ****       134.5000 153.2500 126.7500 Du        
  51382 ****       134.5000 153.2500 127.0000 Du        
  51383 ****       134.5000 153.2500 127.2500 Du        
  51384 ****       134.5000 153.2500 127.5000 Du        
  51385 ****       134.5000 153.2500 127.7500 Du        
  51386 ****       134.5000 153.2500 147.0000 Du        
  51387 ****       134.5000 153.5000 125.7500 Du        
  51388 ****       134.5000 153.5000 126.0000 Du        
  51389 ****       134.5000 153.5000 126.2500 Du        
  51390 ****       134.5000 153.5000 126.5000 Du        
  51391 ****       134.5000 153.5000 126.7500 Du        
  51392 ****       134.5000 153.5000 127.0000 Du        
  51393 ****       134.5000 153.5000 127.2500 Du        
  51394 ****       134.5000 153.5000 127.5000 Du        
  51395 ****       134.5000 153.5000 127.7500 Du        
  51396 ****       134.5000 153.5000 146.7500 Du        
  51397 ****       134.5000 153.5000 147.0000 Du        
  51398 ****       134.5000 153.7500 125.7500 Du        
  51399 ****       134.5000 153.7500 126.0000 Du        
  51400 ****       134.5000 153.7500 126.2500 Du        
  51401 ****       134.5000 153.7500 126.5000 Du        
  51402 ****       134.5000 153.7500 126.7500 Du        
  51403 ****       134.5000 153.7500 127.0000 Du        
  51404 ****       134.5000 153.7500 127.2500 Du        
  51405 ****       134.5000 153.7500 146.7500 Du        
  51406 ****       134.5000 153.7500 147.0000 Du        
  51407 ****       134.5000 154.0000 125.7500 Du        
  51408 ****       134.5000 154.0000 126.0000 Du        
  51409 ****       134.5000 154.0000 126.2500 Du        
  51410 ****       134.5000 154.0000 126.5000 Du        
  51411 ****       134.5000 154.0000 126.7500 Du        
  51412 ****       134.5000 154.0000 127.0000 Du        
  51413 ****       134.5000 154.0000 146.7500 Du        
  51414 ****       134.5000 154.0000 147.0000 Du        
  51415 ****       134.5000 154.2500 125.7500 Du        
  51416 ****       134.5000 154.2500 126.0000 Du        
  51417 ****       134.5000 154.2500 126.2500 Du        
  51418 ****       134.5000 154.2500 126.5000 Du        
  51419 ****       134.5000 154.2500 126.7500 Du        
  51420 ****       134.5000 154.2500 147.0000 Du        
  51421 ****       134.5000 154.5000 125.5000 Du        
  51422 ****       134.5000 154.5000 125.7500 Du        
  51423 ****       134.5000 154.5000 126.0000 Du        
  51424 ****       134.5000 154.5000 126.2500 Du        
  51425 ****       134.5000 154.5000 126.5000 Du        
  51426 ****       134.5000 154.5000 147.0000 Du        
  51427 ****       134.5000 154.7500 125.2500 Du        
  51428 ****       134.5000 154.7500 125.5000 Du        
  51429 ****       134.5000 154.7500 125.7500 Du        
  51430 ****       134.5000 154.7500 126.0000 Du        
  51431 ****       134.5000 154.7500 126.2500 Du        
  51432 ****       134.5000 154.7500 126.5000 Du        
  51433 ****       134.5000 154.7500 147.0000 Du        
  51434 ****       134.5000 155.0000 124.7500 Du        
  51435 ****       134.5000 155.0000 125.0000 Du        
  51436 ****       134.5000 155.0000 125.2500 Du        
  51437 ****       134.5000 155.0000 125.5000 Du        
  51438 ****       134.5000 155.0000 125.7500 Du        
  51439 ****       134.5000 155.0000 126.0000 Du        
  51440 ****       134.5000 155.0000 126.2500 Du        
  51441 ****       134.5000 155.2500 124.5000 Du        
  51442 ****       134.5000 155.2500 124.7500 Du        
  51443 ****       134.5000 155.2500 125.0000 Du        
  51444 ****       134.5000 155.2500 125.2500 Du        
  51445 ****       134.5000 155.2500 125.5000 Du        
  51446 ****       134.5000 155.2500 125.7500 Du        
  51447 ****       134.5000 155.2500 126.0000 Du        
  51448 ****       134.5000 155.5000 124.2500 Du        
  51449 ****       134.5000 155.5000 124.5000 Du        
  51450 ****       134.5000 155.5000 124.7500 Du        
  51451 ****       134.5000 155.5000 125.0000 Du        
  51452 ****       134.5000 155.5000 125.2500 Du        
  51453 ****       134.5000 155.5000 125.5000 Du        
  51454 ****       134.5000 155.5000 125.7500 Du        
  51455 ****       134.5000 155.5000 126.0000 Du        
  51456 ****       134.5000 155.7500 124.0000 Du        
  51457 ****       134.5000 155.7500 124.2500 Du        
  51458 ****       134.5000 155.7500 124.5000 Du        
  51459 ****       134.5000 155.7500 124.7500 Du        
  51460 ****       134.5000 155.7500 125.0000 Du        
  51461 ****       134.5000 155.7500 125.2500 Du        
  51462 ****       134.5000 155.7500 125.5000 Du        
  51463 ****       134.5000 155.7500 125.7500 Du        
  51464 ****       134.5000 156.0000 117.5000 Du        
  51465 ****       134.5000 156.0000 117.7500 Du        
  51466 ****       134.5000 156.0000 124.0000 Du        
  51467 ****       134.5000 156.0000 124.2500 Du        
  51468 ****       134.5000 156.0000 124.5000 Du        
  51469 ****       134.5000 156.0000 124.7500 Du        
  51470 ****       134.5000 156.0000 125.0000 Du        
  51471 ****       134.5000 156.0000 125.2500 Du        
  51472 ****       134.5000 156.0000 125.5000 Du        
  51473 ****       134.5000 156.2500 117.2500 Du        
  51474 ****       134.5000 156.2500 117.5000 Du        
  51475 ****       134.5000 156.2500 117.7500 Du        
  51476 ****       134.5000 156.2500 118.0000 Du        
  51477 ****       134.5000 156.2500 124.2500 Du        
  51478 ****       134.5000 156.2500 124.5000 Du        
  51479 ****       134.5000 156.2500 124.7500 Du        
  51480 ****       134.5000 156.2500 125.0000 Du        
  51481 ****       134.5000 156.2500 125.2500 Du        
  51482 ****       134.5000 156.2500 125.5000 Du        
  51483 ****       134.5000 156.5000 117.2500 Du        
  51484 ****       134.5000 156.5000 117.5000 Du        
  51485 ****       134.5000 156.5000 117.7500 Du        
  51486 ****       134.5000 156.5000 118.0000 Du        
  51487 ****       134.5000 156.5000 118.2500 Du        
  51488 ****       134.5000 156.5000 124.2500 Du        
  51489 ****       134.5000 156.5000 124.5000 Du        
  51490 ****       134.5000 156.5000 124.7500 Du        
  51491 ****       134.5000 156.5000 125.0000 Du        
  51492 ****       134.5000 156.5000 125.2500 Du        
  51493 ****       134.5000 156.7500 117.0000 Du        
  51494 ****       134.5000 156.7500 117.2500 Du        
  51495 ****       134.5000 156.7500 117.5000 Du        
  51496 ****       134.5000 156.7500 117.7500 Du        
  51497 ****       134.5000 156.7500 118.0000 Du        
  51498 ****       134.5000 156.7500 118.2500 Du        
  51499 ****       134.5000 156.7500 118.5000 Du        
  51500 ****       134.5000 156.7500 118.7500 Du        
  51501 ****       134.5000 156.7500 119.0000 Du        
  51502 ****       134.5000 156.7500 124.7500 Du        
  51503 ****       134.5000 156.7500 125.0000 Du        
  51504 ****       134.5000 156.7500 125.2500 Du        
  51505 ****       134.5000 157.0000 117.0000 Du        
  51506 ****       134.5000 157.0000 117.2500 Du        
  51507 ****       134.5000 157.0000 117.5000 Du        
  51508 ****       134.5000 157.0000 117.7500 Du        
  51509 ****       134.5000 157.0000 118.0000 Du        
  51510 ****       134.5000 157.0000 118.2500 Du        
  51511 ****       134.5000 157.0000 118.5000 Du        
  51512 ****       134.5000 157.0000 118.7500 Du        
  51513 ****       134.5000 157.0000 119.0000 Du        
  51514 ****       134.5000 157.0000 119.2500 Du        
  51515 ****       134.5000 157.0000 119.5000 Du        
  51516 ****       134.5000 157.0000 125.0000 Du        
  51517 ****       134.5000 157.0000 125.2500 Du        
  51518 ****       134.5000 157.2500 116.7500 Du        
  51519 ****       134.5000 157.2500 117.0000 Du        
  51520 ****       134.5000 157.2500 117.2500 Du        
  51521 ****       134.5000 157.2500 117.5000 Du        
  51522 ****       134.5000 157.2500 117.7500 Du        
  51523 ****       134.5000 157.2500 118.0000 Du        
  51524 ****       134.5000 157.2500 118.2500 Du        
  51525 ****       134.5000 157.2500 118.5000 Du        
  51526 ****       134.5000 157.2500 118.7500 Du        
  51527 ****       134.5000 157.2500 119.0000 Du        
  51528 ****       134.5000 157.2500 119.2500 Du        
  51529 ****       134.5000 157.2500 119.5000 Du        
  51530 ****       134.5000 157.5000 116.5000 Du        
  51531 ****       134.5000 157.5000 116.7500 Du        
  51532 ****       134.5000 157.5000 117.0000 Du        
  51533 ****       134.5000 157.5000 117.2500 Du        
  51534 ****       134.5000 157.5000 117.5000 Du        
  51535 ****       134.5000 157.5000 117.7500 Du        
  51536 ****       134.5000 157.5000 118.0000 Du        
  51537 ****       134.5000 157.5000 118.2500 Du        
  51538 ****       134.5000 157.5000 118.5000 Du        
  51539 ****       134.5000 157.5000 118.7500 Du        
  51540 ****       134.5000 157.5000 119.0000 Du        
  51541 ****       134.5000 157.5000 119.2500 Du        
  51542 ****       134.5000 157.7500 116.5000 Du        
  51543 ****       134.5000 157.7500 116.7500 Du        
  51544 ****       134.5000 157.7500 117.0000 Du        
  51545 ****       134.5000 157.7500 117.2500 Du        
  51546 ****       134.5000 157.7500 117.5000 Du        
  51547 ****       134.5000 157.7500 117.7500 Du        
  51548 ****       134.5000 157.7500 118.0000 Du        
  51549 ****       134.5000 157.7500 118.2500 Du        
  51550 ****       134.5000 157.7500 118.5000 Du        
  51551 ****       134.5000 157.7500 118.7500 Du        
  51552 ****       134.5000 157.7500 119.0000 Du        
  51553 ****       134.5000 158.0000 116.5000 Du        
  51554 ****       134.5000 158.0000 116.7500 Du        
  51555 ****       134.5000 158.0000 117.0000 Du        
  51556 ****       134.5000 158.0000 117.2500 Du        
  51557 ****       134.5000 158.0000 117.5000 Du        
  51558 ****       134.5000 158.0000 117.7500 Du        
  51559 ****       134.5000 158.0000 118.0000 Du        
  51560 ****       134.5000 158.0000 118.2500 Du        
  51561 ****       134.5000 158.0000 118.5000 Du        
  51562 ****       134.5000 158.2500 116.5000 Du        
  51563 ****       134.5000 158.2500 116.7500 Du        
  51564 ****       134.5000 158.2500 117.0000 Du        
  51565 ****       134.5000 158.2500 117.2500 Du        
  51566 ****       134.5000 158.2500 117.5000 Du        
  51567 ****       134.5000 158.2500 117.7500 Du        
  51568 ****       134.5000 158.2500 118.0000 Du        
  51569 ****       134.5000 158.5000 142.2500 Du        
  51570 ****       134.5000 158.7500 142.2500 Du        
  51571 ****       134.7500 145.7500 131.0000 Du        
  51572 ****       134.7500 151.0000 126.0000 Du        
  51573 ****       134.7500 151.2500 126.0000 Du        
  51574 ****       134.7500 151.2500 126.2500 Du        
  51575 ****       134.7500 151.5000 126.0000 Du        
  51576 ****       134.7500 151.5000 126.2500 Du        
  51577 ****       134.7500 151.5000 126.5000 Du        
  51578 ****       134.7500 151.7500 126.0000 Du        
  51579 ****       134.7500 151.7500 126.2500 Du        
  51580 ****       134.7500 151.7500 126.5000 Du        
  51581 ****       134.7500 151.7500 126.7500 Du        
  51582 ****       134.7500 152.0000 126.0000 Du        
  51583 ****       134.7500 152.0000 126.2500 Du        
  51584 ****       134.7500 152.0000 126.5000 Du        
  51585 ****       134.7500 152.0000 126.7500 Du        
  51586 ****       134.7500 152.0000 127.0000 Du        
  51587 ****       134.7500 152.2500 126.0000 Du        
  51588 ****       134.7500 152.2500 126.2500 Du        
  51589 ****       134.7500 152.2500 126.5000 Du        
  51590 ****       134.7500 152.2500 126.7500 Du        
  51591 ****       134.7500 152.2500 127.0000 Du        
  51592 ****       134.7500 152.5000 126.0000 Du        
  51593 ****       134.7500 152.5000 126.2500 Du        
  51594 ****       134.7500 152.5000 126.5000 Du        
  51595 ****       134.7500 152.5000 126.7500 Du        
  51596 ****       134.7500 152.5000 127.0000 Du        
  51597 ****       134.7500 152.5000 127.2500 Du        
  51598 ****       134.7500 152.7500 126.0000 Du        
  51599 ****       134.7500 152.7500 126.2500 Du        
  51600 ****       134.7500 152.7500 126.5000 Du        
  51601 ****       134.7500 152.7500 126.7500 Du        
  51602 ****       134.7500 152.7500 127.0000 Du        
  51603 ****       134.7500 152.7500 127.2500 Du        
  51604 ****       134.7500 153.0000 126.0000 Du        
  51605 ****       134.7500 153.0000 126.2500 Du        
  51606 ****       134.7500 153.0000 126.5000 Du        
  51607 ****       134.7500 153.0000 126.7500 Du        
  51608 ****       134.7500 153.0000 127.0000 Du        
  51609 ****       134.7500 153.0000 127.2500 Du        
  51610 ****       134.7500 153.2500 126.0000 Du        
  51611 ****       134.7500 153.2500 126.2500 Du        
  51612 ****       134.7500 153.2500 126.5000 Du        
  51613 ****       134.7500 153.2500 126.7500 Du        
  51614 ****       134.7500 153.2500 127.0000 Du        
  51615 ****       134.7500 153.2500 127.2500 Du        
  51616 ****       134.7500 153.2500 127.5000 Du        
  51617 ****       134.7500 153.5000 126.0000 Du        
  51618 ****       134.7500 153.5000 126.2500 Du        
  51619 ****       134.7500 153.5000 126.5000 Du        
  51620 ****       134.7500 153.5000 126.7500 Du        
  51621 ****       134.7500 153.5000 127.0000 Du        
  51622 ****       134.7500 153.5000 127.2500 Du        
  51623 ****       134.7500 153.5000 127.5000 Du        
  51624 ****       134.7500 153.5000 147.0000 Du        
  51625 ****       134.7500 153.7500 125.7500 Du        
  51626 ****       134.7500 153.7500 126.0000 Du        
  51627 ****       134.7500 153.7500 126.2500 Du        
  51628 ****       134.7500 153.7500 126.5000 Du        
  51629 ****       134.7500 153.7500 126.7500 Du        
  51630 ****       134.7500 153.7500 127.0000 Du        
  51631 ****       134.7500 153.7500 127.2500 Du        
  51632 ****       134.7500 153.7500 127.5000 Du        
  51633 ****       134.7500 153.7500 146.7500 Du        
  51634 ****       134.7500 153.7500 147.0000 Du        
  51635 ****       134.7500 154.0000 125.7500 Du        
  51636 ****       134.7500 154.0000 126.0000 Du        
  51637 ****       134.7500 154.0000 126.2500 Du        
  51638 ****       134.7500 154.0000 126.5000 Du        
  51639 ****       134.7500 154.0000 126.7500 Du        
  51640 ****       134.7500 154.0000 127.0000 Du        
  51641 ****       134.7500 154.0000 127.2500 Du        
  51642 ****       134.7500 154.2500 125.7500 Du        
  51643 ****       134.7500 154.2500 126.0000 Du        
  51644 ****       134.7500 154.2500 126.2500 Du        
  51645 ****       134.7500 154.2500 126.5000 Du        
  51646 ****       134.7500 154.2500 126.7500 Du        
  51647 ****       134.7500 154.5000 125.5000 Du        
  51648 ****       134.7500 154.5000 125.7500 Du        
  51649 ****       134.7500 154.5000 126.0000 Du        
  51650 ****       134.7500 154.5000 126.2500 Du        
  51651 ****       134.7500 154.5000 126.5000 Du        
  51652 ****       134.7500 154.7500 125.2500 Du        
  51653 ****       134.7500 154.7500 125.5000 Du        
  51654 ****       134.7500 154.7500 125.7500 Du        
  51655 ****       134.7500 154.7500 126.0000 Du        
  51656 ****       134.7500 154.7500 126.2500 Du        
  51657 ****       134.7500 155.0000 125.0000 Du        
  51658 ****       134.7500 155.0000 125.2500 Du        
  51659 ****       134.7500 155.0000 125.5000 Du        
  51660 ****       134.7500 155.0000 125.7500 Du        
  51661 ****       134.7500 155.0000 126.0000 Du        
  51662 ****       134.7500 155.0000 126.2500 Du        
  51663 ****       134.7500 155.2500 124.5000 Du        
  51664 ****       134.7500 155.2500 124.7500 Du        
  51665 ****       134.7500 155.2500 125.0000 Du        
  51666 ****       134.7500 155.2500 125.2500 Du        
  51667 ****       134.7500 155.2500 125.5000 Du        
  51668 ****       134.7500 155.2500 125.7500 Du        
  51669 ****       134.7500 155.2500 126.0000 Du        
  51670 ****       134.7500 155.5000 124.2500 Du        
  51671 ****       134.7500 155.5000 124.5000 Du        
  51672 ****       134.7500 155.5000 124.7500 Du        
  51673 ****       134.7500 155.5000 125.0000 Du        
  51674 ****       134.7500 155.5000 125.2500 Du        
  51675 ****       134.7500 155.5000 125.5000 Du        
  51676 ****       134.7500 155.5000 125.7500 Du        
  51677 ****       134.7500 155.7500 124.0000 Du        
  51678 ****       134.7500 155.7500 124.2500 Du        
  51679 ****       134.7500 155.7500 124.5000 Du        
  51680 ****       134.7500 155.7500 124.7500 Du        
  51681 ****       134.7500 155.7500 125.0000 Du        
  51682 ****       134.7500 155.7500 125.2500 Du        
  51683 ****       134.7500 155.7500 125.5000 Du        
  51684 ****       134.7500 156.0000 117.2500 Du        
  51685 ****       134.7500 156.0000 117.5000 Du        
  51686 ****       134.7500 156.0000 117.7500 Du        
  51687 ****       134.7500 156.0000 118.0000 Du        
  51688 ****       134.7500 156.0000 123.7500 Du        
  51689 ****       134.7500 156.0000 124.0000 Du        
  51690 ****       134.7500 156.0000 124.2500 Du        
  51691 ****       134.7500 156.0000 124.5000 Du        
  51692 ****       134.7500 156.0000 124.7500 Du        
  51693 ****       134.7500 156.0000 125.0000 Du        
  51694 ****       134.7500 156.0000 125.2500 Du        
  51695 ****       134.7500 156.0000 125.5000 Du        
  51696 ****       134.7500 156.2500 117.2500 Du        
  51697 ****       134.7500 156.2500 117.5000 Du        
  51698 ****       134.7500 156.2500 117.7500 Du        
  51699 ****       134.7500 156.2500 118.0000 Du        
  51700 ****       134.7500 156.2500 118.2500 Du        
  51701 ****       134.7500 156.2500 124.0000 Du        
  51702 ****       134.7500 156.2500 124.2500 Du        
  51703 ****       134.7500 156.2500 124.5000 Du        
  51704 ****       134.7500 156.2500 124.7500 Du        
  51705 ****       134.7500 156.2500 125.0000 Du        
  51706 ****       134.7500 156.2500 125.2500 Du        
  51707 ****       134.7500 156.5000 117.2500 Du        
  51708 ****       134.7500 156.5000 117.5000 Du        
  51709 ****       134.7500 156.5000 117.7500 Du        
  51710 ****       134.7500 156.5000 118.0000 Du        
  51711 ****       134.7500 156.5000 118.2500 Du        
  51712 ****       134.7500 156.5000 118.5000 Du        
  51713 ****       134.7500 156.5000 118.7500 Du        
  51714 ****       134.7500 156.5000 124.2500 Du        
  51715 ****       134.7500 156.5000 124.5000 Du        
  51716 ****       134.7500 156.5000 124.7500 Du        
  51717 ****       134.7500 156.5000 125.0000 Du        
  51718 ****       134.7500 156.5000 125.2500 Du        
  51719 ****       134.7500 156.7500 117.0000 Du        
  51720 ****       134.7500 156.7500 117.2500 Du        
  51721 ****       134.7500 156.7500 117.5000 Du        
  51722 ****       134.7500 156.7500 117.7500 Du        
  51723 ****       134.7500 156.7500 118.0000 Du        
  51724 ****       134.7500 156.7500 118.2500 Du        
  51725 ****       134.7500 156.7500 118.5000 Du        
  51726 ****       134.7500 156.7500 118.7500 Du        
  51727 ****       134.7500 156.7500 119.0000 Du        
  51728 ****       134.7500 156.7500 119.2500 Du        
  51729 ****       134.7500 156.7500 119.5000 Du        
  51730 ****       134.7500 156.7500 124.7500 Du        
  51731 ****       134.7500 156.7500 125.0000 Du        
  51732 ****       134.7500 156.7500 125.2500 Du        
  51733 ****       134.7500 157.0000 116.7500 Du        
  51734 ****       134.7500 157.0000 117.0000 Du        
  51735 ****       134.7500 157.0000 117.2500 Du        
  51736 ****       134.7500 157.0000 117.5000 Du        
  51737 ****       134.7500 157.0000 117.7500 Du        
  51738 ****       134.7500 157.0000 118.0000 Du        
  51739 ****       134.7500 157.0000 118.2500 Du        
  51740 ****       134.7500 157.0000 118.5000 Du        
  51741 ****       134.7500 157.0000 118.7500 Du        
  51742 ****       134.7500 157.0000 119.0000 Du        
  51743 ****       134.7500 157.0000 119.2500 Du        
  51744 ****       134.7500 157.0000 119.5000 Du        
  51745 ****       134.7500 157.0000 119.7500 Du        
  51746 ****       134.7500 157.2500 116.7500 Du        
  51747 ****       134.7500 157.2500 117.0000 Du        
  51748 ****       134.7500 157.2500 117.2500 Du        
  51749 ****       134.7500 157.2500 117.5000 Du        
  51750 ****       134.7500 157.2500 117.7500 Du        
  51751 ****       134.7500 157.2500 118.0000 Du        
  51752 ****       134.7500 157.2500 118.2500 Du        
  51753 ****       134.7500 157.2500 118.5000 Du        
  51754 ****       134.7500 157.2500 118.7500 Du        
  51755 ****       134.7500 157.2500 119.0000 Du        
  51756 ****       134.7500 157.2500 119.2500 Du        
  51757 ****       134.7500 157.2500 119.5000 Du        
  51758 ****       134.7500 157.5000 116.7500 Du        
  51759 ****       134.7500 157.5000 117.0000 Du        
  51760 ****       134.7500 157.5000 117.2500 Du        
  51761 ****       134.7500 157.5000 117.5000 Du        
  51762 ****       134.7500 157.5000 117.7500 Du        
  51763 ****       134.7500 157.5000 118.0000 Du        
  51764 ****       134.7500 157.5000 118.2500 Du        
  51765 ****       134.7500 157.5000 118.5000 Du        
  51766 ****       134.7500 157.5000 118.7500 Du        
  51767 ****       134.7500 157.5000 119.0000 Du        
  51768 ****       134.7500 157.5000 119.2500 Du        
  51769 ****       134.7500 157.7500 116.5000 Du        
  51770 ****       134.7500 157.7500 116.7500 Du        
  51771 ****       134.7500 157.7500 117.0000 Du        
  51772 ****       134.7500 157.7500 117.2500 Du        
  51773 ****       134.7500 157.7500 117.5000 Du        
  51774 ****       134.7500 157.7500 117.7500 Du        
  51775 ****       134.7500 157.7500 118.0000 Du        
  51776 ****       134.7500 157.7500 118.2500 Du        
  51777 ****       134.7500 157.7500 118.5000 Du        
  51778 ****       134.7500 157.7500 118.7500 Du        
  51779 ****       134.7500 157.7500 119.0000 Du        
  51780 ****       134.7500 158.0000 116.5000 Du        
  51781 ****       134.7500 158.0000 116.7500 Du        
  51782 ****       134.7500 158.0000 117.0000 Du        
  51783 ****       134.7500 158.0000 117.2500 Du        
  51784 ****       134.7500 158.0000 117.5000 Du        
  51785 ****       134.7500 158.0000 117.7500 Du        
  51786 ****       134.7500 158.0000 118.0000 Du        
  51787 ****       134.7500 158.0000 118.2500 Du        
  51788 ****       134.7500 158.0000 118.5000 Du        
  51789 ****       134.7500 158.2500 116.5000 Du        
  51790 ****       134.7500 158.2500 116.7500 Du        
  51791 ****       134.7500 158.2500 117.0000 Du        
  51792 ****       134.7500 158.2500 117.2500 Du        
  51793 ****       134.7500 158.2500 117.5000 Du        
  51794 ****       134.7500 158.2500 117.7500 Du        
  51795 ****       134.7500 158.2500 118.0000 Du        
  51796 ****       134.7500 158.5000 116.7500 Du        
  51797 ****       134.7500 158.5000 117.0000 Du        
  51798 ****       134.7500 158.5000 117.2500 Du        
  51799 ****       134.7500 158.5000 117.5000 Du        
  51800 ****       134.7500 158.5000 117.7500 Du        
  51801 ****       134.7500 158.7500 116.5000 Du        
  51802 ****       134.7500 158.7500 116.7500 Du        
  51803 ****       134.7500 158.7500 117.0000 Du        
  51804 ****       135.0000 145.0000 116.7500 Du        
  51805 ****       135.0000 145.2500 116.7500 Du        
  51806 ****       135.0000 151.2500 126.0000 Du        
  51807 ****       135.0000 151.2500 126.2500 Du        
  51808 ****       135.0000 151.5000 126.0000 Du        
  51809 ****       135.0000 151.5000 126.2500 Du        
  51810 ****       135.0000 151.5000 126.5000 Du        
  51811 ****       135.0000 151.7500 126.0000 Du        
  51812 ****       135.0000 151.7500 126.2500 Du        
  51813 ****       135.0000 151.7500 126.5000 Du        
  51814 ****       135.0000 151.7500 126.7500 Du        
  51815 ****       135.0000 152.0000 126.0000 Du        
  51816 ****       135.0000 152.0000 126.2500 Du        
  51817 ****       135.0000 152.0000 126.5000 Du        
  51818 ****       135.0000 152.0000 126.7500 Du        
  51819 ****       135.0000 152.2500 126.0000 Du        
  51820 ****       135.0000 152.2500 126.2500 Du        
  51821 ****       135.0000 152.2500 126.5000 Du        
  51822 ****       135.0000 152.2500 126.7500 Du        
  51823 ****       135.0000 152.2500 127.0000 Du        
  51824 ****       135.0000 152.5000 126.0000 Du        
  51825 ****       135.0000 152.5000 126.2500 Du        
  51826 ****       135.0000 152.5000 126.5000 Du        
  51827 ****       135.0000 152.5000 126.7500 Du        
  51828 ****       135.0000 152.5000 127.0000 Du        
  51829 ****       135.0000 152.7500 126.0000 Du        
  51830 ****       135.0000 152.7500 126.2500 Du        
  51831 ****       135.0000 152.7500 126.5000 Du        
  51832 ****       135.0000 152.7500 126.7500 Du        
  51833 ****       135.0000 152.7500 127.0000 Du        
  51834 ****       135.0000 152.7500 127.2500 Du        
  51835 ****       135.0000 153.0000 126.0000 Du        
  51836 ****       135.0000 153.0000 126.2500 Du        
  51837 ****       135.0000 153.0000 126.5000 Du        
  51838 ****       135.0000 153.0000 126.7500 Du        
  51839 ****       135.0000 153.0000 127.0000 Du        
  51840 ****       135.0000 153.0000 127.2500 Du        
  51841 ****       135.0000 153.2500 126.0000 Du        
  51842 ****       135.0000 153.2500 126.2500 Du        
  51843 ****       135.0000 153.2500 126.5000 Du        
  51844 ****       135.0000 153.2500 126.7500 Du        
  51845 ****       135.0000 153.2500 127.0000 Du        
  51846 ****       135.0000 153.2500 127.2500 Du        
  51847 ****       135.0000 153.2500 127.5000 Du        
  51848 ****       135.0000 153.5000 126.0000 Du        
  51849 ****       135.0000 153.5000 126.2500 Du        
  51850 ****       135.0000 153.5000 126.5000 Du        
  51851 ****       135.0000 153.5000 126.7500 Du        
  51852 ****       135.0000 153.5000 127.0000 Du        
  51853 ****       135.0000 153.5000 127.2500 Du        
  51854 ****       135.0000 153.5000 127.5000 Du        
  51855 ****       135.0000 153.5000 147.0000 Du        
  51856 ****       135.0000 153.7500 126.0000 Du        
  51857 ****       135.0000 153.7500 126.2500 Du        
  51858 ****       135.0000 153.7500 126.5000 Du        
  51859 ****       135.0000 153.7500 126.7500 Du        
  51860 ****       135.0000 153.7500 127.0000 Du        
  51861 ****       135.0000 153.7500 127.2500 Du        
  51862 ****       135.0000 153.7500 127.5000 Du        
  51863 ****       135.0000 153.7500 147.0000 Du        
  51864 ****       135.0000 154.0000 125.7500 Du        
  51865 ****       135.0000 154.0000 126.0000 Du        
  51866 ****       135.0000 154.0000 126.2500 Du        
  51867 ****       135.0000 154.0000 126.5000 Du        
  51868 ****       135.0000 154.0000 126.7500 Du        
  51869 ****       135.0000 154.0000 127.0000 Du        
  51870 ****       135.0000 154.0000 127.2500 Du        
  51871 ****       135.0000 154.2500 125.7500 Du        
  51872 ****       135.0000 154.2500 126.0000 Du        
  51873 ****       135.0000 154.2500 126.2500 Du        
  51874 ****       135.0000 154.2500 126.5000 Du        
  51875 ****       135.0000 154.2500 126.7500 Du        
  51876 ****       135.0000 154.2500 127.0000 Du        
  51877 ****       135.0000 154.5000 125.7500 Du        
  51878 ****       135.0000 154.5000 126.0000 Du        
  51879 ****       135.0000 154.5000 126.2500 Du        
  51880 ****       135.0000 154.5000 126.5000 Du        
  51881 ****       135.0000 154.7500 125.5000 Du        
  51882 ****       135.0000 154.7500 125.7500 Du        
  51883 ****       135.0000 154.7500 126.0000 Du        
  51884 ****       135.0000 154.7500 126.2500 Du        
  51885 ****       135.0000 155.0000 125.0000 Du        
  51886 ****       135.0000 155.0000 125.2500 Du        
  51887 ****       135.0000 155.0000 125.5000 Du        
  51888 ****       135.0000 155.0000 125.7500 Du        
  51889 ****       135.0000 155.0000 126.0000 Du        
  51890 ****       135.0000 155.2500 124.7500 Du        
  51891 ****       135.0000 155.2500 125.0000 Du        
  51892 ****       135.0000 155.2500 125.2500 Du        
  51893 ****       135.0000 155.2500 125.5000 Du        
  51894 ****       135.0000 155.2500 125.7500 Du        
  51895 ****       135.0000 155.5000 124.2500 Du        
  51896 ****       135.0000 155.5000 124.5000 Du        
  51897 ****       135.0000 155.5000 124.7500 Du        
  51898 ****       135.0000 155.5000 125.0000 Du        
  51899 ****       135.0000 155.5000 125.2500 Du        
  51900 ****       135.0000 155.5000 125.5000 Du        
  51901 ****       135.0000 155.7500 117.2500 Du        
  51902 ****       135.0000 155.7500 117.5000 Du        
  51903 ****       135.0000 155.7500 117.7500 Du        
  51904 ****       135.0000 155.7500 123.7500 Du        
  51905 ****       135.0000 155.7500 124.0000 Du        
  51906 ****       135.0000 155.7500 124.2500 Du        
  51907 ****       135.0000 155.7500 124.5000 Du        
  51908 ****       135.0000 155.7500 124.7500 Du        
  51909 ****       135.0000 155.7500 125.0000 Du        
  51910 ****       135.0000 155.7500 125.2500 Du        
  51911 ****       135.0000 156.0000 117.0000 Du        
  51912 ****       135.0000 156.0000 117.2500 Du        
  51913 ****       135.0000 156.0000 117.5000 Du        
  51914 ****       135.0000 156.0000 117.7500 Du        
  51915 ****       135.0000 156.0000 118.0000 Du        
  51916 ****       135.0000 156.0000 118.2500 Du        
  51917 ****       135.0000 156.0000 123.7500 Du        
  51918 ****       135.0000 156.0000 124.0000 Du        
  51919 ****       135.0000 156.0000 124.2500 Du        
  51920 ****       135.0000 156.0000 124.5000 Du        
  51921 ****       135.0000 156.0000 124.7500 Du        
  51922 ****       135.0000 156.0000 125.0000 Du        
  51923 ****       135.0000 156.0000 125.2500 Du        
  51924 ****       135.0000 156.2500 117.2500 Du        
  51925 ****       135.0000 156.2500 117.5000 Du        
  51926 ****       135.0000 156.2500 117.7500 Du        
  51927 ****       135.0000 156.2500 118.0000 Du        
  51928 ****       135.0000 156.2500 118.2500 Du        
  51929 ****       135.0000 156.2500 118.5000 Du        
  51930 ****       135.0000 156.2500 118.7500 Du        
  51931 ****       135.0000 156.2500 119.0000 Du        
  51932 ****       135.0000 156.2500 123.7500 Du        
  51933 ****       135.0000 156.2500 124.0000 Du        
  51934 ****       135.0000 156.2500 124.2500 Du        
  51935 ****       135.0000 156.2500 124.5000 Du        
  51936 ****       135.0000 156.2500 124.7500 Du        
  51937 ****       135.0000 156.2500 125.0000 Du        
  51938 ****       135.0000 156.2500 125.2500 Du        
  51939 ****       135.0000 156.5000 117.2500 Du        
  51940 ****       135.0000 156.5000 117.5000 Du        
  51941 ****       135.0000 156.5000 117.7500 Du        
  51942 ****       135.0000 156.5000 118.0000 Du        
  51943 ****       135.0000 156.5000 118.2500 Du        
  51944 ****       135.0000 156.5000 118.5000 Du        
  51945 ****       135.0000 156.5000 118.7500 Du        
  51946 ****       135.0000 156.5000 119.0000 Du        
  51947 ****       135.0000 156.5000 119.2500 Du        
  51948 ****       135.0000 156.5000 119.5000 Du        
  51949 ****       135.0000 156.5000 124.2500 Du        
  51950 ****       135.0000 156.5000 124.5000 Du        
  51951 ****       135.0000 156.5000 124.7500 Du        
  51952 ****       135.0000 156.5000 125.0000 Du        
  51953 ****       135.0000 156.7500 117.0000 Du        
  51954 ****       135.0000 156.7500 117.2500 Du        
  51955 ****       135.0000 156.7500 117.5000 Du        
  51956 ****       135.0000 156.7500 117.7500 Du        
  51957 ****       135.0000 156.7500 118.0000 Du        
  51958 ****       135.0000 156.7500 118.2500 Du        
  51959 ****       135.0000 156.7500 118.5000 Du        
  51960 ****       135.0000 156.7500 118.7500 Du        
  51961 ****       135.0000 156.7500 119.0000 Du        
  51962 ****       135.0000 156.7500 119.2500 Du        
  51963 ****       135.0000 156.7500 119.5000 Du        
  51964 ****       135.0000 156.7500 119.7500 Du        
  51965 ****       135.0000 156.7500 120.0000 Du        
  51966 ****       135.0000 156.7500 124.7500 Du        
  51967 ****       135.0000 156.7500 125.0000 Du        
  51968 ****       135.0000 157.0000 116.7500 Du        
  51969 ****       135.0000 157.0000 117.0000 Du        
  51970 ****       135.0000 157.0000 117.2500 Du        
  51971 ****       135.0000 157.0000 117.5000 Du        
  51972 ****       135.0000 157.0000 117.7500 Du        
  51973 ****       135.0000 157.0000 118.0000 Du        
  51974 ****       135.0000 157.0000 118.2500 Du        
  51975 ****       135.0000 157.0000 118.5000 Du        
  51976 ****       135.0000 157.0000 118.7500 Du        
  51977 ****       135.0000 157.0000 119.0000 Du        
  51978 ****       135.0000 157.0000 119.2500 Du        
  51979 ****       135.0000 157.0000 119.5000 Du        
  51980 ****       135.0000 157.0000 119.7500 Du        
  51981 ****       135.0000 157.2500 116.7500 Du        
  51982 ****       135.0000 157.2500 117.0000 Du        
  51983 ****       135.0000 157.2500 117.2500 Du        
  51984 ****       135.0000 157.2500 117.5000 Du        
  51985 ****       135.0000 157.2500 117.7500 Du        
  51986 ****       135.0000 157.2500 118.0000 Du        
  51987 ****       135.0000 157.2500 118.2500 Du        
  51988 ****       135.0000 157.2500 118.5000 Du        
  51989 ****       135.0000 157.2500 118.7500 Du        
  51990 ****       135.0000 157.2500 119.0000 Du        
  51991 ****       135.0000 157.2500 119.2500 Du        
  51992 ****       135.0000 157.2500 119.5000 Du        
  51993 ****       135.0000 157.5000 117.0000 Du        
  51994 ****       135.0000 157.5000 117.2500 Du        
  51995 ****       135.0000 157.5000 117.5000 Du        
  51996 ****       135.0000 157.5000 117.7500 Du        
  51997 ****       135.0000 157.5000 118.0000 Du        
  51998 ****       135.0000 157.5000 118.2500 Du        
  51999 ****       135.0000 157.5000 118.5000 Du        
  52000 ****       135.0000 157.5000 118.7500 Du        
  52001 ****       135.0000 157.5000 119.0000 Du        
  52002 ****       135.0000 157.5000 119.2500 Du        
  52003 ****       135.0000 157.7500 116.5000 Du        
  52004 ****       135.0000 157.7500 116.7500 Du        
  52005 ****       135.0000 157.7500 117.0000 Du        
  52006 ****       135.0000 157.7500 117.2500 Du        
  52007 ****       135.0000 157.7500 117.5000 Du        
  52008 ****       135.0000 157.7500 117.7500 Du        
  52009 ****       135.0000 157.7500 118.0000 Du        
  52010 ****       135.0000 157.7500 118.2500 Du        
  52011 ****       135.0000 157.7500 118.5000 Du        
  52012 ****       135.0000 157.7500 118.7500 Du        
  52013 ****       135.0000 157.7500 119.0000 Du        
  52014 ****       135.0000 158.0000 116.5000 Du        
  52015 ****       135.0000 158.0000 116.7500 Du        
  52016 ****       135.0000 158.0000 117.0000 Du        
  52017 ****       135.0000 158.0000 117.2500 Du        
  52018 ****       135.0000 158.0000 117.5000 Du        
  52019 ****       135.0000 158.0000 117.7500 Du        
  52020 ****       135.0000 158.0000 118.0000 Du        
  52021 ****       135.0000 158.0000 118.2500 Du        
  52022 ****       135.0000 158.0000 118.5000 Du        
  52023 ****       135.0000 158.2500 116.5000 Du        
  52024 ****       135.0000 158.2500 116.7500 Du        
  52025 ****       135.0000 158.2500 117.0000 Du        
  52026 ****       135.0000 158.2500 117.2500 Du        
  52027 ****       135.0000 158.2500 117.5000 Du        
  52028 ****       135.0000 158.2500 117.7500 Du        
  52029 ****       135.0000 158.2500 118.0000 Du        
  52030 ****       135.0000 158.2500 118.2500 Du        
  52031 ****       135.0000 158.5000 116.5000 Du        
  52032 ****       135.0000 158.5000 116.7500 Du        
  52033 ****       135.0000 158.5000 117.0000 Du        
  52034 ****       135.0000 158.5000 117.2500 Du        
  52035 ****       135.0000 158.5000 117.5000 Du        
  52036 ****       135.0000 158.5000 117.7500 Du        
  52037 ****       135.0000 158.7500 116.2500 Du        
  52038 ****       135.0000 158.7500 116.5000 Du        
  52039 ****       135.0000 158.7500 116.7500 Du        
  52040 ****       135.0000 158.7500 117.0000 Du        
  52041 ****       135.0000 158.7500 117.2500 Du        
  52042 ****       135.0000 158.7500 117.5000 Du        
  52043 ****       135.0000 159.0000 116.0000 Du        
  52044 ****       135.0000 159.0000 116.2500 Du        
  52045 ****       135.0000 159.0000 116.5000 Du        
  52046 ****       135.0000 159.0000 116.7500 Du        
  52047 ****       135.0000 159.0000 117.0000 Du        
  52048 ****       135.0000 159.2500 115.7500 Du        
  52049 ****       135.0000 159.2500 116.0000 Du        
  52050 ****       135.2500 145.0000 116.7500 Du        
  52051 ****       135.2500 145.2500 116.7500 Du        
  52052 ****       135.2500 145.2500 117.0000 Du        
  52053 ****       135.2500 151.5000 126.0000 Du        
  52054 ****       135.2500 151.5000 126.2500 Du        
  52055 ****       135.2500 151.7500 126.0000 Du        
  52056 ****       135.2500 151.7500 126.2500 Du        
  52057 ****       135.2500 151.7500 126.5000 Du        
  52058 ****       135.2500 152.0000 126.0000 Du        
  52059 ****       135.2500 152.0000 126.2500 Du        
  52060 ****       135.2500 152.0000 126.5000 Du        
  52061 ****       135.2500 152.0000 126.7500 Du        
  52062 ****       135.2500 152.2500 126.0000 Du        
  52063 ****       135.2500 152.2500 126.2500 Du        
  52064 ****       135.2500 152.2500 126.5000 Du        
  52065 ****       135.2500 152.2500 126.7500 Du        
  52066 ****       135.2500 152.5000 126.0000 Du        
  52067 ****       135.2500 152.5000 126.2500 Du        
  52068 ****       135.2500 152.5000 126.5000 Du        
  52069 ****       135.2500 152.5000 126.7500 Du        
  52070 ****       135.2500 152.5000 127.0000 Du        
  52071 ****       135.2500 152.7500 126.0000 Du        
  52072 ****       135.2500 152.7500 126.2500 Du        
  52073 ****       135.2500 152.7500 126.5000 Du        
  52074 ****       135.2500 152.7500 126.7500 Du        
  52075 ****       135.2500 152.7500 127.0000 Du        
  52076 ****       135.2500 153.0000 126.0000 Du        
  52077 ****       135.2500 153.0000 126.2500 Du        
  52078 ****       135.2500 153.0000 126.5000 Du        
  52079 ****       135.2500 153.0000 126.7500 Du        
  52080 ****       135.2500 153.0000 127.0000 Du        
  52081 ****       135.2500 153.0000 127.2500 Du        
  52082 ****       135.2500 153.2500 126.0000 Du        
  52083 ****       135.2500 153.2500 126.2500 Du        
  52084 ****       135.2500 153.2500 126.5000 Du        
  52085 ****       135.2500 153.2500 126.7500 Du        
  52086 ****       135.2500 153.2500 127.0000 Du        
  52087 ****       135.2500 153.2500 127.2500 Du        
  52088 ****       135.2500 153.5000 126.0000 Du        
  52089 ****       135.2500 153.5000 126.2500 Du        
  52090 ****       135.2500 153.5000 126.5000 Du        
  52091 ****       135.2500 153.5000 126.7500 Du        
  52092 ****       135.2500 153.5000 127.0000 Du        
  52093 ****       135.2500 153.5000 127.2500 Du        
  52094 ****       135.2500 153.7500 126.0000 Du        
  52095 ****       135.2500 153.7500 126.2500 Du        
  52096 ****       135.2500 153.7500 126.5000 Du        
  52097 ****       135.2500 153.7500 126.7500 Du        
  52098 ****       135.2500 153.7500 127.0000 Du        
  52099 ****       135.2500 153.7500 127.2500 Du        
  52100 ****       135.2500 153.7500 127.5000 Du        
  52101 ****       135.2500 154.0000 126.0000 Du        
  52102 ****       135.2500 154.0000 126.2500 Du        
  52103 ****       135.2500 154.0000 126.5000 Du        
  52104 ****       135.2500 154.0000 126.7500 Du        
  52105 ****       135.2500 154.0000 127.0000 Du        
  52106 ****       135.2500 154.0000 127.2500 Du        
  52107 ****       135.2500 154.2500 126.2500 Du        
  52108 ****       135.2500 154.2500 126.7500 Du        
  52109 ****       135.2500 155.2500 124.7500 Du        
  52110 ****       135.2500 155.2500 125.0000 Du        
  52111 ****       135.2500 155.2500 125.2500 Du        
  52112 ****       135.2500 155.5000 117.7500 Du        
  52113 ****       135.2500 155.5000 124.2500 Du        
  52114 ****       135.2500 155.5000 124.5000 Du        
  52115 ****       135.2500 155.5000 124.7500 Du        
  52116 ****       135.2500 155.5000 125.0000 Du        
  52117 ****       135.2500 155.5000 125.2500 Du        
  52118 ****       135.2500 155.7500 117.2500 Du        
  52119 ****       135.2500 155.7500 117.5000 Du        
  52120 ****       135.2500 155.7500 117.7500 Du        
  52121 ****       135.2500 155.7500 118.0000 Du        
  52122 ****       135.2500 155.7500 118.2500 Du        
  52123 ****       135.2500 155.7500 118.5000 Du        
  52124 ****       135.2500 155.7500 123.5000 Du        
  52125 ****       135.2500 155.7500 123.7500 Du        
  52126 ****       135.2500 155.7500 124.0000 Du        
  52127 ****       135.2500 155.7500 124.2500 Du        
  52128 ****       135.2500 155.7500 124.5000 Du        
  52129 ****       135.2500 155.7500 124.7500 Du        
  52130 ****       135.2500 155.7500 125.0000 Du        
  52131 ****       135.2500 155.7500 125.2500 Du        
  52132 ****       135.2500 156.0000 117.2500 Du        
  52133 ****       135.2500 156.0000 117.5000 Du        
  52134 ****       135.2500 156.0000 117.7500 Du        
  52135 ****       135.2500 156.0000 118.0000 Du        
  52136 ****       135.2500 156.0000 118.2500 Du        
  52137 ****       135.2500 156.0000 118.5000 Du        
  52138 ****       135.2500 156.0000 118.7500 Du        
  52139 ****       135.2500 156.0000 119.0000 Du        
  52140 ****       135.2500 156.0000 123.5000 Du        
  52141 ****       135.2500 156.0000 123.7500 Du        
  52142 ****       135.2500 156.0000 124.0000 Du        
  52143 ****       135.2500 156.0000 124.2500 Du        
  52144 ****       135.2500 156.0000 124.5000 Du        
  52145 ****       135.2500 156.0000 124.7500 Du        
  52146 ****       135.2500 156.0000 125.0000 Du        
  52147 ****       135.2500 156.2500 117.2500 Du        
  52148 ****       135.2500 156.2500 117.5000 Du        
  52149 ****       135.2500 156.2500 117.7500 Du        
  52150 ****       135.2500 156.2500 118.0000 Du        
  52151 ****       135.2500 156.2500 118.2500 Du        
  52152 ****       135.2500 156.2500 118.5000 Du        
  52153 ****       135.2500 156.2500 118.7500 Du        
  52154 ****       135.2500 156.2500 119.0000 Du        
  52155 ****       135.2500 156.2500 119.2500 Du        
  52156 ****       135.2500 156.2500 119.5000 Du        
  52157 ****       135.2500 156.2500 119.7500 Du        
  52158 ****       135.2500 156.2500 120.0000 Du        
  52159 ****       135.2500 156.2500 120.2500 Du        
  52160 ****       135.2500 156.2500 123.7500 Du        
  52161 ****       135.2500 156.2500 124.0000 Du        
  52162 ****       135.2500 156.2500 124.2500 Du        
  52163 ****       135.2500 156.2500 124.5000 Du        
  52164 ****       135.2500 156.2500 124.7500 Du        
  52165 ****       135.2500 156.2500 125.0000 Du        
  52166 ****       135.2500 156.5000 117.2500 Du        
  52167 ****       135.2500 156.5000 117.5000 Du        
  52168 ****       135.2500 156.5000 117.7500 Du        
  52169 ****       135.2500 156.5000 118.0000 Du        
  52170 ****       135.2500 156.5000 118.2500 Du        
  52171 ****       135.2500 156.5000 118.5000 Du        
  52172 ****       135.2500 156.5000 118.7500 Du        
  52173 ****       135.2500 156.5000 119.0000 Du        
  52174 ****       135.2500 156.5000 119.2500 Du        
  52175 ****       135.2500 156.5000 119.5000 Du        
  52176 ****       135.2500 156.5000 119.7500 Du        
  52177 ****       135.2500 156.5000 120.0000 Du        
  52178 ****       135.2500 156.5000 120.2500 Du        
  52179 ****       135.2500 156.5000 124.2500 Du        
  52180 ****       135.2500 156.5000 124.5000 Du        
  52181 ****       135.2500 156.5000 124.7500 Du        
  52182 ****       135.2500 156.5000 125.0000 Du        
  52183 ****       135.2500 156.7500 117.0000 Du        
  52184 ****       135.2500 156.7500 117.2500 Du        
  52185 ****       135.2500 156.7500 117.5000 Du        
  52186 ****       135.2500 156.7500 117.7500 Du        
  52187 ****       135.2500 156.7500 118.0000 Du        
  52188 ****       135.2500 156.7500 118.2500 Du        
  52189 ****       135.2500 156.7500 118.5000 Du        
  52190 ****       135.2500 156.7500 118.7500 Du        
  52191 ****       135.2500 156.7500 119.0000 Du        
  52192 ****       135.2500 156.7500 119.2500 Du        
  52193 ****       135.2500 156.7500 119.5000 Du        
  52194 ****       135.2500 156.7500 119.7500 Du        
  52195 ****       135.2500 156.7500 120.0000 Du        
  52196 ****       135.2500 156.7500 120.2500 Du        
  52197 ****       135.2500 156.7500 124.7500 Du        
  52198 ****       135.2500 157.0000 117.0000 Du        
  52199 ****       135.2500 157.0000 117.2500 Du        
  52200 ****       135.2500 157.0000 117.5000 Du        
  52201 ****       135.2500 157.0000 117.7500 Du        
  52202 ****       135.2500 157.0000 118.0000 Du        
  52203 ****       135.2500 157.0000 118.2500 Du        
  52204 ****       135.2500 157.0000 118.5000 Du        
  52205 ****       135.2500 157.0000 118.7500 Du        
  52206 ****       135.2500 157.0000 119.0000 Du        
  52207 ****       135.2500 157.0000 119.2500 Du        
  52208 ****       135.2500 157.0000 119.5000 Du        
  52209 ****       135.2500 157.0000 119.7500 Du        
  52210 ****       135.2500 157.0000 120.0000 Du        
  52211 ****       135.2500 157.2500 117.0000 Du        
  52212 ****       135.2500 157.2500 117.2500 Du        
  52213 ****       135.2500 157.2500 117.5000 Du        
  52214 ****       135.2500 157.2500 117.7500 Du        
  52215 ****       135.2500 157.2500 118.0000 Du        
  52216 ****       135.2500 157.2500 118.2500 Du        
  52217 ****       135.2500 157.2500 118.5000 Du        
  52218 ****       135.2500 157.2500 118.7500 Du        
  52219 ****       135.2500 157.2500 119.0000 Du        
  52220 ****       135.2500 157.2500 119.2500 Du        
  52221 ****       135.2500 157.2500 119.5000 Du        
  52222 ****       135.2500 157.2500 119.7500 Du        
  52223 ****       135.2500 157.5000 117.0000 Du        
  52224 ****       135.2500 157.5000 117.2500 Du        
  52225 ****       135.2500 157.5000 117.5000 Du        
  52226 ****       135.2500 157.5000 117.7500 Du        
  52227 ****       135.2500 157.5000 118.0000 Du        
  52228 ****       135.2500 157.5000 118.2500 Du        
  52229 ****       135.2500 157.5000 118.5000 Du        
  52230 ****       135.2500 157.5000 118.7500 Du        
  52231 ****       135.2500 157.5000 119.0000 Du        
  52232 ****       135.2500 157.5000 119.2500 Du        
  52233 ****       135.2500 157.7500 116.7500 Du        
  52234 ****       135.2500 157.7500 117.0000 Du        
  52235 ****       135.2500 157.7500 117.2500 Du        
  52236 ****       135.2500 157.7500 117.5000 Du        
  52237 ****       135.2500 157.7500 117.7500 Du        
  52238 ****       135.2500 157.7500 118.0000 Du        
  52239 ****       135.2500 157.7500 118.2500 Du        
  52240 ****       135.2500 157.7500 118.5000 Du        
  52241 ****       135.2500 157.7500 118.7500 Du        
  52242 ****       135.2500 157.7500 119.0000 Du        
  52243 ****       135.2500 158.0000 116.5000 Du        
  52244 ****       135.2500 158.0000 116.7500 Du        
  52245 ****       135.2500 158.0000 117.0000 Du        
  52246 ****       135.2500 158.0000 117.2500 Du        
  52247 ****       135.2500 158.0000 117.5000 Du        
  52248 ****       135.2500 158.0000 117.7500 Du        
  52249 ****       135.2500 158.0000 118.0000 Du        
  52250 ****       135.2500 158.0000 118.2500 Du        
  52251 ****       135.2500 158.0000 118.5000 Du        
  52252 ****       135.2500 158.2500 116.5000 Du        
  52253 ****       135.2500 158.2500 116.7500 Du        
  52254 ****       135.2500 158.2500 117.0000 Du        
  52255 ****       135.2500 158.2500 117.2500 Du        
  52256 ****       135.2500 158.2500 117.5000 Du        
  52257 ****       135.2500 158.2500 117.7500 Du        
  52258 ****       135.2500 158.2500 118.0000 Du        
  52259 ****       135.2500 158.5000 116.5000 Du        
  52260 ****       135.2500 158.5000 116.7500 Du        
  52261 ****       135.2500 158.5000 117.0000 Du        
  52262 ****       135.2500 158.5000 117.2500 Du        
  52263 ****       135.2500 158.5000 117.5000 Du        
  52264 ****       135.2500 158.5000 117.7500 Du        
  52265 ****       135.2500 158.7500 116.2500 Du        
  52266 ****       135.2500 158.7500 116.5000 Du        
  52267 ****       135.2500 158.7500 116.7500 Du        
  52268 ****       135.2500 158.7500 117.0000 Du        
  52269 ****       135.2500 158.7500 117.2500 Du        
  52270 ****       135.2500 158.7500 117.5000 Du        
  52271 ****       135.2500 158.7500 117.7500 Du        
  52272 ****       135.2500 159.0000 115.7500 Du        
  52273 ****       135.2500 159.0000 116.0000 Du        
  52274 ****       135.2500 159.0000 116.2500 Du        
  52275 ****       135.2500 159.0000 116.5000 Du        
  52276 ****       135.2500 159.0000 116.7500 Du        
  52277 ****       135.2500 159.0000 117.0000 Du        
  52278 ****       135.2500 159.0000 117.2500 Du        
  52279 ****       135.2500 159.0000 117.5000 Du        
  52280 ****       135.2500 159.2500 115.7500 Du        
  52281 ****       135.2500 159.2500 116.0000 Du        
  52282 ****       135.2500 159.2500 116.2500 Du        
  52283 ****       135.2500 159.2500 116.5000 Du        
  52284 ****       135.2500 159.2500 116.7500 Du        
  52285 ****       135.2500 159.2500 117.0000 Du        
  52286 ****       135.2500 159.5000 116.0000 Du        
  52287 ****       135.2500 159.5000 116.2500 Du        
  52288 ****       135.2500 159.5000 116.5000 Du        
  52289 ****       135.5000 144.7500 116.7500 Du        
  52290 ****       135.5000 145.0000 116.7500 Du        
  52291 ****       135.5000 145.0000 117.0000 Du        
  52292 ****       135.5000 145.2500 116.7500 Du        
  52293 ****       135.5000 145.2500 117.0000 Du        
  52294 ****       135.5000 145.2500 130.7500 Du        
  52295 ****       135.5000 151.7500 126.0000 Du        
  52296 ****       135.5000 151.7500 126.2500 Du        
  52297 ****       135.5000 152.0000 126.0000 Du        
  52298 ****       135.5000 152.0000 126.2500 Du        
  52299 ****       135.5000 152.0000 126.5000 Du        
  52300 ****       135.5000 152.2500 126.0000 Du        
  52301 ****       135.5000 152.2500 126.2500 Du        
  52302 ****       135.5000 152.2500 126.5000 Du        
  52303 ****       135.5000 152.2500 126.7500 Du        
  52304 ****       135.5000 152.5000 126.0000 Du        
  52305 ****       135.5000 152.5000 126.2500 Du        
  52306 ****       135.5000 152.5000 126.5000 Du        
  52307 ****       135.5000 152.5000 126.7500 Du        
  52308 ****       135.5000 152.7500 126.0000 Du        
  52309 ****       135.5000 152.7500 126.2500 Du        
  52310 ****       135.5000 152.7500 126.5000 Du        
  52311 ****       135.5000 152.7500 126.7500 Du        
  52312 ****       135.5000 152.7500 127.0000 Du        
  52313 ****       135.5000 153.0000 126.2500 Du        
  52314 ****       135.5000 153.0000 126.5000 Du        
  52315 ****       135.5000 153.0000 126.7500 Du        
  52316 ****       135.5000 153.0000 127.0000 Du        
  52317 ****       135.5000 153.2500 126.2500 Du        
  52318 ****       135.5000 153.2500 126.5000 Du        
  52319 ****       135.5000 153.2500 126.7500 Du        
  52320 ****       135.5000 153.2500 127.0000 Du        
  52321 ****       135.5000 153.2500 127.2500 Du        
  52322 ****       135.5000 153.5000 126.2500 Du        
  52323 ****       135.5000 153.5000 126.5000 Du        
  52324 ****       135.5000 153.5000 126.7500 Du        
  52325 ****       135.5000 153.5000 127.0000 Du        
  52326 ****       135.5000 153.5000 127.2500 Du        
  52327 ****       135.5000 153.5000 127.5000 Du        
  52328 ****       135.5000 153.7500 126.7500 Du        
  52329 ****       135.5000 153.7500 127.0000 Du        
  52330 ****       135.5000 153.7500 127.2500 Du        
  52331 ****       135.5000 153.7500 127.5000 Du        
  52332 ****       135.5000 154.0000 127.0000 Du        
  52333 ****       135.5000 154.0000 127.2500 Du        
  52334 ****       135.5000 155.2500 117.2500 Du        
  52335 ****       135.5000 155.2500 117.5000 Du        
  52336 ****       135.5000 155.2500 117.7500 Du        
  52337 ****       135.5000 155.2500 118.0000 Du        
  52338 ****       135.5000 155.5000 117.5000 Du        
  52339 ****       135.5000 155.5000 117.7500 Du        
  52340 ****       135.5000 155.5000 118.0000 Du        
  52341 ****       135.5000 155.5000 118.2500 Du        
  52342 ****       135.5000 155.5000 118.5000 Du        
  52343 ****       135.5000 155.7500 117.5000 Du        
  52344 ****       135.5000 155.7500 117.7500 Du        
  52345 ****       135.5000 155.7500 118.0000 Du        
  52346 ****       135.5000 155.7500 118.2500 Du        
  52347 ****       135.5000 155.7500 118.5000 Du        
  52348 ****       135.5000 155.7500 118.7500 Du        
  52349 ****       135.5000 155.7500 119.0000 Du        
  52350 ****       135.5000 155.7500 119.2500 Du        
  52351 ****       135.5000 155.7500 123.7500 Du        
  52352 ****       135.5000 155.7500 124.0000 Du        
  52353 ****       135.5000 155.7500 124.2500 Du        
  52354 ****       135.5000 155.7500 124.5000 Du        
  52355 ****       135.5000 155.7500 124.7500 Du        
  52356 ****       135.5000 156.0000 117.5000 Du        
  52357 ****       135.5000 156.0000 117.7500 Du        
  52358 ****       135.5000 156.0000 118.0000 Du        
  52359 ****       135.5000 156.0000 118.2500 Du        
  52360 ****       135.5000 156.0000 118.5000 Du        
  52361 ****       135.5000 156.0000 118.7500 Du        
  52362 ****       135.5000 156.0000 119.0000 Du        
  52363 ****       135.5000 156.0000 119.2500 Du        
  52364 ****       135.5000 156.0000 119.5000 Du        
  52365 ****       135.5000 156.0000 119.7500 Du        
  52366 ****       135.5000 156.0000 120.0000 Du        
  52367 ****       135.5000 156.0000 120.2500 Du        
  52368 ****       135.5000 156.0000 120.5000 Du        
  52369 ****       135.5000 156.0000 120.7500 Du        
  52370 ****       135.5000 156.0000 121.0000 Du        
  52371 ****       135.5000 156.0000 123.5000 Du        
  52372 ****       135.5000 156.0000 123.7500 Du        
  52373 ****       135.5000 156.0000 124.0000 Du        
  52374 ****       135.5000 156.0000 124.2500 Du        
  52375 ****       135.5000 156.0000 124.5000 Du        
  52376 ****       135.5000 156.0000 124.7500 Du        
  52377 ****       135.5000 156.2500 117.5000 Du        
  52378 ****       135.5000 156.2500 117.7500 Du        
  52379 ****       135.5000 156.2500 118.0000 Du        
  52380 ****       135.5000 156.2500 118.2500 Du        
  52381 ****       135.5000 156.2500 118.5000 Du        
  52382 ****       135.5000 156.2500 118.7500 Du        
  52383 ****       135.5000 156.2500 119.0000 Du        
  52384 ****       135.5000 156.2500 119.2500 Du        
  52385 ****       135.5000 156.2500 119.5000 Du        
  52386 ****       135.5000 156.2500 119.7500 Du        
  52387 ****       135.5000 156.2500 120.0000 Du        
  52388 ****       135.5000 156.2500 120.2500 Du        
  52389 ****       135.5000 156.2500 120.5000 Du        
  52390 ****       135.5000 156.2500 120.7500 Du        
  52391 ****       135.5000 156.2500 121.0000 Du        
  52392 ****       135.5000 156.2500 124.0000 Du        
  52393 ****       135.5000 156.2500 124.2500 Du        
  52394 ****       135.5000 156.2500 124.5000 Du        
  52395 ****       135.5000 156.2500 124.7500 Du        
  52396 ****       135.5000 156.5000 117.5000 Du        
  52397 ****       135.5000 156.5000 117.7500 Du        
  52398 ****       135.5000 156.5000 118.0000 Du        
  52399 ****       135.5000 156.5000 118.2500 Du        
  52400 ****       135.5000 156.5000 118.5000 Du        
  52401 ****       135.5000 156.5000 118.7500 Du        
  52402 ****       135.5000 156.5000 119.0000 Du        
  52403 ****       135.5000 156.5000 119.2500 Du        
  52404 ****       135.5000 156.5000 119.5000 Du        
  52405 ****       135.5000 156.5000 119.7500 Du        
  52406 ****       135.5000 156.5000 120.0000 Du        
  52407 ****       135.5000 156.5000 120.2500 Du        
  52408 ****       135.5000 156.5000 120.5000 Du        
  52409 ****       135.5000 156.5000 124.2500 Du        
  52410 ****       135.5000 156.5000 124.5000 Du        
  52411 ****       135.5000 156.5000 124.7500 Du        
  52412 ****       135.5000 156.7500 117.2500 Du        
  52413 ****       135.5000 156.7500 117.5000 Du        
  52414 ****       135.5000 156.7500 117.7500 Du        
  52415 ****       135.5000 156.7500 118.0000 Du        
  52416 ****       135.5000 156.7500 118.2500 Du        
  52417 ****       135.5000 156.7500 118.5000 Du        
  52418 ****       135.5000 156.7500 118.7500 Du        
  52419 ****       135.5000 156.7500 119.0000 Du        
  52420 ****       135.5000 156.7500 119.2500 Du        
  52421 ****       135.5000 156.7500 119.5000 Du        
  52422 ****       135.5000 156.7500 119.7500 Du        
  52423 ****       135.5000 156.7500 120.0000 Du        
  52424 ****       135.5000 156.7500 120.2500 Du        
  52425 ****       135.5000 157.0000 117.0000 Du        
  52426 ****       135.5000 157.0000 117.2500 Du        
  52427 ****       135.5000 157.0000 117.5000 Du        
  52428 ****       135.5000 157.0000 117.7500 Du        
  52429 ****       135.5000 157.0000 118.0000 Du        
  52430 ****       135.5000 157.0000 118.2500 Du        
  52431 ****       135.5000 157.0000 118.5000 Du        
  52432 ****       135.5000 157.0000 118.7500 Du        
  52433 ****       135.5000 157.0000 119.0000 Du        
  52434 ****       135.5000 157.0000 119.2500 Du        
  52435 ****       135.5000 157.0000 119.5000 Du        
  52436 ****       135.5000 157.0000 119.7500 Du        
  52437 ****       135.5000 157.0000 120.0000 Du        
  52438 ****       135.5000 157.2500 117.0000 Du        
  52439 ****       135.5000 157.2500 117.2500 Du        
  52440 ****       135.5000 157.2500 117.5000 Du        
  52441 ****       135.5000 157.2500 117.7500 Du        
  52442 ****       135.5000 157.2500 118.0000 Du        
  52443 ****       135.5000 157.2500 118.2500 Du        
  52444 ****       135.5000 157.2500 118.5000 Du        
  52445 ****       135.5000 157.2500 118.7500 Du        
  52446 ****       135.5000 157.2500 119.0000 Du        
  52447 ****       135.5000 157.2500 119.2500 Du        
  52448 ****       135.5000 157.2500 119.5000 Du        
  52449 ****       135.5000 157.2500 119.7500 Du        
  52450 ****       135.5000 157.5000 117.2500 Du        
  52451 ****       135.5000 157.5000 117.5000 Du        
  52452 ****       135.5000 157.5000 117.7500 Du        
  52453 ****       135.5000 157.5000 118.0000 Du        
  52454 ****       135.5000 157.5000 118.2500 Du        
  52455 ****       135.5000 157.5000 118.5000 Du        
  52456 ****       135.5000 157.5000 118.7500 Du        
  52457 ****       135.5000 157.5000 119.0000 Du        
  52458 ****       135.5000 157.5000 119.2500 Du        
  52459 ****       135.5000 157.7500 117.0000 Du        
  52460 ****       135.5000 157.7500 117.2500 Du        
  52461 ****       135.5000 157.7500 117.5000 Du        
  52462 ****       135.5000 157.7500 117.7500 Du        
  52463 ****       135.5000 157.7500 118.0000 Du        
  52464 ****       135.5000 157.7500 118.2500 Du        
  52465 ****       135.5000 157.7500 118.5000 Du        
  52466 ****       135.5000 157.7500 118.7500 Du        
  52467 ****       135.5000 158.0000 116.7500 Du        
  52468 ****       135.5000 158.0000 117.0000 Du        
  52469 ****       135.5000 158.0000 117.2500 Du        
  52470 ****       135.5000 158.0000 117.5000 Du        
  52471 ****       135.5000 158.0000 117.7500 Du        
  52472 ****       135.5000 158.0000 118.0000 Du        
  52473 ****       135.5000 158.0000 118.2500 Du        
  52474 ****       135.5000 158.2500 116.7500 Du        
  52475 ****       135.5000 158.2500 117.0000 Du        
  52476 ****       135.5000 158.2500 117.2500 Du        
  52477 ****       135.5000 158.2500 117.5000 Du        
  52478 ****       135.5000 158.2500 117.7500 Du        
  52479 ****       135.5000 158.2500 118.0000 Du        
  52480 ****       135.5000 158.5000 116.5000 Du        
  52481 ****       135.5000 158.5000 116.7500 Du        
  52482 ****       135.5000 158.5000 117.0000 Du        
  52483 ****       135.5000 158.5000 117.2500 Du        
  52484 ****       135.5000 158.5000 117.5000 Du        
  52485 ****       135.5000 158.5000 117.7500 Du        
  52486 ****       135.5000 158.7500 116.2500 Du        
  52487 ****       135.5000 158.7500 116.5000 Du        
  52488 ****       135.5000 158.7500 116.7500 Du        
  52489 ****       135.5000 158.7500 117.0000 Du        
  52490 ****       135.5000 158.7500 117.2500 Du        
  52491 ****       135.5000 158.7500 117.5000 Du        
  52492 ****       135.5000 159.0000 115.7500 Du        
  52493 ****       135.5000 159.0000 116.0000 Du        
  52494 ****       135.5000 159.0000 116.2500 Du        
  52495 ****       135.5000 159.0000 116.5000 Du        
  52496 ****       135.5000 159.0000 116.7500 Du        
  52497 ****       135.5000 159.0000 117.0000 Du        
  52498 ****       135.5000 159.0000 117.2500 Du        
  52499 ****       135.5000 159.2500 115.7500 Du        
  52500 ****       135.5000 159.2500 116.0000 Du        
  52501 ****       135.5000 159.2500 116.2500 Du        
  52502 ****       135.5000 159.2500 116.5000 Du        
  52503 ****       135.5000 159.2500 116.7500 Du        
  52504 ****       135.5000 159.2500 117.0000 Du        
  52505 ****       135.5000 159.2500 117.2500 Du        
  52506 ****       135.5000 159.5000 116.0000 Du        
  52507 ****       135.5000 159.5000 116.2500 Du        
  52508 ****       135.5000 159.5000 116.5000 Du        
  52509 ****       135.5000 159.5000 116.7500 Du        
  52510 ****       135.5000 159.5000 117.0000 Du        
  52511 ****       135.7500 144.7500 116.5000 Du        
  52512 ****       135.7500 144.7500 116.7500 Du        
  52513 ****       135.7500 145.0000 116.5000 Du        
  52514 ****       135.7500 145.0000 116.7500 Du        
  52515 ****       135.7500 145.0000 117.0000 Du        
  52516 ****       135.7500 145.0000 130.5000 Du        
  52517 ****       135.7500 145.0000 130.7500 Du        
  52518 ****       135.7500 145.2500 116.7500 Du        
  52519 ****       135.7500 145.2500 117.0000 Du        
  52520 ****       135.7500 145.2500 130.7500 Du        
  52521 ****       135.7500 152.5000 126.2500 Du        
  52522 ****       135.7500 152.5000 126.5000 Du        
  52523 ****       135.7500 152.5000 126.7500 Du        
  52524 ****       135.7500 152.7500 126.2500 Du        
  52525 ****       135.7500 152.7500 126.5000 Du        
  52526 ****       135.7500 152.7500 126.7500 Du        
  52527 ****       135.7500 153.0000 126.5000 Du        
  52528 ****       135.7500 153.0000 126.7500 Du        
  52529 ****       135.7500 153.0000 127.0000 Du        
  52530 ****       135.7500 153.2500 126.7500 Du        
  52531 ****       135.7500 153.2500 127.0000 Du        
  52532 ****       135.7500 153.2500 127.2500 Du        
  52533 ****       135.7500 153.5000 127.0000 Du        
  52534 ****       135.7500 153.5000 127.2500 Du        
  52535 ****       135.7500 153.7500 127.0000 Du        
  52536 ****       135.7500 153.7500 127.2500 Du        
  52537 ****       135.7500 153.7500 127.5000 Du        
  52538 ****       135.7500 155.0000 117.0000 Du        
  52539 ****       135.7500 155.0000 117.2500 Du        
  52540 ****       135.7500 155.0000 117.5000 Du        
  52541 ****       135.7500 155.0000 117.7500 Du        
  52542 ****       135.7500 155.0000 118.0000 Du        
  52543 ****       135.7500 155.0000 118.2500 Du        
  52544 ****       135.7500 155.0000 118.5000 Du        
  52545 ****       135.7500 155.0000 118.7500 Du        
  52546 ****       135.7500 155.2500 117.0000 Du        
  52547 ****       135.7500 155.2500 117.2500 Du        
  52548 ****       135.7500 155.2500 117.5000 Du        
  52549 ****       135.7500 155.2500 117.7500 Du        
  52550 ****       135.7500 155.2500 118.0000 Du        
  52551 ****       135.7500 155.2500 118.2500 Du        
  52552 ****       135.7500 155.2500 118.5000 Du        
  52553 ****       135.7500 155.2500 118.7500 Du        
  52554 ****       135.7500 155.2500 119.0000 Du        
  52555 ****       135.7500 155.2500 119.2500 Du        
  52556 ****       135.7500 155.5000 117.5000 Du        
  52557 ****       135.7500 155.5000 117.7500 Du        
  52558 ****       135.7500 155.5000 118.0000 Du        
  52559 ****       135.7500 155.5000 118.2500 Du        
  52560 ****       135.7500 155.5000 118.5000 Du        
  52561 ****       135.7500 155.5000 118.7500 Du        
  52562 ****       135.7500 155.5000 119.0000 Du        
  52563 ****       135.7500 155.5000 119.2500 Du        
  52564 ****       135.7500 155.5000 119.5000 Du        
  52565 ****       135.7500 155.5000 119.7500 Du        
  52566 ****       135.7500 155.5000 120.0000 Du        
  52567 ****       135.7500 155.7500 117.5000 Du        
  52568 ****       135.7500 155.7500 117.7500 Du        
  52569 ****       135.7500 155.7500 118.0000 Du        
  52570 ****       135.7500 155.7500 118.2500 Du        
  52571 ****       135.7500 155.7500 118.5000 Du        
  52572 ****       135.7500 155.7500 118.7500 Du        
  52573 ****       135.7500 155.7500 119.0000 Du        
  52574 ****       135.7500 155.7500 119.2500 Du        
  52575 ****       135.7500 155.7500 119.5000 Du        
  52576 ****       135.7500 155.7500 119.7500 Du        
  52577 ****       135.7500 155.7500 120.0000 Du        
  52578 ****       135.7500 155.7500 120.2500 Du        
  52579 ****       135.7500 155.7500 120.5000 Du        
  52580 ****       135.7500 155.7500 120.7500 Du        
  52581 ****       135.7500 155.7500 121.0000 Du        
  52582 ****       135.7500 156.0000 117.5000 Du        
  52583 ****       135.7500 156.0000 117.7500 Du        
  52584 ****       135.7500 156.0000 118.0000 Du        
  52585 ****       135.7500 156.0000 118.2500 Du        
  52586 ****       135.7500 156.0000 118.5000 Du        
  52587 ****       135.7500 156.0000 118.7500 Du        
  52588 ****       135.7500 156.0000 119.0000 Du        
  52589 ****       135.7500 156.0000 119.2500 Du        
  52590 ****       135.7500 156.0000 119.5000 Du        
  52591 ****       135.7500 156.0000 119.7500 Du        
  52592 ****       135.7500 156.0000 120.0000 Du        
  52593 ****       135.7500 156.0000 120.2500 Du        
  52594 ****       135.7500 156.0000 120.5000 Du        
  52595 ****       135.7500 156.0000 120.7500 Du        
  52596 ****       135.7500 156.0000 121.0000 Du        
  52597 ****       135.7500 156.0000 121.2500 Du        
  52598 ****       135.7500 156.0000 121.5000 Du        
  52599 ****       135.7500 156.2500 117.5000 Du        
  52600 ****       135.7500 156.2500 117.7500 Du        
  52601 ****       135.7500 156.2500 118.0000 Du        
  52602 ****       135.7500 156.2500 118.2500 Du        
  52603 ****       135.7500 156.2500 118.5000 Du        
  52604 ****       135.7500 156.2500 118.7500 Du        
  52605 ****       135.7500 156.2500 119.0000 Du        
  52606 ****       135.7500 156.2500 119.2500 Du        
  52607 ****       135.7500 156.2500 119.5000 Du        
  52608 ****       135.7500 156.2500 119.7500 Du        
  52609 ****       135.7500 156.2500 120.0000 Du        
  52610 ****       135.7500 156.2500 120.2500 Du        
  52611 ****       135.7500 156.2500 120.5000 Du        
  52612 ****       135.7500 156.2500 120.7500 Du        
  52613 ****       135.7500 156.2500 121.0000 Du        
  52614 ****       135.7500 156.2500 121.2500 Du        
  52615 ****       135.7500 156.5000 117.5000 Du        
  52616 ****       135.7500 156.5000 117.7500 Du        
  52617 ****       135.7500 156.5000 118.0000 Du        
  52618 ****       135.7500 156.5000 118.2500 Du        
  52619 ****       135.7500 156.5000 118.5000 Du        
  52620 ****       135.7500 156.5000 118.7500 Du        
  52621 ****       135.7500 156.5000 119.0000 Du        
  52622 ****       135.7500 156.5000 119.2500 Du        
  52623 ****       135.7500 156.5000 119.5000 Du        
  52624 ****       135.7500 156.5000 119.7500 Du        
  52625 ****       135.7500 156.5000 120.0000 Du        
  52626 ****       135.7500 156.5000 120.2500 Du        
  52627 ****       135.7500 156.5000 120.5000 Du        
  52628 ****       135.7500 156.5000 120.7500 Du        
  52629 ****       135.7500 156.7500 117.5000 Du        
  52630 ****       135.7500 156.7500 117.7500 Du        
  52631 ****       135.7500 156.7500 118.0000 Du        
  52632 ****       135.7500 156.7500 118.2500 Du        
  52633 ****       135.7500 156.7500 118.5000 Du        
  52634 ****       135.7500 156.7500 118.7500 Du        
  52635 ****       135.7500 156.7500 119.0000 Du        
  52636 ****       135.7500 156.7500 119.2500 Du        
  52637 ****       135.7500 156.7500 119.5000 Du        
  52638 ****       135.7500 156.7500 119.7500 Du        
  52639 ****       135.7500 156.7500 120.0000 Du        
  52640 ****       135.7500 156.7500 120.2500 Du        
  52641 ****       135.7500 156.7500 120.5000 Du        
  52642 ****       135.7500 157.0000 117.2500 Du        
  52643 ****       135.7500 157.0000 117.5000 Du        
  52644 ****       135.7500 157.0000 117.7500 Du        
  52645 ****       135.7500 157.0000 118.0000 Du        
  52646 ****       135.7500 157.0000 118.2500 Du        
  52647 ****       135.7500 157.0000 118.5000 Du        
  52648 ****       135.7500 157.0000 118.7500 Du        
  52649 ****       135.7500 157.0000 119.0000 Du        
  52650 ****       135.7500 157.0000 119.2500 Du        
  52651 ****       135.7500 157.0000 119.5000 Du        
  52652 ****       135.7500 157.0000 119.7500 Du        
  52653 ****       135.7500 157.0000 120.0000 Du        
  52654 ****       135.7500 157.2500 117.2500 Du        
  52655 ****       135.7500 157.2500 117.5000 Du        
  52656 ****       135.7500 157.2500 117.7500 Du        
  52657 ****       135.7500 157.2500 118.0000 Du        
  52658 ****       135.7500 157.2500 118.2500 Du        
  52659 ****       135.7500 157.2500 118.5000 Du        
  52660 ****       135.7500 157.2500 118.7500 Du        
  52661 ****       135.7500 157.2500 119.0000 Du        
  52662 ****       135.7500 157.2500 119.2500 Du        
  52663 ****       135.7500 157.2500 119.5000 Du        
  52664 ****       135.7500 157.2500 119.7500 Du        
  52665 ****       135.7500 157.5000 117.5000 Du        
  52666 ****       135.7500 157.5000 117.7500 Du        
  52667 ****       135.7500 157.5000 118.0000 Du        
  52668 ****       135.7500 157.5000 118.2500 Du        
  52669 ****       135.7500 157.5000 118.5000 Du        
  52670 ****       135.7500 157.5000 118.7500 Du        
  52671 ****       135.7500 157.5000 119.0000 Du        
  52672 ****       135.7500 157.7500 117.0000 Du        
  52673 ****       135.7500 157.7500 117.2500 Du        
  52674 ****       135.7500 157.7500 117.5000 Du        
  52675 ****       135.7500 157.7500 117.7500 Du        
  52676 ****       135.7500 157.7500 118.0000 Du        
  52677 ****       135.7500 157.7500 118.2500 Du        
  52678 ****       135.7500 158.0000 116.7500 Du        
  52679 ****       135.7500 158.0000 117.0000 Du        
  52680 ****       135.7500 158.0000 117.2500 Du        
  52681 ****       135.7500 158.0000 117.5000 Du        
  52682 ****       135.7500 158.0000 117.7500 Du        
  52683 ****       135.7500 158.0000 118.0000 Du        
  52684 ****       135.7500 158.2500 116.7500 Du        
  52685 ****       135.7500 158.2500 117.0000 Du        
  52686 ****       135.7500 158.2500 117.2500 Du        
  52687 ****       135.7500 158.2500 117.5000 Du        
  52688 ****       135.7500 158.2500 117.7500 Du        
  52689 ****       135.7500 158.5000 116.5000 Du        
  52690 ****       135.7500 158.5000 116.7500 Du        
  52691 ****       135.7500 158.5000 117.0000 Du        
  52692 ****       135.7500 158.5000 117.2500 Du        
  52693 ****       135.7500 158.5000 117.5000 Du        
  52694 ****       135.7500 158.7500 116.2500 Du        
  52695 ****       135.7500 158.7500 116.5000 Du        
  52696 ****       135.7500 158.7500 116.7500 Du        
  52697 ****       135.7500 158.7500 117.0000 Du        
  52698 ****       135.7500 158.7500 117.2500 Du        
  52699 ****       135.7500 159.0000 115.7500 Du        
  52700 ****       135.7500 159.0000 116.0000 Du        
  52701 ****       135.7500 159.0000 116.2500 Du        
  52702 ****       135.7500 159.0000 116.5000 Du        
  52703 ****       135.7500 159.0000 116.7500 Du        
  52704 ****       135.7500 159.0000 117.0000 Du        
  52705 ****       135.7500 159.0000 117.2500 Du        
  52706 ****       135.7500 159.2500 115.7500 Du        
  52707 ****       135.7500 159.2500 116.0000 Du        
  52708 ****       135.7500 159.2500 116.2500 Du        
  52709 ****       135.7500 159.2500 116.5000 Du        
  52710 ****       135.7500 159.2500 116.7500 Du        
  52711 ****       135.7500 159.2500 117.0000 Du        
  52712 ****       135.7500 159.5000 116.0000 Du        
  52713 ****       135.7500 159.5000 116.2500 Du        
  52714 ****       135.7500 159.5000 116.5000 Du        
  52715 ****       135.7500 159.5000 116.7500 Du        
  52716 ****       135.7500 159.5000 117.0000 Du        
  52717 ****       136.0000 144.7500 116.5000 Du        
  52718 ****       136.0000 144.7500 116.7500 Du        
  52719 ****       136.0000 144.7500 117.0000 Du        
  52720 ****       136.0000 145.0000 116.5000 Du        
  52721 ****       136.0000 145.0000 116.7500 Du        
  52722 ****       136.0000 145.0000 117.0000 Du        
  52723 ****       136.0000 145.0000 117.2500 Du        
  52724 ****       136.0000 145.0000 130.7500 Du        
  52725 ****       136.0000 145.2500 130.7500 Du        
  52726 ****       136.0000 154.5000 118.5000 Du        
  52727 ****       136.0000 154.5000 118.7500 Du        
  52728 ****       136.0000 154.5000 119.0000 Du        
  52729 ****       136.0000 154.7500 117.2500 Du        
  52730 ****       136.0000 154.7500 117.5000 Du        
  52731 ****       136.0000 154.7500 117.7500 Du        
  52732 ****       136.0000 154.7500 118.0000 Du        
  52733 ****       136.0000 154.7500 118.2500 Du        
  52734 ****       136.0000 154.7500 118.5000 Du        
  52735 ****       136.0000 154.7500 118.7500 Du        
  52736 ****       136.0000 154.7500 119.0000 Du        
  52737 ****       136.0000 154.7500 119.2500 Du        
  52738 ****       136.0000 155.0000 117.0000 Du        
  52739 ****       136.0000 155.0000 117.2500 Du        
  52740 ****       136.0000 155.0000 117.5000 Du        
  52741 ****       136.0000 155.0000 117.7500 Du        
  52742 ****       136.0000 155.0000 118.0000 Du        
  52743 ****       136.0000 155.0000 118.2500 Du        
  52744 ****       136.0000 155.0000 118.5000 Du        
  52745 ****       136.0000 155.0000 118.7500 Du        
  52746 ****       136.0000 155.0000 119.0000 Du        
  52747 ****       136.0000 155.0000 119.2500 Du        
  52748 ****       136.0000 155.0000 119.5000 Du        
  52749 ****       136.0000 155.2500 117.0000 Du        
  52750 ****       136.0000 155.2500 117.2500 Du        
  52751 ****       136.0000 155.2500 117.5000 Du        
  52752 ****       136.0000 155.2500 117.7500 Du        
  52753 ****       136.0000 155.2500 118.0000 Du        
  52754 ****       136.0000 155.2500 118.2500 Du        
  52755 ****       136.0000 155.2500 118.5000 Du        
  52756 ****       136.0000 155.2500 118.7500 Du        
  52757 ****       136.0000 155.2500 119.0000 Du        
  52758 ****       136.0000 155.2500 119.2500 Du        
  52759 ****       136.0000 155.2500 119.5000 Du        
  52760 ****       136.0000 155.2500 119.7500 Du        
  52761 ****       136.0000 155.5000 117.5000 Du        
  52762 ****       136.0000 155.5000 117.7500 Du        
  52763 ****       136.0000 155.5000 118.0000 Du        
  52764 ****       136.0000 155.5000 118.2500 Du        
  52765 ****       136.0000 155.5000 118.5000 Du        
  52766 ****       136.0000 155.5000 118.7500 Du        
  52767 ****       136.0000 155.5000 119.0000 Du        
  52768 ****       136.0000 155.5000 119.2500 Du        
  52769 ****       136.0000 155.5000 119.5000 Du        
  52770 ****       136.0000 155.5000 119.7500 Du        
  52771 ****       136.0000 155.5000 120.0000 Du        
  52772 ****       136.0000 155.5000 120.2500 Du        
  52773 ****       136.0000 155.7500 117.5000 Du        
  52774 ****       136.0000 155.7500 117.7500 Du        
  52775 ****       136.0000 155.7500 118.0000 Du        
  52776 ****       136.0000 155.7500 118.2500 Du        
  52777 ****       136.0000 155.7500 118.5000 Du        
  52778 ****       136.0000 155.7500 118.7500 Du        
  52779 ****       136.0000 155.7500 119.0000 Du        
  52780 ****       136.0000 155.7500 119.2500 Du        
  52781 ****       136.0000 155.7500 119.5000 Du        
  52782 ****       136.0000 155.7500 119.7500 Du        
  52783 ****       136.0000 155.7500 120.0000 Du        
  52784 ****       136.0000 155.7500 120.2500 Du        
  52785 ****       136.0000 155.7500 120.5000 Du        
  52786 ****       136.0000 155.7500 120.7500 Du        
  52787 ****       136.0000 155.7500 121.0000 Du        
  52788 ****       136.0000 156.0000 117.5000 Du        
  52789 ****       136.0000 156.0000 117.7500 Du        
  52790 ****       136.0000 156.0000 118.0000 Du        
  52791 ****       136.0000 156.0000 118.2500 Du        
  52792 ****       136.0000 156.0000 118.5000 Du        
  52793 ****       136.0000 156.0000 118.7500 Du        
  52794 ****       136.0000 156.0000 119.0000 Du        
  52795 ****       136.0000 156.0000 119.2500 Du        
  52796 ****       136.0000 156.0000 119.5000 Du        
  52797 ****       136.0000 156.0000 119.7500 Du        
  52798 ****       136.0000 156.0000 120.0000 Du        
  52799 ****       136.0000 156.0000 120.2500 Du        
  52800 ****       136.0000 156.0000 120.5000 Du        
  52801 ****       136.0000 156.0000 120.7500 Du        
  52802 ****       136.0000 156.0000 121.0000 Du        
  52803 ****       136.0000 156.0000 121.2500 Du        
  52804 ****       136.0000 156.0000 121.5000 Du        
  52805 ****       136.0000 156.2500 117.5000 Du        
  52806 ****       136.0000 156.2500 117.7500 Du        
  52807 ****       136.0000 156.2500 118.0000 Du        
  52808 ****       136.0000 156.2500 118.2500 Du        
  52809 ****       136.0000 156.2500 118.5000 Du        
  52810 ****       136.0000 156.2500 118.7500 Du        
  52811 ****       136.0000 156.2500 119.0000 Du        
  52812 ****       136.0000 156.2500 119.2500 Du        
  52813 ****       136.0000 156.2500 119.5000 Du        
  52814 ****       136.0000 156.2500 119.7500 Du        
  52815 ****       136.0000 156.2500 120.0000 Du        
  52816 ****       136.0000 156.2500 120.2500 Du        
  52817 ****       136.0000 156.2500 120.5000 Du        
  52818 ****       136.0000 156.2500 120.7500 Du        
  52819 ****       136.0000 156.2500 121.0000 Du        
  52820 ****       136.0000 156.2500 121.2500 Du        
  52821 ****       136.0000 156.5000 117.5000 Du        
  52822 ****       136.0000 156.5000 117.7500 Du        
  52823 ****       136.0000 156.5000 118.0000 Du        
  52824 ****       136.0000 156.5000 118.2500 Du        
  52825 ****       136.0000 156.5000 118.5000 Du        
  52826 ****       136.0000 156.5000 118.7500 Du        
  52827 ****       136.0000 156.5000 119.0000 Du        
  52828 ****       136.0000 156.5000 119.2500 Du        
  52829 ****       136.0000 156.5000 119.5000 Du        
  52830 ****       136.0000 156.5000 119.7500 Du        
  52831 ****       136.0000 156.5000 120.0000 Du        
  52832 ****       136.0000 156.5000 120.2500 Du        
  52833 ****       136.0000 156.5000 120.5000 Du        
  52834 ****       136.0000 156.5000 120.7500 Du        
  52835 ****       136.0000 156.7500 117.5000 Du        
  52836 ****       136.0000 156.7500 117.7500 Du        
  52837 ****       136.0000 156.7500 118.0000 Du        
  52838 ****       136.0000 156.7500 118.2500 Du        
  52839 ****       136.0000 156.7500 118.5000 Du        
  52840 ****       136.0000 156.7500 118.7500 Du        
  52841 ****       136.0000 156.7500 119.0000 Du        
  52842 ****       136.0000 156.7500 119.2500 Du        
  52843 ****       136.0000 156.7500 119.5000 Du        
  52844 ****       136.0000 156.7500 119.7500 Du        
  52845 ****       136.0000 156.7500 120.0000 Du        
  52846 ****       136.0000 156.7500 120.2500 Du        
  52847 ****       136.0000 156.7500 120.5000 Du        
  52848 ****       136.0000 157.0000 117.2500 Du        
  52849 ****       136.0000 157.0000 117.5000 Du        
  52850 ****       136.0000 157.0000 117.7500 Du        
  52851 ****       136.0000 157.0000 118.0000 Du        
  52852 ****       136.0000 157.0000 118.2500 Du        
  52853 ****       136.0000 157.0000 118.5000 Du        
  52854 ****       136.0000 157.0000 118.7500 Du        
  52855 ****       136.0000 157.0000 119.0000 Du        
  52856 ****       136.0000 157.0000 119.2500 Du        
  52857 ****       136.0000 157.0000 119.5000 Du        
  52858 ****       136.0000 157.0000 119.7500 Du        
  52859 ****       136.0000 157.0000 120.0000 Du        
  52860 ****       136.0000 157.2500 117.5000 Du        
  52861 ****       136.0000 157.2500 117.7500 Du        
  52862 ****       136.0000 157.2500 118.0000 Du        
  52863 ****       136.0000 157.2500 118.2500 Du        
  52864 ****       136.0000 157.2500 118.5000 Du        
  52865 ****       136.0000 157.2500 118.7500 Du        
  52866 ****       136.0000 157.2500 119.0000 Du        
  52867 ****       136.0000 157.2500 119.2500 Du        
  52868 ****       136.0000 157.2500 119.5000 Du        
  52869 ****       136.0000 157.5000 117.5000 Du        
  52870 ****       136.0000 157.5000 117.7500 Du        
  52871 ****       136.0000 157.5000 118.0000 Du        
  52872 ****       136.0000 157.7500 117.5000 Du        
  52873 ****       136.0000 157.7500 117.7500 Du        
  52874 ****       136.0000 158.0000 116.7500 Du        
  52875 ****       136.0000 158.0000 117.0000 Du        
  52876 ****       136.0000 158.0000 117.2500 Du        
  52877 ****       136.0000 158.0000 117.5000 Du        
  52878 ****       136.0000 158.2500 116.5000 Du        
  52879 ****       136.0000 158.2500 116.7500 Du        
  52880 ****       136.0000 158.2500 117.0000 Du        
  52881 ****       136.0000 158.2500 117.2500 Du        
  52882 ****       136.0000 158.5000 116.5000 Du        
  52883 ****       136.0000 158.5000 116.7500 Du        
  52884 ****       136.0000 158.5000 117.0000 Du        
  52885 ****       136.0000 158.7500 116.2500 Du        
  52886 ****       136.0000 158.7500 116.5000 Du        
  52887 ****       136.0000 158.7500 116.7500 Du        
  52888 ****       136.0000 158.7500 117.0000 Du        
  52889 ****       136.0000 159.0000 115.7500 Du        
  52890 ****       136.0000 159.0000 116.0000 Du        
  52891 ****       136.0000 159.0000 116.2500 Du        
  52892 ****       136.0000 159.0000 116.5000 Du        
  52893 ****       136.0000 159.0000 116.7500 Du        
  52894 ****       136.0000 159.0000 117.0000 Du        
  52895 ****       136.0000 159.2500 115.7500 Du        
  52896 ****       136.0000 159.2500 116.0000 Du        
  52897 ****       136.0000 159.2500 116.2500 Du        
  52898 ****       136.0000 159.2500 116.5000 Du        
  52899 ****       136.0000 159.2500 116.7500 Du        
  52900 ****       136.0000 159.2500 117.0000 Du        
  52901 ****       136.0000 159.5000 116.0000 Du        
  52902 ****       136.0000 159.5000 116.2500 Du        
  52903 ****       136.0000 159.5000 116.5000 Du        
  52904 ****       136.0000 159.5000 116.7500 Du        
  52905 ****       136.2500 144.7500 116.5000 Du        
  52906 ****       136.2500 144.7500 116.7500 Du        
  52907 ****       136.2500 144.7500 117.0000 Du        
  52908 ****       136.2500 145.0000 116.5000 Du        
  52909 ****       136.2500 145.0000 116.7500 Du        
  52910 ****       136.2500 145.0000 117.0000 Du        
  52911 ****       136.2500 154.2500 118.2500 Du        
  52912 ****       136.2500 154.2500 118.5000 Du        
  52913 ****       136.2500 154.2500 118.7500 Du        
  52914 ****       136.2500 154.2500 119.0000 Du        
  52915 ****       136.2500 154.5000 117.5000 Du        
  52916 ****       136.2500 154.5000 117.7500 Du        
  52917 ****       136.2500 154.5000 118.0000 Du        
  52918 ****       136.2500 154.5000 118.2500 Du        
  52919 ****       136.2500 154.5000 118.5000 Du        
  52920 ****       136.2500 154.5000 118.7500 Du        
  52921 ****       136.2500 154.5000 119.0000 Du        
  52922 ****       136.2500 154.5000 119.2500 Du        
  52923 ****       136.2500 154.7500 117.2500 Du        
  52924 ****       136.2500 154.7500 117.5000 Du        
  52925 ****       136.2500 154.7500 117.7500 Du        
  52926 ****       136.2500 154.7500 118.0000 Du        
  52927 ****       136.2500 154.7500 118.2500 Du        
  52928 ****       136.2500 154.7500 118.5000 Du        
  52929 ****       136.2500 154.7500 118.7500 Du        
  52930 ****       136.2500 154.7500 119.0000 Du        
  52931 ****       136.2500 154.7500 119.2500 Du        
  52932 ****       136.2500 154.7500 119.5000 Du        
  52933 ****       136.2500 155.0000 117.0000 Du        
  52934 ****       136.2500 155.0000 117.2500 Du        
  52935 ****       136.2500 155.0000 117.5000 Du        
  52936 ****       136.2500 155.0000 117.7500 Du        
  52937 ****       136.2500 155.0000 118.0000 Du        
  52938 ****       136.2500 155.0000 118.2500 Du        
  52939 ****       136.2500 155.0000 118.5000 Du        
  52940 ****       136.2500 155.0000 118.7500 Du        
  52941 ****       136.2500 155.0000 119.0000 Du        
  52942 ****       136.2500 155.0000 119.2500 Du        
  52943 ****       136.2500 155.0000 119.5000 Du        
  52944 ****       136.2500 155.0000 119.7500 Du        
  52945 ****       136.2500 155.2500 117.2500 Du        
  52946 ****       136.2500 155.2500 117.5000 Du        
  52947 ****       136.2500 155.2500 117.7500 Du        
  52948 ****       136.2500 155.2500 118.0000 Du        
  52949 ****       136.2500 155.2500 118.2500 Du        
  52950 ****       136.2500 155.2500 118.5000 Du        
  52951 ****       136.2500 155.2500 118.7500 Du        
  52952 ****       136.2500 155.2500 119.0000 Du        
  52953 ****       136.2500 155.2500 119.2500 Du        
  52954 ****       136.2500 155.2500 119.5000 Du        
  52955 ****       136.2500 155.2500 119.7500 Du        
  52956 ****       136.2500 155.2500 120.0000 Du        
  52957 ****       136.2500 155.5000 117.5000 Du        
  52958 ****       136.2500 155.5000 117.7500 Du        
  52959 ****       136.2500 155.5000 118.0000 Du        
  52960 ****       136.2500 155.5000 118.2500 Du        
  52961 ****       136.2500 155.5000 118.5000 Du        
  52962 ****       136.2500 155.5000 118.7500 Du        
  52963 ****       136.2500 155.5000 119.0000 Du        
  52964 ****       136.2500 155.5000 119.2500 Du        
  52965 ****       136.2500 155.5000 119.5000 Du        
  52966 ****       136.2500 155.5000 119.7500 Du        
  52967 ****       136.2500 155.5000 120.0000 Du        
  52968 ****       136.2500 155.5000 120.2500 Du        
  52969 ****       136.2500 155.7500 117.5000 Du        
  52970 ****       136.2500 155.7500 117.7500 Du        
  52971 ****       136.2500 155.7500 118.0000 Du        
  52972 ****       136.2500 155.7500 118.2500 Du        
  52973 ****       136.2500 155.7500 118.5000 Du        
  52974 ****       136.2500 155.7500 118.7500 Du        
  52975 ****       136.2500 155.7500 119.0000 Du        
  52976 ****       136.2500 155.7500 119.2500 Du        
  52977 ****       136.2500 155.7500 119.5000 Du        
  52978 ****       136.2500 155.7500 119.7500 Du        
  52979 ****       136.2500 155.7500 120.0000 Du        
  52980 ****       136.2500 155.7500 120.2500 Du        
  52981 ****       136.2500 155.7500 120.5000 Du        
  52982 ****       136.2500 155.7500 120.7500 Du        
  52983 ****       136.2500 156.0000 117.5000 Du        
  52984 ****       136.2500 156.0000 117.7500 Du        
  52985 ****       136.2500 156.0000 118.0000 Du        
  52986 ****       136.2500 156.0000 118.2500 Du        
  52987 ****       136.2500 156.0000 118.5000 Du        
  52988 ****       136.2500 156.0000 118.7500 Du        
  52989 ****       136.2500 156.0000 119.0000 Du        
  52990 ****       136.2500 156.0000 119.2500 Du        
  52991 ****       136.2500 156.0000 119.5000 Du        
  52992 ****       136.2500 156.0000 119.7500 Du        
  52993 ****       136.2500 156.0000 120.0000 Du        
  52994 ****       136.2500 156.0000 120.2500 Du        
  52995 ****       136.2500 156.0000 120.5000 Du        
  52996 ****       136.2500 156.0000 120.7500 Du        
  52997 ****       136.2500 156.0000 121.0000 Du        
  52998 ****       136.2500 156.2500 117.5000 Du        
  52999 ****       136.2500 156.2500 117.7500 Du        
  53000 ****       136.2500 156.2500 118.0000 Du        
  53001 ****       136.2500 156.2500 118.2500 Du        
  53002 ****       136.2500 156.2500 118.5000 Du        
  53003 ****       136.2500 156.2500 118.7500 Du        
  53004 ****       136.2500 156.2500 119.0000 Du        
  53005 ****       136.2500 156.2500 119.2500 Du        
  53006 ****       136.2500 156.2500 119.5000 Du        
  53007 ****       136.2500 156.2500 119.7500 Du        
  53008 ****       136.2500 156.2500 120.0000 Du        
  53009 ****       136.2500 156.2500 120.2500 Du        
  53010 ****       136.2500 156.2500 120.5000 Du        
  53011 ****       136.2500 156.2500 120.7500 Du        
  53012 ****       136.2500 156.5000 117.5000 Du        
  53013 ****       136.2500 156.5000 117.7500 Du        
  53014 ****       136.2500 156.5000 118.0000 Du        
  53015 ****       136.2500 156.5000 118.2500 Du        
  53016 ****       136.2500 156.5000 118.5000 Du        
  53017 ****       136.2500 156.5000 118.7500 Du        
  53018 ****       136.2500 156.5000 119.0000 Du        
  53019 ****       136.2500 156.5000 119.2500 Du        
  53020 ****       136.2500 156.5000 119.5000 Du        
  53021 ****       136.2500 156.5000 119.7500 Du        
  53022 ****       136.2500 156.5000 120.0000 Du        
  53023 ****       136.2500 156.5000 120.2500 Du        
  53024 ****       136.2500 156.5000 120.5000 Du        
  53025 ****       136.2500 156.7500 117.7500 Du        
  53026 ****       136.2500 156.7500 118.0000 Du        
  53027 ****       136.2500 156.7500 118.2500 Du        
  53028 ****       136.2500 156.7500 118.5000 Du        
  53029 ****       136.2500 156.7500 118.7500 Du        
  53030 ****       136.2500 156.7500 119.0000 Du        
  53031 ****       136.2500 156.7500 119.2500 Du        
  53032 ****       136.2500 156.7500 119.5000 Du        
  53033 ****       136.2500 156.7500 119.7500 Du        
  53034 ****       136.2500 156.7500 120.0000 Du        
  53035 ****       136.2500 156.7500 120.2500 Du        
  53036 ****       136.2500 157.0000 117.5000 Du        
  53037 ****       136.2500 157.0000 117.7500 Du        
  53038 ****       136.2500 157.0000 118.0000 Du        
  53039 ****       136.2500 157.0000 118.2500 Du        
  53040 ****       136.2500 157.0000 118.5000 Du        
  53041 ****       136.2500 157.0000 118.7500 Du        
  53042 ****       136.2500 157.0000 119.0000 Du        
  53043 ****       136.2500 157.0000 119.2500 Du        
  53044 ****       136.2500 157.0000 119.5000 Du        
  53045 ****       136.2500 157.0000 119.7500 Du        
  53046 ****       136.2500 157.0000 120.0000 Du        
  53047 ****       136.2500 157.2500 118.0000 Du        
  53048 ****       136.2500 157.2500 118.5000 Du        
  53049 ****       136.2500 158.5000 116.5000 Du        
  53050 ****       136.2500 158.5000 116.7500 Du        
  53051 ****       136.2500 158.7500 116.2500 Du        
  53052 ****       136.2500 158.7500 116.5000 Du        
  53053 ****       136.2500 158.7500 116.7500 Du        
  53054 ****       136.2500 159.0000 115.7500 Du        
  53055 ****       136.2500 159.0000 116.0000 Du        
  53056 ****       136.2500 159.0000 116.2500 Du        
  53057 ****       136.2500 159.0000 116.5000 Du        
  53058 ****       136.2500 159.0000 116.7500 Du        
  53059 ****       136.2500 159.2500 115.7500 Du        
  53060 ****       136.2500 159.2500 116.0000 Du        
  53061 ****       136.2500 159.2500 116.2500 Du        
  53062 ****       136.2500 159.2500 116.5000 Du        
  53063 ****       136.2500 159.5000 116.0000 Du        
  53064 ****       136.2500 159.5000 116.2500 Du        
  53065 ****       136.5000 144.7500 116.5000 Du        
  53066 ****       136.5000 144.7500 116.7500 Du        
  53067 ****       136.5000 144.7500 117.0000 Du        
  53068 ****       136.5000 145.0000 116.7500 Du        
  53069 ****       136.5000 154.0000 118.7500 Du        
  53070 ****       136.5000 154.0000 119.0000 Du        
  53071 ****       136.5000 154.2500 117.7500 Du        
  53072 ****       136.5000 154.2500 118.0000 Du        
  53073 ****       136.5000 154.2500 118.2500 Du        
  53074 ****       136.5000 154.2500 118.5000 Du        
  53075 ****       136.5000 154.2500 118.7500 Du        
  53076 ****       136.5000 154.2500 119.0000 Du        
  53077 ****       136.5000 154.2500 119.2500 Du        
  53078 ****       136.5000 154.5000 117.5000 Du        
  53079 ****       136.5000 154.5000 117.7500 Du        
  53080 ****       136.5000 154.5000 118.0000 Du        
  53081 ****       136.5000 154.5000 118.2500 Du        
  53082 ****       136.5000 154.5000 118.5000 Du        
  53083 ****       136.5000 154.5000 118.7500 Du        
  53084 ****       136.5000 154.5000 119.0000 Du        
  53085 ****       136.5000 154.5000 119.2500 Du        
  53086 ****       136.5000 154.7500 117.5000 Du        
  53087 ****       136.5000 154.7500 117.7500 Du        
  53088 ****       136.5000 154.7500 118.0000 Du        
  53089 ****       136.5000 154.7500 118.2500 Du        
  53090 ****       136.5000 154.7500 118.5000 Du        
  53091 ****       136.5000 154.7500 118.7500 Du        
  53092 ****       136.5000 154.7500 119.0000 Du        
  53093 ****       136.5000 154.7500 119.2500 Du        
  53094 ****       136.5000 154.7500 119.5000 Du        
  53095 ****       136.5000 155.0000 117.5000 Du        
  53096 ****       136.5000 155.0000 117.7500 Du        
  53097 ****       136.5000 155.0000 118.0000 Du        
  53098 ****       136.5000 155.0000 118.2500 Du        
  53099 ****       136.5000 155.0000 118.5000 Du        
  53100 ****       136.5000 155.0000 118.7500 Du        
  53101 ****       136.5000 155.0000 119.0000 Du        
  53102 ****       136.5000 155.0000 119.2500 Du        
  53103 ****       136.5000 155.0000 119.5000 Du        
  53104 ****       136.5000 155.0000 119.7500 Du        
  53105 ****       136.5000 155.2500 117.5000 Du        
  53106 ****       136.5000 155.2500 117.7500 Du        
  53107 ****       136.5000 155.2500 118.0000 Du        
  53108 ****       136.5000 155.2500 118.2500 Du        
  53109 ****       136.5000 155.2500 118.5000 Du        
  53110 ****       136.5000 155.2500 118.7500 Du        
  53111 ****       136.5000 155.2500 119.0000 Du        
  53112 ****       136.5000 155.2500 119.2500 Du        
  53113 ****       136.5000 155.2500 119.5000 Du        
  53114 ****       136.5000 155.2500 119.7500 Du        
  53115 ****       136.5000 155.2500 120.0000 Du        
  53116 ****       136.5000 155.5000 117.7500 Du        
  53117 ****       136.5000 155.5000 118.0000 Du        
  53118 ****       136.5000 155.5000 118.2500 Du        
  53119 ****       136.5000 155.5000 118.5000 Du        
  53120 ****       136.5000 155.5000 118.7500 Du        
  53121 ****       136.5000 155.5000 119.0000 Du        
  53122 ****       136.5000 155.5000 119.2500 Du        
  53123 ****       136.5000 155.5000 119.5000 Du        
  53124 ****       136.5000 155.5000 119.7500 Du        
  53125 ****       136.5000 155.5000 120.0000 Du        
  53126 ****       136.5000 155.7500 117.7500 Du        
  53127 ****       136.5000 155.7500 118.0000 Du        
  53128 ****       136.5000 155.7500 118.2500 Du        
  53129 ****       136.5000 155.7500 118.5000 Du        
  53130 ****       136.5000 155.7500 118.7500 Du        
  53131 ****       136.5000 155.7500 119.0000 Du        
  53132 ****       136.5000 155.7500 119.2500 Du        
  53133 ****       136.5000 155.7500 119.5000 Du        
  53134 ****       136.5000 155.7500 119.7500 Du        
  53135 ****       136.5000 155.7500 120.0000 Du        
  53136 ****       136.5000 155.7500 120.2500 Du        
  53137 ****       136.5000 156.0000 117.7500 Du        
  53138 ****       136.5000 156.0000 118.0000 Du        
  53139 ****       136.5000 156.0000 118.2500 Du        
  53140 ****       136.5000 156.0000 118.5000 Du        
  53141 ****       136.5000 156.0000 118.7500 Du        
  53142 ****       136.5000 156.0000 119.0000 Du        
  53143 ****       136.5000 156.0000 119.2500 Du        
  53144 ****       136.5000 156.0000 119.5000 Du        
  53145 ****       136.5000 156.0000 119.7500 Du        
  53146 ****       136.5000 156.0000 120.0000 Du        
  53147 ****       136.5000 156.0000 120.2500 Du        
  53148 ****       136.5000 156.0000 120.5000 Du        
  53149 ****       136.5000 156.2500 118.0000 Du        
  53150 ****       136.5000 156.2500 118.2500 Du        
  53151 ****       136.5000 156.2500 118.5000 Du        
  53152 ****       136.5000 156.2500 118.7500 Du        
  53153 ****       136.5000 156.2500 119.0000 Du        
  53154 ****       136.5000 156.2500 119.2500 Du        
  53155 ****       136.5000 156.2500 119.5000 Du        
  53156 ****       136.5000 156.2500 119.7500 Du        
  53157 ****       136.5000 156.2500 120.0000 Du        
  53158 ****       136.5000 156.2500 120.2500 Du        
  53159 ****       136.5000 156.2500 120.5000 Du        
  53160 ****       136.5000 156.5000 118.0000 Du        
  53161 ****       136.5000 156.5000 118.2500 Du        
  53162 ****       136.5000 156.5000 118.5000 Du        
  53163 ****       136.5000 156.5000 118.7500 Du        
  53164 ****       136.5000 156.5000 119.0000 Du        
  53165 ****       136.5000 156.5000 119.2500 Du        
  53166 ****       136.5000 156.5000 119.5000 Du        
  53167 ****       136.5000 156.5000 119.7500 Du        
  53168 ****       136.5000 156.5000 120.0000 Du        
  53169 ****       136.5000 156.7500 118.0000 Du        
  53170 ****       136.5000 156.7500 118.2500 Du        
  53171 ****       136.5000 156.7500 118.5000 Du        
  53172 ****       136.5000 156.7500 118.7500 Du        
  53173 ****       136.5000 156.7500 119.0000 Du        
  53174 ****       136.5000 156.7500 119.2500 Du        
  53175 ****       136.5000 156.7500 119.5000 Du        
  53176 ****       136.5000 156.7500 119.7500 Du        
  53177 ****       136.5000 156.7500 120.0000 Du        
  53178 ****       136.7500 144.7500 116.7500 Du        
  53179 ****       136.7500 144.7500 117.0000 Du        
  53180 ****       136.7500 154.0000 118.7500 Du        
  53181 ****       136.7500 154.0000 119.0000 Du        
  53182 ****       136.7500 154.2500 117.7500 Du        
  53183 ****       136.7500 154.2500 118.0000 Du        
  53184 ****       136.7500 154.2500 118.2500 Du        
  53185 ****       136.7500 154.2500 118.5000 Du        
  53186 ****       136.7500 154.2500 118.7500 Du        
  53187 ****       136.7500 154.2500 119.0000 Du        
  53188 ****       136.7500 154.2500 119.2500 Du        
  53189 ****       136.7500 154.5000 117.7500 Du        
  53190 ****       136.7500 154.5000 118.0000 Du        
  53191 ****       136.7500 154.5000 118.2500 Du        
  53192 ****       136.7500 154.5000 118.5000 Du        
  53193 ****       136.7500 154.5000 118.7500 Du        
  53194 ****       136.7500 154.5000 119.0000 Du        
  53195 ****       136.7500 154.5000 119.2500 Du        
  53196 ****       136.7500 154.7500 117.5000 Du        
  53197 ****       136.7500 154.7500 117.7500 Du        
  53198 ****       136.7500 154.7500 118.0000 Du        
  53199 ****       136.7500 154.7500 118.2500 Du        
  53200 ****       136.7500 154.7500 118.5000 Du        
  53201 ****       136.7500 154.7500 118.7500 Du        
  53202 ****       136.7500 154.7500 119.0000 Du        
  53203 ****       136.7500 154.7500 119.2500 Du        
  53204 ****       136.7500 154.7500 119.5000 Du        
  53205 ****       136.7500 155.0000 117.5000 Du        
  53206 ****       136.7500 155.0000 117.7500 Du        
  53207 ****       136.7500 155.0000 118.0000 Du        
  53208 ****       136.7500 155.0000 118.2500 Du        
  53209 ****       136.7500 155.0000 118.5000 Du        
  53210 ****       136.7500 155.0000 118.7500 Du        
  53211 ****       136.7500 155.0000 119.0000 Du        
  53212 ****       136.7500 155.0000 119.2500 Du        
  53213 ****       136.7500 155.0000 119.5000 Du        
  53214 ****       136.7500 155.2500 117.5000 Du        
  53215 ****       136.7500 155.2500 117.7500 Du        
  53216 ****       136.7500 155.2500 118.0000 Du        
  53217 ****       136.7500 155.2500 118.2500 Du        
  53218 ****       136.7500 155.2500 118.5000 Du        
  53219 ****       136.7500 155.2500 118.7500 Du        
  53220 ****       136.7500 155.2500 119.0000 Du        
  53221 ****       136.7500 155.2500 119.2500 Du        
  53222 ****       136.7500 155.2500 119.5000 Du        
  53223 ****       136.7500 155.2500 119.7500 Du        
  53224 ****       136.7500 155.5000 117.7500 Du        
  53225 ****       136.7500 155.5000 118.0000 Du        
  53226 ****       136.7500 155.5000 118.2500 Du        
  53227 ****       136.7500 155.5000 118.5000 Du        
  53228 ****       136.7500 155.5000 118.7500 Du        
  53229 ****       136.7500 155.5000 119.0000 Du        
  53230 ****       136.7500 155.5000 119.2500 Du        
  53231 ****       136.7500 155.5000 119.5000 Du        
  53232 ****       136.7500 155.5000 119.7500 Du        
  53233 ****       136.7500 155.5000 120.0000 Du        
  53234 ****       136.7500 155.7500 117.7500 Du        
  53235 ****       136.7500 155.7500 118.0000 Du        
  53236 ****       136.7500 155.7500 118.2500 Du        
  53237 ****       136.7500 155.7500 118.5000 Du        
  53238 ****       136.7500 155.7500 118.7500 Du        
  53239 ****       136.7500 155.7500 119.0000 Du        
  53240 ****       136.7500 155.7500 119.2500 Du        
  53241 ****       136.7500 155.7500 119.5000 Du        
  53242 ****       136.7500 155.7500 119.7500 Du        
  53243 ****       136.7500 155.7500 120.0000 Du        
  53244 ****       136.7500 156.0000 117.7500 Du        
  53245 ****       136.7500 156.0000 118.0000 Du        
  53246 ****       136.7500 156.0000 118.2500 Du        
  53247 ****       136.7500 156.0000 118.5000 Du        
  53248 ****       136.7500 156.0000 118.7500 Du        
  53249 ****       136.7500 156.0000 119.0000 Du        
  53250 ****       136.7500 156.0000 119.2500 Du        
  53251 ****       136.7500 156.0000 119.5000 Du        
  53252 ****       136.7500 156.0000 119.7500 Du        
  53253 ****       136.7500 156.0000 120.0000 Du        
  53254 ****       136.7500 156.2500 118.0000 Du        
  53255 ****       136.7500 156.2500 118.2500 Du        
  53256 ****       136.7500 156.2500 118.5000 Du        
  53257 ****       136.7500 156.2500 118.7500 Du        
  53258 ****       136.7500 156.2500 119.0000 Du        
  53259 ****       136.7500 156.2500 119.2500 Du        
  53260 ****       136.7500 156.2500 119.5000 Du        
  53261 ****       136.7500 156.2500 119.7500 Du        
  53262 ****       136.7500 156.2500 120.0000 Du        
  53263 ****       136.7500 156.5000 118.2500 Du        
  53264 ****       136.7500 156.5000 118.5000 Du        
  53265 ****       136.7500 156.5000 118.7500 Du        
  53266 ****       136.7500 156.5000 119.0000 Du        
  53267 ****       136.7500 156.5000 119.2500 Du        
  53268 ****       136.7500 156.5000 119.5000 Du        
  53269 ****       136.7500 156.5000 119.7500 Du        
  53270 ****       136.7500 156.7500 118.5000 Du        
  53271 ****       136.7500 156.7500 118.7500 Du        
  53272 ****       136.7500 156.7500 119.0000 Du        
  53273 ****       136.7500 156.7500 119.2500 Du        
  53274 ****       137.0000 143.0000 131.2500 Du        
  53275 ****       137.0000 143.2500 131.2500 Du        
  53276 ****       137.0000 143.2500 131.5000 Du        
  53277 ****       137.0000 143.2500 131.7500 Du        
  53278 ****       137.0000 143.5000 131.2500 Du        
  53279 ****       137.0000 143.5000 131.5000 Du        
  53280 ****       137.0000 143.5000 131.7500 Du        
  53281 ****       137.0000 143.7500 131.5000 Du        
  53282 ****       137.0000 143.7500 131.7500 Du        
  53283 ****       137.0000 144.7500 116.7500 Du        
  53284 ****       137.0000 154.0000 118.5000 Du        
  53285 ****       137.0000 154.0000 118.7500 Du        
  53286 ****       137.0000 154.0000 119.0000 Du        
  53287 ****       137.0000 154.0000 119.2500 Du        
  53288 ****       137.0000 154.2500 117.7500 Du        
  53289 ****       137.0000 154.2500 118.0000 Du        
  53290 ****       137.0000 154.2500 118.2500 Du        
  53291 ****       137.0000 154.2500 118.5000 Du        
  53292 ****       137.0000 154.2500 118.7500 Du        
  53293 ****       137.0000 154.2500 119.0000 Du        
  53294 ****       137.0000 154.2500 119.2500 Du        
  53295 ****       137.0000 154.5000 117.5000 Du        
  53296 ****       137.0000 154.5000 117.7500 Du        
  53297 ****       137.0000 154.5000 118.0000 Du        
  53298 ****       137.0000 154.5000 118.2500 Du        
  53299 ****       137.0000 154.5000 118.5000 Du        
  53300 ****       137.0000 154.5000 118.7500 Du        
  53301 ****       137.0000 154.5000 119.0000 Du        
  53302 ****       137.0000 154.5000 119.2500 Du        
  53303 ****       137.0000 154.7500 117.5000 Du        
  53304 ****       137.0000 154.7500 117.7500 Du        
  53305 ****       137.0000 154.7500 118.0000 Du        
  53306 ****       137.0000 154.7500 118.2500 Du        
  53307 ****       137.0000 154.7500 118.5000 Du        
  53308 ****       137.0000 154.7500 118.7500 Du        
  53309 ****       137.0000 154.7500 119.0000 Du        
  53310 ****       137.0000 154.7500 119.2500 Du        
  53311 ****       137.0000 154.7500 119.5000 Du        
  53312 ****       137.0000 155.0000 117.5000 Du        
  53313 ****       137.0000 155.0000 117.7500 Du        
  53314 ****       137.0000 155.0000 118.0000 Du        
  53315 ****       137.0000 155.0000 118.2500 Du        
  53316 ****       137.0000 155.0000 118.5000 Du        
  53317 ****       137.0000 155.0000 118.7500 Du        
  53318 ****       137.0000 155.0000 119.0000 Du        
  53319 ****       137.0000 155.0000 119.2500 Du        
  53320 ****       137.0000 155.0000 119.5000 Du        
  53321 ****       137.0000 155.2500 117.7500 Du        
  53322 ****       137.0000 155.2500 118.0000 Du        
  53323 ****       137.0000 155.2500 118.2500 Du        
  53324 ****       137.0000 155.2500 118.5000 Du        
  53325 ****       137.0000 155.2500 118.7500 Du        
  53326 ****       137.0000 155.2500 119.0000 Du        
  53327 ****       137.0000 155.2500 119.2500 Du        
  53328 ****       137.0000 155.2500 119.5000 Du        
  53329 ****       137.0000 155.5000 118.0000 Du        
  53330 ****       137.0000 155.5000 118.2500 Du        
  53331 ****       137.0000 155.5000 118.5000 Du        
  53332 ****       137.0000 155.5000 118.7500 Du        
  53333 ****       137.0000 155.5000 119.0000 Du        
  53334 ****       137.0000 155.5000 119.2500 Du        
  53335 ****       137.0000 155.5000 119.5000 Du        
  53336 ****       137.0000 155.5000 119.7500 Du        
  53337 ****       137.0000 155.7500 117.7500 Du        
  53338 ****       137.0000 155.7500 118.0000 Du        
  53339 ****       137.0000 155.7500 118.2500 Du        
  53340 ****       137.0000 155.7500 118.5000 Du        
  53341 ****       137.0000 155.7500 118.7500 Du        
  53342 ****       137.0000 155.7500 119.0000 Du        
  53343 ****       137.0000 155.7500 119.2500 Du        
  53344 ****       137.0000 155.7500 119.5000 Du        
  53345 ****       137.0000 155.7500 119.7500 Du        
  53346 ****       137.0000 156.0000 118.0000 Du        
  53347 ****       137.0000 156.0000 118.2500 Du        
  53348 ****       137.0000 156.0000 118.5000 Du        
  53349 ****       137.0000 156.0000 118.7500 Du        
  53350 ****       137.0000 156.0000 119.0000 Du        
  53351 ****       137.0000 156.0000 119.2500 Du        
  53352 ****       137.0000 156.0000 119.5000 Du        
  53353 ****       137.0000 156.0000 119.7500 Du        
  53354 ****       137.0000 156.2500 118.0000 Du        
  53355 ****       137.0000 156.2500 118.2500 Du        
  53356 ****       137.0000 156.2500 118.5000 Du        
  53357 ****       137.0000 156.2500 118.7500 Du        
  53358 ****       137.0000 156.2500 119.0000 Du        
  53359 ****       137.0000 156.2500 119.2500 Du        
  53360 ****       137.0000 156.2500 119.5000 Du        
  53361 ****       137.0000 156.5000 118.5000 Du        
  53362 ****       137.0000 156.5000 118.7500 Du        
  53363 ****       137.0000 156.5000 119.0000 Du        
  53364 ****       137.2500 142.7500 131.7500 Du        
  53365 ****       137.2500 143.0000 131.2500 Du        
  53366 ****       137.2500 143.0000 131.5000 Du        
  53367 ****       137.2500 143.0000 131.7500 Du        
  53368 ****       137.2500 143.0000 132.0000 Du        
  53369 ****       137.2500 143.2500 131.2500 Du        
  53370 ****       137.2500 143.2500 131.5000 Du        
  53371 ****       137.2500 143.2500 131.7500 Du        
  53372 ****       137.2500 143.2500 132.0000 Du        
  53373 ****       137.2500 143.2500 132.2500 Du        
  53374 ****       137.2500 143.5000 131.5000 Du        
  53375 ****       137.2500 143.5000 131.7500 Du        
  53376 ****       137.2500 143.5000 132.0000 Du        
  53377 ****       137.2500 143.5000 132.2500 Du        
  53378 ****       137.2500 143.7500 131.5000 Du        
  53379 ****       137.2500 143.7500 131.7500 Du        
  53380 ****       137.2500 143.7500 132.0000 Du        
  53381 ****       137.2500 144.0000 131.7500 Du        
  53382 ****       137.2500 154.0000 118.5000 Du        
  53383 ****       137.2500 154.0000 118.7500 Du        
  53384 ****       137.2500 154.0000 119.0000 Du        
  53385 ****       137.2500 154.0000 119.2500 Du        
  53386 ****       137.2500 154.2500 117.7500 Du        
  53387 ****       137.2500 154.2500 118.0000 Du        
  53388 ****       137.2500 154.2500 118.2500 Du        
  53389 ****       137.2500 154.2500 118.5000 Du        
  53390 ****       137.2500 154.2500 118.7500 Du        
  53391 ****       137.2500 154.2500 119.0000 Du        
  53392 ****       137.2500 154.2500 119.2500 Du        
  53393 ****       137.2500 154.5000 117.5000 Du        
  53394 ****       137.2500 154.5000 117.7500 Du        
  53395 ****       137.2500 154.5000 118.0000 Du        
  53396 ****       137.2500 154.5000 118.2500 Du        
  53397 ****       137.2500 154.5000 118.5000 Du        
  53398 ****       137.2500 154.5000 118.7500 Du        
  53399 ****       137.2500 154.5000 119.0000 Du        
  53400 ****       137.2500 154.5000 119.2500 Du        
  53401 ****       137.2500 154.7500 117.5000 Du        
  53402 ****       137.2500 154.7500 117.7500 Du        
  53403 ****       137.2500 154.7500 118.0000 Du        
  53404 ****       137.2500 154.7500 118.2500 Du        
  53405 ****       137.2500 154.7500 118.5000 Du        
  53406 ****       137.2500 154.7500 118.7500 Du        
  53407 ****       137.2500 154.7500 119.0000 Du        
  53408 ****       137.2500 154.7500 119.2500 Du        
  53409 ****       137.2500 155.0000 117.7500 Du        
  53410 ****       137.2500 155.0000 118.0000 Du        
  53411 ****       137.2500 155.0000 118.2500 Du        
  53412 ****       137.2500 155.0000 118.5000 Du        
  53413 ****       137.2500 155.0000 118.7500 Du        
  53414 ****       137.2500 155.0000 119.0000 Du        
  53415 ****       137.2500 155.0000 119.2500 Du        
  53416 ****       137.2500 155.2500 117.7500 Du        
  53417 ****       137.2500 155.2500 118.0000 Du        
  53418 ****       137.2500 155.2500 118.2500 Du        
  53419 ****       137.2500 155.2500 118.5000 Du        
  53420 ****       137.2500 155.2500 118.7500 Du        
  53421 ****       137.2500 155.2500 119.0000 Du        
  53422 ****       137.2500 155.2500 119.2500 Du        
  53423 ****       137.2500 155.2500 119.5000 Du        
  53424 ****       137.2500 155.5000 118.0000 Du        
  53425 ****       137.2500 155.5000 118.2500 Du        
  53426 ****       137.2500 155.5000 118.5000 Du        
  53427 ****       137.2500 155.5000 118.7500 Du        
  53428 ****       137.2500 155.5000 119.0000 Du        
  53429 ****       137.2500 155.5000 119.2500 Du        
  53430 ****       137.2500 155.5000 119.5000 Du        
  53431 ****       137.2500 155.7500 118.0000 Du        
  53432 ****       137.2500 155.7500 118.2500 Du        
  53433 ****       137.2500 155.7500 118.5000 Du        
  53434 ****       137.2500 155.7500 118.7500 Du        
  53435 ****       137.2500 155.7500 119.0000 Du        
  53436 ****       137.2500 155.7500 119.2500 Du        
  53437 ****       137.2500 155.7500 119.5000 Du        
  53438 ****       137.2500 156.0000 118.0000 Du        
  53439 ****       137.2500 156.0000 118.2500 Du        
  53440 ****       137.2500 156.0000 118.5000 Du        
  53441 ****       137.2500 156.0000 118.7500 Du        
  53442 ****       137.2500 156.0000 119.0000 Du        
  53443 ****       137.2500 156.0000 119.2500 Du        
  53444 ****       137.2500 156.2500 118.2500 Du        
  53445 ****       137.2500 156.2500 118.5000 Du        
  53446 ****       137.2500 156.2500 118.7500 Du        
  53447 ****       137.2500 156.2500 119.0000 Du        
  53448 ****       137.2500 156.2500 119.2500 Du        
  53449 ****       137.5000 142.7500 131.5000 Du        
  53450 ****       137.5000 142.7500 131.7500 Du        
  53451 ****       137.5000 142.7500 132.0000 Du        
  53452 ****       137.5000 142.7500 132.2500 Du        
  53453 ****       137.5000 143.0000 131.5000 Du        
  53454 ****       137.5000 143.0000 131.7500 Du        
  53455 ****       137.5000 143.0000 132.0000 Du        
  53456 ****       137.5000 143.0000 132.2500 Du        
  53457 ****       137.5000 143.0000 132.5000 Du        
  53458 ****       137.5000 143.2500 131.5000 Du        
  53459 ****       137.5000 143.2500 131.7500 Du        
  53460 ****       137.5000 143.2500 132.0000 Du        
  53461 ****       137.5000 143.2500 132.2500 Du        
  53462 ****       137.5000 143.2500 132.5000 Du        
  53463 ****       137.5000 143.5000 131.5000 Du        
  53464 ****       137.5000 143.5000 131.7500 Du        
  53465 ****       137.5000 143.5000 132.0000 Du        
  53466 ****       137.5000 143.5000 132.2500 Du        
  53467 ****       137.5000 143.5000 132.5000 Du        
  53468 ****       137.5000 143.7500 131.7500 Du        
  53469 ****       137.5000 143.7500 132.0000 Du        
  53470 ****       137.5000 143.7500 132.2500 Du        
  53471 ****       137.5000 144.0000 131.7500 Du        
  53472 ****       137.5000 154.0000 118.2500 Du        
  53473 ****       137.5000 154.0000 118.5000 Du        
  53474 ****       137.5000 154.0000 118.7500 Du        
  53475 ****       137.5000 154.0000 119.0000 Du        
  53476 ****       137.5000 154.2500 117.7500 Du        
  53477 ****       137.5000 154.2500 118.0000 Du        
  53478 ****       137.5000 154.2500 118.2500 Du        
  53479 ****       137.5000 154.2500 118.5000 Du        
  53480 ****       137.5000 154.2500 118.7500 Du        
  53481 ****       137.5000 154.2500 119.0000 Du        
  53482 ****       137.5000 154.5000 118.0000 Du        
  53483 ****       137.5000 154.5000 118.2500 Du        
  53484 ****       137.5000 154.5000 118.5000 Du        
  53485 ****       137.5000 154.5000 118.7500 Du        
  53486 ****       137.5000 154.5000 119.0000 Du        
  53487 ****       137.5000 154.7500 117.7500 Du        
  53488 ****       137.5000 154.7500 118.0000 Du        
  53489 ****       137.5000 154.7500 118.2500 Du        
  53490 ****       137.5000 154.7500 118.5000 Du        
  53491 ****       137.5000 154.7500 118.7500 Du        
  53492 ****       137.5000 154.7500 119.0000 Du        
  53493 ****       137.5000 155.0000 117.7500 Du        
  53494 ****       137.5000 155.0000 118.0000 Du        
  53495 ****       137.5000 155.0000 118.2500 Du        
  53496 ****       137.5000 155.0000 118.5000 Du        
  53497 ****       137.5000 155.0000 118.7500 Du        
  53498 ****       137.5000 155.0000 119.0000 Du        
  53499 ****       137.5000 155.0000 119.2500 Du        
  53500 ****       137.5000 155.2500 118.0000 Du        
  53501 ****       137.5000 155.2500 118.2500 Du        
  53502 ****       137.5000 155.2500 118.5000 Du        
  53503 ****       137.5000 155.2500 118.7500 Du        
  53504 ****       137.5000 155.2500 119.0000 Du        
  53505 ****       137.5000 155.2500 119.2500 Du        
  53506 ****       137.5000 155.5000 118.2500 Du        
  53507 ****       137.5000 155.5000 118.5000 Du        
  53508 ****       137.5000 155.5000 118.7500 Du        
  53509 ****       137.5000 155.5000 119.0000 Du        
  53510 ****       137.5000 155.7500 118.2500 Du        
  53511 ****       137.5000 155.7500 118.5000 Du        
  53512 ****       137.5000 155.7500 118.7500 Du        
  53513 ****       137.5000 155.7500 119.0000 Du        
  53514 ****       137.5000 156.0000 118.5000 Du        
  53515 ****       137.5000 156.0000 118.7500 Du        
  53516 ****       137.7500 142.5000 132.0000 Du        
  53517 ****       137.7500 142.5000 132.2500 Du        
  53518 ****       137.7500 142.7500 131.7500 Du        
  53519 ****       137.7500 142.7500 132.0000 Du        
  53520 ****       137.7500 142.7500 132.2500 Du        
  53521 ****       137.7500 142.7500 132.5000 Du        
  53522 ****       137.7500 142.7500 132.7500 Du        
  53523 ****       137.7500 143.0000 131.5000 Du        
  53524 ****       137.7500 143.0000 131.7500 Du        
  53525 ****       137.7500 143.0000 132.0000 Du        
  53526 ****       137.7500 143.0000 132.2500 Du        
  53527 ****       137.7500 143.0000 132.5000 Du        
  53528 ****       137.7500 143.0000 132.7500 Du        
  53529 ****       137.7500 143.2500 131.5000 Du        
  53530 ****       137.7500 143.2500 131.7500 Du        
  53531 ****       137.7500 143.2500 132.0000 Du        
  53532 ****       137.7500 143.2500 132.2500 Du        
  53533 ****       137.7500 143.2500 132.5000 Du        
  53534 ****       137.7500 143.2500 132.7500 Du        
  53535 ****       137.7500 143.5000 131.7500 Du        
  53536 ****       137.7500 143.5000 132.0000 Du        
  53537 ****       137.7500 143.5000 132.2500 Du        
  53538 ****       137.7500 143.5000 132.5000 Du        
  53539 ****       137.7500 143.7500 131.7500 Du        
  53540 ****       137.7500 143.7500 132.0000 Du        
  53541 ****       137.7500 143.7500 132.2500 Du        
  53542 ****       137.7500 144.0000 131.7500 Du        
  53543 ****       137.7500 154.0000 118.0000 Du        
  53544 ****       137.7500 154.0000 118.2500 Du        
  53545 ****       137.7500 154.0000 118.5000 Du        
  53546 ****       137.7500 154.0000 118.7500 Du        
  53547 ****       137.7500 154.0000 119.0000 Du        
  53548 ****       137.7500 154.2500 117.7500 Du        
  53549 ****       137.7500 154.2500 118.0000 Du        
  53550 ****       137.7500 154.2500 118.2500 Du        
  53551 ****       137.7500 154.2500 118.5000 Du        
  53552 ****       137.7500 154.2500 118.7500 Du        
  53553 ****       137.7500 154.2500 119.0000 Du        
  53554 ****       137.7500 154.5000 117.7500 Du        
  53555 ****       137.7500 154.5000 118.0000 Du        
  53556 ****       137.7500 154.5000 118.2500 Du        
  53557 ****       137.7500 154.5000 118.5000 Du        
  53558 ****       137.7500 154.5000 118.7500 Du        
  53559 ****       137.7500 154.5000 119.0000 Du        
  53560 ****       137.7500 154.7500 117.7500 Du        
  53561 ****       137.7500 154.7500 118.0000 Du        
  53562 ****       137.7500 154.7500 118.2500 Du        
  53563 ****       137.7500 154.7500 118.5000 Du        
  53564 ****       137.7500 154.7500 118.7500 Du        
  53565 ****       137.7500 154.7500 119.0000 Du        
  53566 ****       137.7500 155.0000 117.7500 Du        
  53567 ****       137.7500 155.0000 118.0000 Du        
  53568 ****       137.7500 155.0000 118.2500 Du        
  53569 ****       137.7500 155.0000 118.5000 Du        
  53570 ****       137.7500 155.0000 118.7500 Du        
  53571 ****       137.7500 155.0000 119.0000 Du        
  53572 ****       137.7500 155.2500 118.0000 Du        
  53573 ****       137.7500 155.2500 118.2500 Du        
  53574 ****       137.7500 155.2500 118.5000 Du        
  53575 ****       137.7500 155.2500 118.7500 Du        
  53576 ****       137.7500 155.2500 119.0000 Du        
  53577 ****       137.7500 155.5000 118.2500 Du        
  53578 ****       137.7500 155.5000 118.5000 Du        
  53579 ****       137.7500 155.5000 118.7500 Du        
  53580 ****       137.7500 155.5000 119.0000 Du        
  53581 ****       137.7500 155.7500 118.0000 Du        
  53582 ****       137.7500 155.7500 118.2500 Du        
  53583 ****       137.7500 155.7500 118.5000 Du        
  53584 ****       137.7500 155.7500 118.7500 Du        
  53585 ****       137.7500 156.0000 118.5000 Du        
  53586 ****       137.7500 156.0000 118.7500 Du        
  53587 ****       138.0000 142.5000 132.0000 Du        
  53588 ****       138.0000 142.5000 132.2500 Du        
  53589 ****       138.0000 142.7500 131.7500 Du        
  53590 ****       138.0000 142.7500 132.0000 Du        
  53591 ****       138.0000 142.7500 132.2500 Du        
  53592 ****       138.0000 142.7500 132.5000 Du        
  53593 ****       138.0000 143.0000 131.7500 Du        
  53594 ****       138.0000 143.0000 132.0000 Du        
  53595 ****       138.0000 143.0000 132.2500 Du        
  53596 ****       138.0000 143.0000 132.5000 Du        
  53597 ****       138.0000 143.0000 132.7500 Du        
  53598 ****       138.0000 143.2500 131.7500 Du        
  53599 ****       138.0000 143.2500 132.0000 Du        
  53600 ****       138.0000 143.2500 132.2500 Du        
  53601 ****       138.0000 143.2500 132.5000 Du        
  53602 ****       138.0000 143.5000 131.7500 Du        
  53603 ****       138.0000 143.5000 132.0000 Du        
  53604 ****       138.0000 143.5000 132.2500 Du        
  53605 ****       138.0000 143.7500 132.0000 Du        
  53606 ****       138.0000 153.7500 118.7500 Du        
  53607 ****       138.0000 154.0000 118.0000 Du        
  53608 ****       138.0000 154.0000 118.2500 Du        
  53609 ****       138.0000 154.0000 118.5000 Du        
  53610 ****       138.0000 154.0000 118.7500 Du        
  53611 ****       138.0000 154.0000 119.0000 Du        
  53612 ****       138.0000 154.2500 117.7500 Du        
  53613 ****       138.0000 154.2500 118.0000 Du        
  53614 ****       138.0000 154.2500 118.2500 Du        
  53615 ****       138.0000 154.2500 118.5000 Du        
  53616 ****       138.0000 154.2500 118.7500 Du        
  53617 ****       138.0000 154.2500 119.0000 Du        
  53618 ****       138.0000 154.5000 117.7500 Du        
  53619 ****       138.0000 154.5000 118.0000 Du        
  53620 ****       138.0000 154.5000 118.2500 Du        
  53621 ****       138.0000 154.5000 118.5000 Du        
  53622 ****       138.0000 154.5000 118.7500 Du        
  53623 ****       138.0000 154.5000 119.0000 Du        
  53624 ****       138.0000 154.7500 117.7500 Du        
  53625 ****       138.0000 154.7500 118.0000 Du        
  53626 ****       138.0000 154.7500 118.2500 Du        
  53627 ****       138.0000 154.7500 118.5000 Du        
  53628 ****       138.0000 154.7500 118.7500 Du        
  53629 ****       138.0000 154.7500 119.0000 Du        
  53630 ****       138.0000 155.0000 117.7500 Du        
  53631 ****       138.0000 155.0000 118.0000 Du        
  53632 ****       138.0000 155.0000 118.2500 Du        
  53633 ****       138.0000 155.0000 118.5000 Du        
  53634 ****       138.0000 155.0000 118.7500 Du        
  53635 ****       138.0000 155.0000 119.0000 Du        
  53636 ****       138.0000 155.2500 118.0000 Du        
  53637 ****       138.0000 155.2500 118.2500 Du        
  53638 ****       138.0000 155.2500 118.5000 Du        
  53639 ****       138.0000 155.2500 118.7500 Du        
  53640 ****       138.0000 155.2500 119.0000 Du        
  53641 ****       138.0000 155.5000 118.2500 Du        
  53642 ****       138.0000 155.5000 118.5000 Du        
  53643 ****       138.0000 155.5000 118.7500 Du        
  53644 ****       138.0000 155.7500 118.0000 Du        
  53645 ****       138.0000 155.7500 118.2500 Du        
  53646 ****       138.0000 155.7500 118.5000 Du        
  53647 ****       138.0000 155.7500 118.7500 Du        
  53648 ****       138.2500 142.7500 132.0000 Du        
  53649 ****       138.2500 142.7500 132.2500 Du        
  53650 ****       138.2500 143.0000 132.0000 Du        
  53651 ****       138.2500 143.0000 132.2500 Du        
  53652 ****       138.2500 143.2500 132.0000 Du        
  53653 ****       138.2500 153.7500 118.5000 Du        
  53654 ****       138.2500 154.0000 118.0000 Du        
  53655 ****       138.2500 154.0000 118.2500 Du        
  53656 ****       138.2500 154.0000 118.5000 Du        
  53657 ****       138.2500 154.0000 118.7500 Du        
  53658 ****       138.2500 154.2500 117.7500 Du        
  53659 ****       138.2500 154.2500 118.0000 Du        
  53660 ****       138.2500 154.2500 118.2500 Du        
  53661 ****       138.2500 154.2500 118.5000 Du        
  53662 ****       138.2500 154.2500 118.7500 Du        
  53663 ****       138.2500 154.5000 117.7500 Du        
  53664 ****       138.2500 154.5000 118.0000 Du        
  53665 ****       138.2500 154.5000 118.2500 Du        
  53666 ****       138.2500 154.5000 118.5000 Du        
  53667 ****       138.2500 154.5000 118.7500 Du        
  53668 ****       138.2500 154.7500 117.7500 Du        
  53669 ****       138.2500 154.7500 118.0000 Du        
  53670 ****       138.2500 154.7500 118.2500 Du        
  53671 ****       138.2500 154.7500 118.5000 Du        
  53672 ****       138.2500 154.7500 118.7500 Du        
  53673 ****       138.2500 155.0000 117.7500 Du        
  53674 ****       138.2500 155.0000 118.0000 Du        
  53675 ****       138.2500 155.0000 118.2500 Du        
  53676 ****       138.2500 155.0000 118.5000 Du        
  53677 ****       138.2500 155.0000 118.7500 Du        
  53678 ****       138.2500 155.2500 118.0000 Du        
  53679 ****       138.2500 155.2500 118.2500 Du        
  53680 ****       138.2500 155.2500 118.5000 Du        
  53681 ****       138.2500 155.2500 118.7500 Du        
  53682 ****       138.2500 155.5000 118.2500 Du        
  53683 ****       138.2500 155.5000 118.5000 Du        
  53684 ****       138.2500 155.5000 118.7500 Du        
  53685 ****       138.2500 155.7500 118.5000 Du        
  53686 ****       138.5000 148.7500 134.0000 Du        
  53687 ****       138.5000 149.0000 134.0000 Du        
  53688 ****       138.5000 154.0000 118.2500 Du        
  53689 ****       138.5000 154.0000 118.5000 Du        
  53690 ****       138.5000 154.2500 118.0000 Du        
  53691 ****       138.5000 154.2500 118.2500 Du        
  53692 ****       138.5000 154.2500 118.5000 Du        
  53693 ****       138.5000 154.2500 118.7500 Du        
  53694 ****       138.5000 154.5000 118.0000 Du        
  53695 ****       138.5000 154.5000 118.2500 Du        
  53696 ****       138.5000 154.5000 118.5000 Du        
  53697 ****       138.5000 154.5000 118.7500 Du        
  53698 ****       138.5000 154.7500 118.0000 Du        
  53699 ****       138.5000 154.7500 118.2500 Du        
  53700 ****       138.5000 154.7500 118.5000 Du        
  53701 ****       138.5000 154.7500 118.7500 Du        
  53702 ****       138.5000 155.0000 118.0000 Du        
  53703 ****       138.5000 155.0000 118.2500 Du        
  53704 ****       138.5000 155.0000 118.5000 Du        
  53705 ****       138.5000 155.0000 118.7500 Du        
  53706 ****       138.5000 155.2500 118.0000 Du        
  53707 ****       138.5000 155.2500 118.2500 Du        
  53708 ****       138.5000 155.2500 118.5000 Du        
  53709 ****       138.7500 148.5000 133.7500 Du        
  53710 ****       138.7500 148.5000 134.0000 Du        
  53711 ****       138.7500 148.7500 133.7500 Du        
  53712 ****       138.7500 148.7500 134.0000 Du        
  53713 ****       138.7500 149.0000 133.7500 Du        
  53714 ****       138.7500 149.0000 134.0000 Du        
  53715 ****       138.7500 154.0000 118.0000 Du        
  53716 ****       138.7500 154.0000 118.2500 Du        
  53717 ****       138.7500 154.0000 118.5000 Du        
  53718 ****       138.7500 154.2500 118.0000 Du        
  53719 ****       138.7500 154.2500 118.2500 Du        
  53720 ****       138.7500 154.2500 118.5000 Du        
  53721 ****       138.7500 154.5000 118.0000 Du        
  53722 ****       138.7500 154.5000 118.2500 Du        
  53723 ****       138.7500 154.5000 118.5000 Du        
  53724 ****       138.7500 154.7500 118.0000 Du        
  53725 ****       138.7500 154.7500 118.2500 Du        
  53726 ****       138.7500 154.7500 118.5000 Du        
  53727 ****       138.7500 155.0000 118.0000 Du        
  53728 ****       138.7500 155.0000 118.2500 Du        
  53729 ****       138.7500 155.0000 118.5000 Du        
  53730 ****       138.7500 155.2500 118.0000 Du        
  53731 ****       138.7500 155.2500 118.2500 Du        
  53732 ****       138.7500 155.2500 118.5000 Du        
  53733 ****       139.0000 148.2500 133.7500 Du        
  53734 ****       139.0000 148.2500 134.0000 Du        
  53735 ****       139.0000 148.5000 133.7500 Du        
  53736 ****       139.0000 148.5000 134.0000 Du        
  53737 ****       139.0000 148.7500 133.7500 Du        
  53738 ****       139.0000 148.7500 134.0000 Du        
  53739 ****       139.0000 154.0000 118.0000 Du        
  53740 ****       139.0000 154.0000 118.2500 Du        
  53741 ****       139.0000 154.2500 118.0000 Du        
  53742 ****       139.0000 154.2500 118.2500 Du        
  53743 ****       139.0000 154.5000 118.0000 Du        
  53744 ****       139.0000 154.5000 118.5000 Du        
  53745 ****       139.0000 154.7500 118.0000 Du        
  53746 ****       139.0000 154.7500 118.2500 Du        
  53747 ****       139.0000 154.7500 118.5000 Du        
  53748 ****       139.0000 155.0000 118.0000 Du        
  53749 ****       139.0000 155.0000 118.2500 Du        
  53750 ****       139.0000 155.0000 118.5000 Du        
  53751 ****       139.0000 155.2500 118.0000 Du        
  53752 ****       139.0000 155.2500 118.2500 Du        
  53753 ****       139.0000 155.2500 118.5000 Du        
  53754 ****       139.2500 148.2500 134.0000 Du        
  53755 ****       139.2500 148.5000 134.0000 Du        
  53756 ****       139.2500 154.0000 118.0000 Du        
  53757 ****       139.2500 154.7500 118.0000 Du        
  53758 ****       139.2500 154.7500 118.2500 Du        
  53759 ****       139.2500 154.7500 118.5000 Du        
  53760 ****       139.2500 155.0000 118.0000 Du        
  53761 ****       139.2500 155.0000 118.2500 Du        
  53762 ****       139.2500 155.0000 118.5000 Du        
  53763 ****       139.2500 155.2500 118.0000 Du        
  53764 ****       139.2500 155.2500 118.2500 Du        
  53765 ****       139.2500 155.2500 118.5000 Du        
  53766 ****       139.5000 154.7500 118.0000 Du        
  53767 ****       139.5000 154.7500 118.2500 Du        
  53768 ****       139.5000 155.0000 118.0000 Du        
  53769 ****       139.5000 155.0000 118.2500 Du        
  53770 ****       139.5000 155.0000 118.5000 Du        
  53771 ****       139.5000 155.2500 118.0000 Du        
  53772 ****       139.5000 155.2500 118.2500 Du        
  53773 ****       139.5000 155.2500 118.5000 Du        
  53774 ****       139.5000 155.5000 118.0000 Du        
  53775 ****       139.5000 155.5000 118.2500 Du        
  53776 ****       139.7500 154.7500 118.0000 Du        
  53777 ****       139.7500 155.0000 117.7500 Du        
  53778 ****       139.7500 155.0000 118.0000 Du        
  53779 ****       139.7500 155.0000 118.2500 Du        
  53780 ****       139.7500 155.0000 118.5000 Du        
  53781 ****       139.7500 155.2500 118.0000 Du        
  53782 ****       139.7500 155.2500 118.2500 Du        
  53783 ****       139.7500 155.5000 118.0000 Du        
  53784 ****       139.7500 155.5000 118.2500 Du        
  53785 ****       139.7500 155.5000 118.5000 Du        
  53786 ****       139.7500 155.7500 118.0000 Du        
  53787 ****       139.7500 155.7500 118.2500 Du        
  53788 ****       140.0000 154.7500 117.7500 Du        
  53789 ****       140.0000 154.7500 118.0000 Du        
  53790 ****       140.0000 155.0000 117.7500 Du        
  53791 ****       140.0000 155.0000 118.0000 Du        
  53792 ****       140.0000 155.0000 118.2500 Du        
  53793 ****       140.0000 155.2500 117.7500 Du        
  53794 ****       140.0000 155.2500 118.0000 Du        
  53795 ****       140.0000 155.2500 118.2500 Du        
  53796 ****       140.0000 155.5000 117.7500 Du        
  53797 ****       140.0000 155.5000 118.0000 Du        
  53798 ****       140.0000 155.5000 118.2500 Du        
  53799 ****       140.0000 155.5000 118.5000 Du        
  53800 ****       140.0000 155.7500 118.0000 Du        
  53801 ****       140.0000 155.7500 118.2500 Du        
  53802 ****       140.0000 155.7500 118.5000 Du        
  53803 ****       140.2500 154.7500 118.0000 Du        
  53804 ****       140.2500 155.0000 117.7500 Du        
  53805 ****       140.2500 155.0000 118.0000 Du        
  53806 ****       140.2500 155.2500 117.7500 Du        
  53807 ****       140.2500 155.2500 118.0000 Du        
  53808 ****       140.2500 155.2500 118.2500 Du        
  53809 ****       140.2500 155.5000 117.7500 Du        
  53810 ****       140.2500 155.5000 118.0000 Du        
  53811 ****       140.2500 155.5000 118.2500 Du        
  53812 ****       140.2500 155.5000 118.5000 Du        
  53813 ****       140.2500 155.7500 118.0000 Du        
  53814 ****       140.2500 155.7500 118.2500 Du        
  53815 ****       140.2500 155.7500 118.5000 Du        
  53816 ****       140.5000 153.0000 117.5000 Du        
  53817 ****       140.5000 153.2500 117.5000 Du        
  53818 ****       140.5000 155.0000 118.0000 Du        
  53819 ****       140.5000 155.2500 117.7500 Du        
  53820 ****       140.5000 155.2500 118.0000 Du        
  53821 ****       140.5000 155.2500 118.2500 Du        
  53822 ****       140.5000 155.5000 118.0000 Du        
  53823 ****       140.5000 155.5000 118.2500 Du        
  53824 ****       140.5000 155.5000 118.5000 Du        
  53825 ****       140.5000 155.7500 118.0000 Du        
  53826 ****       140.5000 155.7500 118.2500 Du        
  53827 ****       140.5000 155.7500 118.5000 Du        
  53828 ****       140.5000 156.0000 118.5000 Du        
  53829 ****       140.7500 151.7500 117.2500 Du        
  53830 ****       140.7500 151.7500 117.5000 Du        
  53831 ****       140.7500 152.0000 117.0000 Du        
  53832 ****       140.7500 152.0000 117.2500 Du        
  53833 ****       140.7500 152.0000 117.5000 Du        
  53834 ****       140.7500 152.0000 117.7500 Du        
  53835 ****       140.7500 152.0000 118.0000 Du        
  53836 ****       140.7500 152.2500 117.0000 Du        
  53837 ****       140.7500 152.2500 117.2500 Du        
  53838 ****       140.7500 152.2500 117.5000 Du        
  53839 ****       140.7500 152.2500 117.7500 Du        
  53840 ****       140.7500 152.5000 117.2500 Du        
  53841 ****       140.7500 152.5000 117.5000 Du        
  53842 ****       140.7500 152.5000 117.7500 Du        
  53843 ****       140.7500 152.7500 117.2500 Du        
  53844 ****       140.7500 152.7500 117.5000 Du        
  53845 ****       140.7500 152.7500 117.7500 Du        
  53846 ****       140.7500 153.0000 117.2500 Du        
  53847 ****       140.7500 153.0000 117.5000 Du        
  53848 ****       140.7500 153.2500 117.2500 Du        
  53849 ****       140.7500 153.2500 117.5000 Du        
  53850 ****       140.7500 155.2500 117.7500 Du        
  53851 ****       140.7500 155.2500 118.0000 Du        
  53852 ****       140.7500 155.5000 118.0000 Du        
  53853 ****       140.7500 155.5000 118.2500 Du        
  53854 ****       140.7500 155.7500 118.0000 Du        
  53855 ****       140.7500 155.7500 118.2500 Du        
  53856 ****       140.7500 155.7500 118.5000 Du        
  53857 ****       140.7500 156.0000 118.2500 Du        
  53858 ****       140.7500 156.0000 118.5000 Du        
  53859 ****       141.0000 151.7500 117.0000 Du        
  53860 ****       141.0000 151.7500 117.2500 Du        
  53861 ****       141.0000 151.7500 117.5000 Du        
  53862 ****       141.0000 151.7500 117.7500 Du        
  53863 ****       141.0000 151.7500 118.0000 Du        
  53864 ****       141.0000 152.0000 116.7500 Du        
  53865 ****       141.0000 152.0000 117.0000 Du        
  53866 ****       141.0000 152.0000 117.2500 Du        
  53867 ****       141.0000 152.0000 117.5000 Du        
  53868 ****       141.0000 152.0000 117.7500 Du        
  53869 ****       141.0000 152.0000 118.0000 Du        
  53870 ****       141.0000 152.2500 117.0000 Du        
  53871 ****       141.0000 152.2500 117.2500 Du        
  53872 ****       141.0000 152.2500 117.5000 Du        
  53873 ****       141.0000 152.2500 117.7500 Du        
  53874 ****       141.0000 152.2500 118.0000 Du        
  53875 ****       141.0000 152.5000 117.0000 Du        
  53876 ****       141.0000 152.5000 117.2500 Du        
  53877 ****       141.0000 152.5000 117.5000 Du        
  53878 ****       141.0000 152.5000 117.7500 Du        
  53879 ****       141.0000 152.7500 117.0000 Du        
  53880 ****       141.0000 152.7500 117.2500 Du        
  53881 ****       141.0000 152.7500 117.5000 Du        
  53882 ****       141.0000 152.7500 117.7500 Du        
  53883 ****       141.0000 153.0000 117.2500 Du        
  53884 ****       141.0000 153.0000 117.5000 Du        
  53885 ****       141.0000 153.2500 117.2500 Du        
  53886 ****       141.0000 153.2500 117.5000 Du        
  53887 ****       141.0000 155.7500 118.0000 Du        
  53888 ****       141.0000 155.7500 118.2500 Du        
  53889 ****       141.0000 156.0000 118.0000 Du        
  53890 ****       141.0000 156.0000 118.2500 Du        
  53891 ****       141.0000 156.0000 118.5000 Du        
  53892 ****       141.2500 156.2500 118.5000 Du        
