#       Name:                CT1002167954
#       Creating user name   hitesit
#       Creation time:       Sun Apr 16 02:23:11 2023


#       File generated by GOLD software.
#

@<TRIPOS>MOLECULE
CT1002167954|ligand_prepared|mol2|1|dock9
    29    30     1
SMALL
NO_CHARGES


@<TRIPOS>ATOM
      1 C1         121.5884 155.0443 124.2046 C.3            1 RES1               0.0000
      2 C2         121.4904 155.8619 122.9005 C.ar           1 RES1               0.0000
      3 C3         122.9910 155.2832 124.7557 C.2            1 RES1               0.0000
      4 C4         120.4700 155.5492 125.1097 C.2            1 RES1               0.0000
      5 C5         121.3915 153.5235 124.0049 C.3            1 RES1               0.0000
      6 C6         120.8558 157.1004 122.8865 C.ar           1 RES1               0.0000
      7 C7         122.0312 155.3928 121.7063 C.ar           1 RES1               0.0000
      8 N8         123.1119 156.0921 125.8470 N.am           1 RES1               0.0000
      9 O9         123.9798 154.8011 124.2171 O.2            1 RES1               0.0000
     10 N10        120.8220 156.1947 126.2661 N.am           1 RES1               0.0000
     11 O11        119.2874 155.4086 124.8237 O.2            1 RES1               0.0000
     12 C12        121.2018 152.7542 125.3027 C.3            1 RES1               0.0000
     13 C13        120.7675 157.8444 121.7216 C.ar           1 RES1               0.0000
     14 C14        121.9416 156.1384 120.5424 C.ar           1 RES1               0.0000
     15 C15        122.0921 156.5161 126.6606 C.2            1 RES1               0.0000
     16 C16        121.3107 157.3642 120.5490 C.ar           1 RES1               0.0000
     17 O17        122.3255 157.1465 127.6879 O.2            1 RES1               0.0000
     18 H18        120.5137 153.3618 123.3671 H              1 RES1               0.0000
     19 H19        122.2662 153.1201 123.4800 H              1 RES1               0.0000
     20 H20        120.4202 157.4934 123.7991 H              1 RES1               0.0000
     21 H21        122.5312 154.4307 121.6772 H              1 RES1               0.0000
     22 H22        124.0469 156.4113 126.0797 H              1 RES1               0.0000
     23 H23        120.0671 156.4601 126.8907 H              1 RES1               0.0000
     24 H24        121.0681 151.6926 125.1058 H              1 RES1               0.0000
     25 H25        122.0675 152.8721 125.9511 H              1 RES1               0.0000
     26 H26        120.3254 153.1124 125.8389 H              1 RES1               0.0000
     27 H27        120.2688 158.8079 121.7318 H              1 RES1               0.0000
     28 H28        122.3700 155.7563 119.6217 H              1 RES1               0.0000
     29 H29        121.2418 157.9474 119.6367 H              1 RES1               0.0000
@<TRIPOS>BOND
    1    1    2 1     
    2    1    3 1     
    3    1    4 1     
    4    1    5 1     
    5    2    6 ar    
    6    2    7 ar    
    7    3    8 1     
    8    3    9 2     
    9    4   10 1     
   10    4   11 2     
   11    5   12 1     
   12    5   18 1     
   13    5   19 1     
   14    6   13 ar    
   15    6   20 1     
   16    7   14 ar    
   17    7   21 1     
   18    8   15 1     
   19    8   22 1     
   20   10   15 1     
   21   10   23 1     
   22   12   24 1     
   23   12   25 1     
   24   12   26 1     
   25   13   16 ar    
   26   13   27 1     
   27   14   16 ar    
   28   14   28 1     
   29   15   17 2     
   30   16   29 1     
@<TRIPOS>SUBSTRUCTURE
      1 RES1           1
@<TRIPOS>SET
DONOR_HYDROGENS      STATIC     ATOMS    <user>   **** ""
2 22 23
ATOM$RED        STATIC     ATOMS    COLORGROUP SYSTEM
2 22 23
@<TRIPOS>COMMENT
> <Gold.Version>
2022.3.0

> <Gold.Id.Protein>
unknown|7xmr_cavity_clean|pdb

> <Gold.Protein.RotatedTorsions>
[ 5212 5207 5206 5203 ] final   92.09 input   60.02 | X-H torsion
[ 3657 3648 3647 3646 ] final  -24.23 input   60.03 | X-H torsion
[ 4825 4820 4819 4816 ] final   62.68 input   60.00 | X-H torsion
[ 1545 1538 1536 1533 ] final  -45.90 input   60.02 | X-H torsion
[ 4846 4837 4836 4834 ] final  135.98 input   59.98 | X-H torsion
[ 2091 2080 2079 2078 ] final   95.01 input   59.99 | X-H torsion
[ 4874 4867 4865 4862 ] final   31.44 input   60.01 | X-H torsion
[ 3728 3717 3716 3715 ] final  146.88 input   59.98 | X-H torsion
[ 2151 2144 2142 2139 ] final   -3.73 input   60.03 | X-H torsion
[ 2175 2168 2166 2163 ] final -169.61 input   60.03 | X-H torsion
[ 8230 8219 8218 8215 ] final  121.35 input   60.01 | X-H torsion
[ 8231 8220 8221 8222 ] final  159.34 input  100.72 | X-H torsion
[ 8235 8225 8224 8221 ] final -172.39 input   60.01 | X-H torsion
[ 3801 3791 3782 3781 ] final -119.97 input   60.03 | X-H torsion
[ 2186 2181 2180 2177 ] final   17.48 input   60.01 | X-H torsion
[ 3142 3136 3134 3131 ] final -173.97 input   60.00 | X-H torsion
[ 1102 1093 1092 1091 ] final -124.80 input   60.00 | X-H torsion
[ 3163 3152 3151 3150 ] final -103.58 input   59.99 | X-H torsion
[ 8437 8432 8431 8428 ] final  -14.94 input   59.99 | X-H torsion
[ 3220 3211 3210 3208 ] final -131.74 input   60.01 | X-H torsion
[ 5037 5032 5031 5028 ] final -125.53 input   60.02 | X-H torsion
[  498  487  486  485 ] final   84.96 input   60.00 | X-H torsion
[ 4492 4485 4483 4480 ] final  -24.21 input   60.02 | X-H torsion
[ 5177 5168 5167 5165 ] final  169.86 input   59.98 | X-H torsion
[ 13102 8223 8222 8221 ] final  -28.28 input   -0.00 | X-H torsion

> <Gold.Protein.ActiveResidues>
 ASP20   ARG21   LEU23   ARG24   ASP26   GLY27   GLU28   ALA30   ALA31   ARG32  
 GLU33   VAL34   LYS35   GLU186  ASP193  LEU194  HIS195  LYS197  HIS213  CYS214 
 PHE215  GLU216  GLY217  VAL218  THR219  LYS257  TRP258  PHE259  THR260  ASP261 
 THR262  SER263  ARG313  ASP315  THR316  LYS317  GLU318  TYR320  ASP341  VAL342 
 ILE343  LYS345  ASN346  ASN347  LYS349  ASP350  CYS351  PHE354  MET61   HIS62  
 TRP63   GLY64   THR65   ASP66   ARG68   SER84   TYR85   THR87   SER98   TYR105 
 PRO107  SER108  ASN293  ASN295  ARG314  VAL315  SER316  TRP332  ASP333  SER334 
 PHE335 

> <Gold.Protein.RotatedAtoms>
  124.8159  156.3922  123.4369 H   0  0  0  0  0  0  0  0  0  0  0  0  # atno 498  bound_to 487 
  125.2424  156.7760  121.8815 H   0  0  0  0  0  0  0  0  0  0  0  0  # atno 499  bound_to 487 
  125.8917  157.6198  123.1524 H   0  0  0  0  0  0  0  0  0  0  0  0  # atno 500  bound_to 487 
  122.9374  160.5747  120.1057 H   0  0  0  0  0  0  0  0  0  0  0  0  # atno 1102 bound_to 1093
  123.6773  160.6789  118.6261 H   0  0  0  0  0  0  0  0  0  0  0  0  # atno 1103 bound_to 1093
  123.9790  159.3834  119.6150 H   0  0  0  0  0  0  0  0  0  0  0  0  # atno 1104 bound_to 1093
  128.8296  157.8901  128.2056 H   0  0  0  0  0  0  0  0  0  0  0  0  # atno 1545 bound_to 1538
  111.6593  159.6909  140.8753 H   0  0  0  0  0  0  0  0  0  0  0  0  # atno 2091 bound_to 2080
  110.3929  159.1646  141.8062 H   0  0  0  0  0  0  0  0  0  0  0  0  # atno 2092 bound_to 2080
  111.9242  159.2117  142.4401 H   0  0  0  0  0  0  0  0  0  0  0  0  # atno 2093 bound_to 2080
  121.8426  156.5178  139.6658 H   0  0  0  0  0  0  0  0  0  0  0  0  # atno 2151 bound_to 2144
  123.1152  161.4338  135.3811 H   0  0  0  0  0  0  0  0  0  0  0  0  # atno 2175 bound_to 2168
  129.6173  162.8370  135.0770 H   0  0  0  0  0  0  0  0  0  0  0  0  # atno 2186 bound_to 2181
  125.4306  157.6422  143.9966 H   0  0  0  0  0  0  0  0  0  0  0  0  # atno 3142 bound_to 3136
  123.0915  164.2477  139.6538 H   0  0  0  0  0  0  0  0  0  0  0  0  # atno 3163 bound_to 3152
  123.1540  164.3900  141.3041 H   0  0  0  0  0  0  0  0  0  0  0  0  # atno 3164 bound_to 3152
  124.0505  165.4073  140.3496 H   0  0  0  0  0  0  0  0  0  0  0  0  # atno 3165 bound_to 3152
  133.8490  162.1032  136.6964 H   0  0  0  0  0  0  0  0  0  0  0  0  # atno 3220 bound_to 3211
  137.0033  157.4278  140.6548 H   0  0  0  0  0  0  0  0  0  0  0  0  # atno 3657 bound_to 3648
  138.4707  157.8040  139.9827 H   0  0  0  0  0  0  0  0  0  0  0  0  # atno 3658 bound_to 3648
  137.9237  158.6456  141.3023 H   0  0  0  0  0  0  0  0  0  0  0  0  # atno 3659 bound_to 3648
  128.7314  152.4966  141.1955 H   0  0  0  0  0  0  0  0  0  0  0  0  # atno 3728 bound_to 3717
  129.8424  151.3378  140.7832 H   0  0  0  0  0  0  0  0  0  0  0  0  # atno 3729 bound_to 3717
  130.3514  152.8234  141.3146 H   0  0  0  0  0  0  0  0  0  0  0  0  # atno 3730 bound_to 3717
  133.8696  150.2081  143.9962 H   0  0  0  0  0  0  0  0  0  0  0  0  # atno 3801 bound_to 3791
   95.4314  146.1757  111.8893 H   0  0  0  0  0  0  0  0  0  0  0  0  # atno 4492 bound_to 4485
  102.6748  137.9225  117.9939 H   0  0  0  0  0  0  0  0  0  0  0  0  # atno 4825 bound_to 4820
   97.9787  136.7498  115.2721 H   0  0  0  0  0  0  0  0  0  0  0  0  # atno 4846 bound_to 4837
  108.3264  134.9120  118.2531 H   0  0  0  0  0  0  0  0  0  0  0  0  # atno 4874 bound_to 4867
  120.0945  160.1598  119.6622 H   0  0  0  0  0  0  0  0  0  0  0  0  # atno 5037 bound_to 5032
  101.6823  146.3642  110.2884 H   0  0  0  0  0  0  0  0  0  0  0  0  # atno 5177 bound_to 5168
   97.0184  151.4910  106.9258 H   0  0  0  0  0  0  0  0  0  0  0  0  # atno 5212 bound_to 5207
  108.4046  151.4468  127.7981 H   0  0  0  0  0  0  0  0  0  0  0  0  # atno 8230 bound_to 8219
  133.4349  142.2792  143.2056 H   0  0  0  0  0  0  0  0  0  0  0  0  # atno 8231 bound_to 8220
  131.1741  143.2466  139.3342 H   0  0  0  0  0  0  0  0  0  0  0  0  # atno 8235 bound_to 8225
  117.4280  145.9341  127.7277 H   0  0  0  0  0  0  0  0  0  0  0  0  # atno 8437 bound_to 8432
   96.1681  151.6810  108.3006 LP  0  0  0  0  0  0  0  0  0  0  0  0  # atno 13008 bound_to 5207
   95.5889  152.2684  106.8913 LP  0  0  0  0  0  0  0  0  0  0  0  0  # atno 13009 bound_to 5207
  103.0578  139.4404  117.5499 LP  0  0  0  0  0  0  0  0  0  0  0  0  # atno 13018 bound_to 4820
  102.3790  139.1599  119.0084 LP  0  0  0  0  0  0  0  0  0  0  0  0  # atno 13019 bound_to 4820
  129.6594  158.6419  127.0249 LP  0  0  0  0  0  0  0  0  0  0  0  0  # atno 13022 bound_to 1538
  128.0460  158.8567  127.1570 LP  0  0  0  0  0  0  0  0  0  0  0  0  # atno 13023 bound_to 1538
   98.1899  136.4852  116.8639 LP  0  0  0  0  0  0  0  0  0  0  0  0  # atno 13035 bound_to 4837
   97.6792  135.2756  115.8930 LP  0  0  0  0  0  0  0  0  0  0  0  0  # atno 13036 bound_to 4837
  109.0458  135.6129  119.5338 LP  0  0  0  0  0  0  0  0  0  0  0  0  # atno 13051 bound_to 4867
  109.1639  133.9997  119.3092 LP  0  0  0  0  0  0  0  0  0  0  0  0  # atno 13052 bound_to 4867
  120.5263  156.0067  140.4742 LP  0  0  0  0  0  0  0  0  0  0  0  0  # atno 13069 bound_to 2144
  122.0110  155.4896  140.9155 LP  0  0  0  0  0  0  0  0  0  0  0  0  # atno 13070 bound_to 2144
  124.1599  162.0030  136.4918 LP  0  0  0  0  0  0  0  0  0  0  0  0  # atno 13095 bound_to 2168
  123.4990  160.5207  136.6726 LP  0  0  0  0  0  0  0  0  0  0  0  0  # atno 13096 bound_to 2168
  107.8649  150.2245  128.7270 LP  0  0  0  0  0  0  0  0  0  0  0  0  # atno 13099 bound_to 8219
  109.4092  150.7375  128.8637 LP  0  0  0  0  0  0  0  0  0  0  0  0  # atno 13100 bound_to 8219
  132.5011  143.2580  144.3121 LP  0  0  0  0  0  0  0  0  0  0  0  0  # atno 13101 bound_to 8220
  130.3082  143.3680  143.6941 LP  0  0  0  0  0  0  0  0  0  0  0  0  # atno 13102 bound_to 8223
  129.8495  145.0083  144.0090 LP  0  0  0  0  0  0  0  0  0  0  0  0  # atno 13103 bound_to 8223
  131.8968  144.6419  139.7569 LP  0  0  0  0  0  0  0  0  0  0  0  0  # atno 13104 bound_to 8225
  130.5670  144.1330  140.5564 LP  0  0  0  0  0  0  0  0  0  0  0  0  # atno 13105 bound_to 8225
  134.7697  151.4916  144.0805 LP  0  0  0  0  0  0  0  0  0  0  0  0  # atno 13110 bound_to 3791
  130.4539  161.4878  135.4328 LP  0  0  0  0  0  0  0  0  0  0  0  0  # atno 13119 bound_to 2181
  131.1667  162.9515  135.5599 LP  0  0  0  0  0  0  0  0  0  0  0  0  # atno 13120 bound_to 2181
  126.2494  158.9621  143.5116 LP  0  0  0  0  0  0  0  0  0  0  0  0  # atno 13129 bound_to 3136
  126.6402  158.2255  144.9156 LP  0  0  0  0  0  0  0  0  0  0  0  0  # atno 13130 bound_to 3136
  118.5305  146.8470  126.9540 LP  0  0  0  0  0  0  0  0  0  0  0  0  # atno 13157 bound_to 8432
  118.2330  145.3214  126.4534 LP  0  0  0  0  0  0  0  0  0  0  0  0  # atno 13158 bound_to 8432
  133.6271  162.2289  138.3036 LP  0  0  0  0  0  0  0  0  0  0  0  0  # atno 13185 bound_to 3211
  135.1381  162.1921  137.6855 LP  0  0  0  0  0  0  0  0  0  0  0  0  # atno 13186 bound_to 3211
  119.5246  159.9067  121.1650 LP  0  0  0  0  0  0  0  0  0  0  0  0  # atno 13193 bound_to 5032
  118.6502  160.7733  120.0922 LP  0  0  0  0  0  0  0  0  0  0  0  0  # atno 13194 bound_to 5032
   94.2023  146.9751  111.1831 LP  0  0  0  0  0  0  0  0  0  0  0  0  # atno 13199 bound_to 4485
   94.3711  145.3668  110.9566 LP  0  0  0  0  0  0  0  0  0  0  0  0  # atno 13200 bound_to 4485
  103.1836  146.2552  110.9071 LP  0  0  0  0  0  0  0  0  0  0  0  0  # atno 13215 bound_to 5168
  102.8073  147.4666  109.8787 LP  0  0  0  0  0  0  0  0  0  0  0  0  # atno 13216 bound_to 5168

> <Gold.Score>
     Fitness  S(hb_ext) S(vdw_ext)  S(hb_int)    S(int)      intcor
     32.13       0.10      24.12       0.00      -1.13      -0.76

> <Gold.Goldscore.Fitness>
32.1334

> <Gold.Goldscore.Internal.Vdw>
-1.3070

> <Gold.Goldscore.Internal.Torsion>
-0.5855

> <Gold.Goldscore.External.Vdw>
24.1164

> <Gold.Goldscore.Internal.HBond>
0.0000

> <Gold.Goldscore.External.HBond>
0.1010

> <Gold.Goldscore.Internal.Correction>
-0.7650

> <Gold.Goldscore.Hbonds>
donor molecule, donor type, donor heavy atom, donor atom, acceptor molecule, acceptor atom, score
      P1  H   487   498       L1     9  0.02

> <Gold.Goldscore.Internal.Vdw.Weighted>
-1.3070

> <Gold.Goldscore.Internal.Torsion.Weighted>
-0.5855

> <Gold.Goldscore.External.Vdw.Weighted>
33.1600

> <Gold.Goldscore.Internal.HBond.Weighted>
0.0000

> <Gold.Goldscore.External.HBond.Weighted>
0.1010

> <Gold.Goldscore.Internal.Correction.Weighted>
-0.7650

> <Gold.Rescore>
     Score     S(PLP)   S(hbond)     S(cho)   S(metal)  DE(clash)   DE(tors)     intcor
     18.01     -17.24       0.95       0.00       0.00       0.00       1.04       ----

> <Gold.PLP.Fitness>
18.0099

> <Gold.PLP.PLP>
-17.2391

> <Gold.PLP.part.hbond>
-2.1605

> <Gold.PLP.part.metal>
0.0000

> <Gold.PLP.part.buried>
7.5249

> <Gold.PLP.part.nonpolar>
-24.5267

> <Gold.PLP.part.repulsive>
0.9945

> <Gold.PLP.ligand.clash>
0.0000

> <Gold.PLP.ligand.torsion>
1.0396

> <Gold.PLP.Chemscore.Hbond>
0.9500

> <Gold.PLP.Chemscore.CHOScore>
0.0000

> <Gold.PLP.Chemscore.Metal>
0.0000

> <Gold.Chemscore.Hbonds>
donor molecule, donor type, donor heavy atom, donor atom, acceptor molecule, acceptor atom, score
      P1  H   487   498       L1     9  1.00

> <Gold.PLP.Chemscore.Internal.Correction>
   9.000000E+99

