#       Name:                CT1002167954
#       Creating user name   hitesit
#       Creation time:       Sun Apr 16 02:22:39 2023


#       File generated by GOLD software.
#

@<TRIPOS>MOLECULE
CT1002167954|ligand_prepared|mol2|1|dock1
    29    30     1
SMALL
NO_CHARGES


@<TRIPOS>ATOM
      1 C1         122.0887 154.2384 124.8820 C.3            1 RES1               0.0000
      2 C2         121.7411 155.5237 125.6605 C.ar           1 RES1               0.0000
      3 C3         123.6111 154.1365 124.8811 C.2            1 RES1               0.0000
      4 C4         121.3891 153.0961 125.6103 C.2            1 RES1               0.0000
      5 C5         121.5959 154.2433 123.4161 C.3            1 RES1               0.0000
      6 C6         120.4289 155.9835 125.7194 C.ar           1 RES1               0.0000
      7 C7         122.7196 156.2574 126.3258 C.ar           1 RES1               0.0000
      8 N8         124.1821 153.1988 125.6902 N.am           1 RES1               0.0000
      9 O9         124.3019 154.8939 124.2106 O.2            1 RES1               0.0000
     10 N10        122.1701 152.1490 126.2191 N.am           1 RES1               0.0000
     11 O11        120.1686 153.0168 125.6766 O.2            1 RES1               0.0000
     12 C12        122.0162 153.0154 122.6239 C.3            1 RES1               0.0000
     13 C13        120.1061 157.1335 126.4205 C.ar           1 RES1               0.0000
     14 C14        122.3947 157.4074 127.0261 C.ar           1 RES1               0.0000
     15 C15        123.5347 152.1652 126.3182 C.2            1 RES1               0.0000
     16 C16        121.0885 157.8459 127.0746 C.ar           1 RES1               0.0000
     17 O17        124.1633 151.3059 126.9293 O.2            1 RES1               0.0000
     18 H18        120.5008 154.3084 123.4120 H              1 RES1               0.0000
     19 H19        121.9868 155.1375 122.9151 H              1 RES1               0.0000
     20 H20        119.6427 155.4374 125.2088 H              1 RES1               0.0000
     21 H21        123.7540 155.9319 126.3004 H              1 RES1               0.0000
     22 H22        125.1829 153.2729 125.8424 H              1 RES1               0.0000
     23 H23        121.6897 151.3585 126.6370 H              1 RES1               0.0000
     24 H24        121.6447 153.0694 121.6027 H              1 RES1               0.0000
     25 H25        123.1005 152.9332 122.5861 H              1 RES1               0.0000
     26 H26        121.6234 152.1090 123.0800 H              1 RES1               0.0000
     27 H27        119.0769 157.4752 126.4544 H              1 RES1               0.0000
     28 H28        123.1712 157.9653 127.5390 H              1 RES1               0.0000
     29 H29        120.8353 158.7466 127.6241 H              1 RES1               0.0000
@<TRIPOS>BOND
    1    1    2 1     
    2    1    3 1     
    3    1    4 1     
    4    1    5 1     
    5    2    6 ar    
    6    2    7 ar    
    7    3    8 1     
    8    3    9 2     
    9    4   10 1     
   10    4   11 2     
   11    5   12 1     
   12    5   18 1     
   13    5   19 1     
   14    6   13 ar    
   15    6   20 1     
   16    7   14 ar    
   17    7   21 1     
   18    8   15 1     
   19    8   22 1     
   20   10   15 1     
   21   10   23 1     
   22   12   24 1     
   23   12   25 1     
   24   12   26 1     
   25   13   16 ar    
   26   13   27 1     
   27   14   16 ar    
   28   14   28 1     
   29   15   17 2     
   30   16   29 1     
@<TRIPOS>SUBSTRUCTURE
      1 RES1           1
@<TRIPOS>SET
DONOR_HYDROGENS      STATIC     ATOMS    <user>   **** ""
2 22 23
ATOM$RED        STATIC     ATOMS    COLORGROUP SYSTEM
2 22 23
@<TRIPOS>COMMENT
> <Gold.Version>
2022.3.0

> <Gold.Id.Protein>
unknown|7xmr_cavity_clean|pdb

> <Gold.Protein.RotatedTorsions>
[ 5212 5207 5206 5203 ] final   63.87 input   60.02 | X-H torsion
[ 3657 3648 3647 3646 ] final -123.79 input   60.03 | X-H torsion
[ 4825 4820 4819 4816 ] final   51.19 input   60.00 | X-H torsion
[ 1545 1538 1536 1533 ] final -154.92 input   60.02 | X-H torsion
[ 4846 4837 4836 4834 ] final  131.81 input   59.98 | X-H torsion
[ 2091 2080 2079 2078 ] final -142.52 input   59.99 | X-H torsion
[ 4874 4867 4865 4862 ] final  110.97 input   60.01 | X-H torsion
[ 3728 3717 3716 3715 ] final  -34.13 input   59.98 | X-H torsion
[ 2151 2144 2142 2139 ] final  161.24 input   60.03 | X-H torsion
[ 2175 2168 2166 2163 ] final  165.60 input   60.03 | X-H torsion
[ 8230 8219 8218 8215 ] final -158.42 input   60.01 | X-H torsion
[ 8231 8220 8221 8222 ] final    1.82 input  100.72 | X-H torsion
[ 8235 8225 8224 8221 ] final  108.99 input   60.01 | X-H torsion
[ 3801 3791 3782 3781 ] final -119.97 input   60.03 | X-H torsion
[ 2186 2181 2180 2177 ] final -174.00 input   60.01 | X-H torsion
[ 3142 3136 3134 3131 ] final   87.48 input   60.00 | X-H torsion
[ 1102 1093 1092 1091 ] final  -62.86 input   60.00 | X-H torsion
[ 3163 3152 3151 3150 ] final  120.26 input   59.99 | X-H torsion
[ 8437 8432 8431 8428 ] final   70.34 input   59.99 | X-H torsion
[ 3220 3211 3210 3208 ] final  124.31 input   60.01 | X-H torsion
[ 5037 5032 5031 5028 ] final  172.62 input   60.02 | X-H torsion
[  498  487  486  485 ] final   83.79 input   60.00 | X-H torsion
[ 4492 4485 4483 4480 ] final  165.16 input   60.02 | X-H torsion
[ 5177 5168 5167 5165 ] final  -51.62 input   59.98 | X-H torsion
[ 13102 8223 8222 8221 ] final  121.66 input   -0.00 | X-H torsion

> <Gold.Protein.ActiveResidues>
 ASP20   ARG21   LEU23   ARG24   ASP26   GLY27   GLU28   ALA30   ALA31   ARG32  
 GLU33   VAL34   LYS35   GLU186  ASP193  LEU194  HIS195  LYS197  HIS213  CYS214 
 PHE215  GLU216  GLY217  VAL218  THR219  LYS257  TRP258  PHE259  THR260  ASP261 
 THR262  SER263  ARG313  ASP315  THR316  LYS317  GLU318  TYR320  ASP341  VAL342 
 ILE343  LYS345  ASN346  ASN347  LYS349  ASP350  CYS351  PHE354  MET61   HIS62  
 TRP63   GLY64   THR65   ASP66   ARG68   SER84   TYR85   THR87   SER98   TYR105 
 PRO107  SER108  ASN293  ASN295  ARG314  VAL315  SER316  TRP332  ASP333  SER334 
 PHE335 

> <Gold.Protein.RotatedAtoms>
  124.8237  156.4023  123.4518 H   0  0  0  0  0  0  0  0  0  0  0  0  # atno 498  bound_to 487 
  125.2297  156.7615  121.8851 H   0  0  0  0  0  0  0  0  0  0  0  0  # atno 499  bound_to 487 
  125.8966  157.6242  123.1339 H   0  0  0  0  0  0  0  0  0  0  0  0  # atno 500  bound_to 487 
  123.0981  161.0427  119.2545 H   0  0  0  0  0  0  0  0  0  0  0  0  # atno 1102 bound_to 1093
  124.1313  159.8244  118.8122 H   0  0  0  0  0  0  0  0  0  0  0  0  # atno 1103 bound_to 1093
  123.3644  159.7694  120.2806 H   0  0  0  0  0  0  0  0  0  0  0  0  # atno 1104 bound_to 1093
  129.7246  158.5328  127.1522 H   0  0  0  0  0  0  0  0  0  0  0  0  # atno 1545 bound_to 1538
  110.4002  159.1521  141.8447 H   0  0  0  0  0  0  0  0  0  0  0  0  # atno 2091 bound_to 2080
  111.9544  159.2257  142.4161 H   0  0  0  0  0  0  0  0  0  0  0  0  # atno 2092 bound_to 2080
  111.6206  159.6896  140.8597 H   0  0  0  0  0  0  0  0  0  0  0  0  # atno 2093 bound_to 2080
  121.3131  155.4371  141.0784 H   0  0  0  0  0  0  0  0  0  0  0  0  # atno 2151 bound_to 2144
  123.3180  161.7796  135.4112 H   0  0  0  0  0  0  0  0  0  0  0  0  # atno 2175 bound_to 2168
  131.2684  162.1912  135.6469 H   0  0  0  0  0  0  0  0  0  0  0  0  # atno 2186 bound_to 2181
  125.9855  158.7854  143.3651 H   0  0  0  0  0  0  0  0  0  0  0  0  # atno 3142 bound_to 3136
  124.0356  165.4017  140.6184 H   0  0  0  0  0  0  0  0  0  0  0  0  # atno 3163 bound_to 3152
  123.2491  164.4285  139.5312 H   0  0  0  0  0  0  0  0  0  0  0  0  # atno 3164 bound_to 3152
  123.0114  164.2150  141.1583 H   0  0  0  0  0  0  0  0  0  0  0  0  # atno 3165 bound_to 3152
  133.4488  162.2143  138.1118 H   0  0  0  0  0  0  0  0  0  0  0  0  # atno 3220 bound_to 3211
  137.6192  158.5258  141.3963 H   0  0  0  0  0  0  0  0  0  0  0  0  # atno 3657 bound_to 3648
  137.1631  157.2917  140.3886 H   0  0  0  0  0  0  0  0  0  0  0  0  # atno 3658 bound_to 3648
  138.6140  158.0589  140.1547 H   0  0  0  0  0  0  0  0  0  0  0  0  # atno 3659 bound_to 3648
  130.5464  151.9268  140.9946 H   0  0  0  0  0  0  0  0  0  0  0  0  # atno 3728 bound_to 3717
  129.4571  153.1038  141.4133 H   0  0  0  0  0  0  0  0  0  0  0  0  # atno 3729 bound_to 3717
  128.9205  151.6267  140.8853 H   0  0  0  0  0  0  0  0  0  0  0  0  # atno 3730 bound_to 3717
  133.8696  150.2081  143.9962 H   0  0  0  0  0  0  0  0  0  0  0  0  # atno 3801 bound_to 3791
   93.9010  146.3190  110.8303 H   0  0  0  0  0  0  0  0  0  0  0  0  # atno 4492 bound_to 4485
  102.7529  137.9729  117.8311 H   0  0  0  0  0  0  0  0  0  0  0  0  # atno 4825 bound_to 4820
   97.9999  136.7987  115.3146 H   0  0  0  0  0  0  0  0  0  0  0  0  # atno 4846 bound_to 4837
  108.8178  133.9449  118.7617 H   0  0  0  0  0  0  0  0  0  0  0  0  # atno 4874 bound_to 4867
  120.1822  159.7844  120.5435 H   0  0  0  0  0  0  0  0  0  0  0  0  # atno 5037 bound_to 5032
  103.0664  147.4039  110.0218 H   0  0  0  0  0  0  0  0  0  0  0  0  # atno 5177 bound_to 5168
   97.0853  151.3698  107.3610 H   0  0  0  0  0  0  0  0  0  0  0  0  # atno 5212 bound_to 5207
  109.4051  151.2040  128.4270 H   0  0  0  0  0  0  0  0  0  0  0  0  # atno 8230 bound_to 8219
  132.2532  143.0423  144.2200 H   0  0  0  0  0  0  0  0  0  0  0  0  # atno 8231 bound_to 8220
  131.9533  144.1409  139.3250 H   0  0  0  0  0  0  0  0  0  0  0  0  # atno 8235 bound_to 8225
  117.8392  145.1547  126.8159 H   0  0  0  0  0  0  0  0  0  0  0  0  # atno 8437 bound_to 8432
   95.7872  151.9090  108.1815 LP  0  0  0  0  0  0  0  0  0  0  0  0  # atno 13008 bound_to 5207
   95.9025  152.1623  106.5724 LP  0  0  0  0  0  0  0  0  0  0  0  0  # atno 13009 bound_to 5207
  103.0169  139.5715  117.6796 LP  0  0  0  0  0  0  0  0  0  0  0  0  # atno 13018 bound_to 4820
  102.3411  138.9781  119.0426 LP  0  0  0  0  0  0  0  0  0  0  0  0  # atno 13019 bound_to 4820
  128.1518  158.9327  127.0325 LP  0  0  0  0  0  0  0  0  0  0  0  0  # atno 13022 bound_to 1538
  128.6520  157.9185  128.2106 LP  0  0  0  0  0  0  0  0  0  0  0  0  # atno 13023 bound_to 1538
   98.1768  136.4223  116.8879 LP  0  0  0  0  0  0  0  0  0  0  0  0  # atno 13035 bound_to 4837
   97.6710  135.2893  115.8263 LP  0  0  0  0  0  0  0  0  0  0  0  0  # atno 13036 bound_to 4837
  108.4018  135.4998  118.5203 LP  0  0  0  0  0  0  0  0  0  0  0  0  # atno 13051 bound_to 4867
  109.3133  135.0864  119.8107 LP  0  0  0  0  0  0  0  0  0  0  0  0  # atno 13052 bound_to 4867
  122.3386  156.1583  140.0413 LP  0  0  0  0  0  0  0  0  0  0  0  0  # atno 13069 bound_to 2144
  120.7321  156.4268  139.9251 LP  0  0  0  0  0  0  0  0  0  0  0  0  # atno 13070 bound_to 2144
  124.2015  161.7186  136.7767 LP  0  0  0  0  0  0  0  0  0  0  0  0  # atno 13095 bound_to 2168
  123.2532  160.4570  136.3575 LP  0  0  0  0  0  0  0  0  0  0  0  0  # atno 13096 bound_to 2168
  107.8697  151.1110  127.8961 LP  0  0  0  0  0  0  0  0  0  0  0  0  # atno 13099 bound_to 8219
  108.3968  150.0954  129.0612 LP  0  0  0  0  0  0  0  0  0  0  0  0  # atno 13100 bound_to 8219
  133.6553  142.5126  143.3213 LP  0  0  0  0  0  0  0  0  0  0  0  0  # atno 13101 bound_to 8220
  130.1931  144.9280  144.2870 LP  0  0  0  0  0  0  0  0  0  0  0  0  # atno 13102 bound_to 8223
  129.9645  143.4483  143.4162 LP  0  0  0  0  0  0  0  0  0  0  0  0  # atno 13103 bound_to 8223
  131.0048  144.6354  140.5512 LP  0  0  0  0  0  0  0  0  0  0  0  0  # atno 13104 bound_to 8225
  130.6745  143.2392  139.7714 LP  0  0  0  0  0  0  0  0  0  0  0  0  # atno 13105 bound_to 8225
  134.7697  151.4916  144.0805 LP  0  0  0  0  0  0  0  0  0  0  0  0  # atno 13110 bound_to 3791
  130.1902  163.3334  135.2228 LP  0  0  0  0  0  0  0  0  0  0  0  0  # atno 13119 bound_to 2181
  129.7670  161.7564  135.1957 LP  0  0  0  0  0  0  0  0  0  0  0  0  # atno 13120 bound_to 2181
  126.7775  158.5084  144.7593 LP  0  0  0  0  0  0  0  0  0  0  0  0  # atno 13129 bound_to 3136
  125.5534  157.5283  144.3037 LP  0  0  0  0  0  0  0  0  0  0  0  0  # atno 13130 bound_to 3136
  117.6363  146.4523  127.7764 LP  0  0  0  0  0  0  0  0  0  0  0  0  # atno 13157 bound_to 8432
  118.7129  146.5012  126.5495 LP  0  0  0  0  0  0  0  0  0  0  0  0  # atno 13158 bound_to 8432
  135.0667  162.2119  137.9380 LP  0  0  0  0  0  0  0  0  0  0  0  0  # atno 13185 bound_to 3211
  134.1015  162.0972  136.6258 LP  0  0  0  0  0  0  0  0  0  0  0  0  # atno 13186 bound_to 3211
  118.7337  160.4157  120.9317 LP  0  0  0  0  0  0  0  0  0  0  0  0  # atno 13193 bound_to 5032
  119.3527  160.6425  119.4377 LP  0  0  0  0  0  0  0  0  0  0  0  0  # atno 13194 bound_to 5032
   95.0321  145.3049  111.4140 LP  0  0  0  0  0  0  0  0  0  0  0  0  # atno 13199 bound_to 4485
   95.0820  146.8927  111.7919 LP  0  0  0  0  0  0  0  0  0  0  0  0  # atno 13200 bound_to 4485
  101.6537  146.5999  110.1009 LP  0  0  0  0  0  0  0  0  0  0  0  0  # atno 13215 bound_to 5168
  102.9439  146.0751  110.9533 LP  0  0  0  0  0  0  0  0  0  0  0  0  # atno 13216 bound_to 5168

> <Gold.Score>
     Fitness  S(hb_ext) S(vdw_ext)  S(hb_int)    S(int)      intcor
     33.46       6.00      21.34       0.00      -1.88      -0.77

> <Gold.Goldscore.Fitness>
33.4625

> <Gold.Goldscore.Internal.Vdw>
-2.2540

> <Gold.Goldscore.Internal.Torsion>
-0.3915

> <Gold.Goldscore.External.Vdw>
21.3373

> <Gold.Goldscore.Internal.HBond>
0.0000

> <Gold.Goldscore.External.HBond>
6.0000

> <Gold.Goldscore.Internal.Correction>
-0.7693

> <Gold.Goldscore.Hbonds>
donor molecule, donor type, donor heavy atom, donor atom, acceptor molecule, acceptor atom, score
      P1  H   487   498       L1     9  1.00

> <Gold.Goldscore.Internal.Vdw.Weighted>
-2.2540

> <Gold.Goldscore.Internal.Torsion.Weighted>
-0.3915

> <Gold.Goldscore.External.Vdw.Weighted>
29.3387

> <Gold.Goldscore.Internal.HBond.Weighted>
0.0000

> <Gold.Goldscore.External.HBond.Weighted>
6.0000

> <Gold.Goldscore.Internal.Correction.Weighted>
-0.7693

> <Gold.Rescore>
     Score     S(PLP)   S(hbond)     S(cho)   S(metal)  DE(clash)   DE(tors)     intcor
     31.71     -30.12       1.00       0.00       0.00       1.33       0.04       ----

> <Gold.PLP.Fitness>
31.7112

> <Gold.PLP.PLP>
-30.1155

> <Gold.PLP.part.hbond>
-1.0000

> <Gold.PLP.part.metal>
0.0000

> <Gold.PLP.part.buried>
-2.3429

> <Gold.PLP.part.nonpolar>
-27.3014

> <Gold.PLP.part.repulsive>
0.1637

> <Gold.PLP.ligand.clash>
1.3321

> <Gold.PLP.ligand.torsion>
0.0361

> <Gold.PLP.Chemscore.Hbond>
1.0000

> <Gold.PLP.Chemscore.CHOScore>
0.0000

> <Gold.PLP.Chemscore.Metal>
0.0000

> <Gold.Chemscore.Hbonds>
donor molecule, donor type, donor heavy atom, donor atom, acceptor molecule, acceptor atom, score
      P1  H   487   498       L1     9  1.00

> <Gold.PLP.Chemscore.Internal.Correction>
   9.000000E+99

