#       Name:                CT1002167954
#       Creating user name   hitesit
#       Creation time:       Sun Apr 16 02:22:59 2023


#       File generated by GOLD software.
#

@<TRIPOS>MOLECULE
CT1002167954|ligand_prepared|mol2|1|dock6
    29    30     1
SMALL
NO_CHARGES


@<TRIPOS>ATOM
      1 C1         121.8709 154.6451 124.9970 C.3            1 RES1               0.0000
      2 C2         122.0617 153.9215 123.6483 C.ar           1 RES1               0.0000
      3 C3         120.7583 153.9004 125.7290 C.2            1 RES1               0.0000
      4 C4         123.2216 154.5955 125.7026 C.2            1 RES1               0.0000
      5 C5         121.4592 156.1291 124.8570 C.3            1 RES1               0.0000
      6 C6         122.3363 152.5578 123.6085 C.ar           1 RES1               0.0000
      7 C7         121.9638 154.6026 122.4379 C.ar           1 RES1               0.0000
      8 N8         121.1142 153.1064 126.7792 N.am           1 RES1               0.0000
      9 O9         119.5912 153.9777 125.3657 O.2            1 RES1               0.0000
     10 N10        123.3154 153.8668 126.8593 N.am           1 RES1               0.0000
     11 O11        124.2096 155.1672 125.2584 O.2            1 RES1               0.0000
     12 C12        121.2317 156.8304 126.1870 C.3            1 RES1               0.0000
     13 C13        122.5039 151.8981 122.4022 C.ar           1 RES1               0.0000
     14 C14        122.1320 153.9410 121.2327 C.ar           1 RES1               0.0000
     15 C15        122.3307 153.0949 127.4131 C.2            1 RES1               0.0000
     16 C16        122.4014 152.5890 121.2137 C.ar           1 RES1               0.0000
     17 O17        122.5076 152.4243 128.4261 O.2            1 RES1               0.0000
     18 H18        122.2435 156.6627 124.3061 H              1 RES1               0.0000
     19 H19        120.5367 156.1854 124.2660 H              1 RES1               0.0000
     20 H20        122.4230 151.9979 124.5337 H              1 RES1               0.0000
     21 H21        121.7536 155.6667 122.4287 H              1 RES1               0.0000
     22 H22        120.4109 152.4614 127.1251 H              1 RES1               0.0000
     23 H23        124.2013 153.9033 127.3534 H              1 RES1               0.0000
     24 H24        120.9451 157.8683 126.0317 H              1 RES1               0.0000
     25 H25        120.4402 156.3410 126.7507 H              1 RES1               0.0000
     26 H26        122.1369 156.8154 126.7906 H              1 RES1               0.0000
     27 H27        122.7171 150.8343 122.3927 H              1 RES1               0.0000
     28 H28        122.0511 154.4889 120.2997 H              1 RES1               0.0000
     29 H29        122.5323 152.0720 120.2688 H              1 RES1               0.0000
@<TRIPOS>BOND
    1    1    2 1     
    2    1    3 1     
    3    1    4 1     
    4    1    5 1     
    5    2    6 ar    
    6    2    7 ar    
    7    3    8 1     
    8    3    9 2     
    9    4   10 1     
   10    4   11 2     
   11    5   12 1     
   12    5   18 1     
   13    5   19 1     
   14    6   13 ar    
   15    6   20 1     
   16    7   14 ar    
   17    7   21 1     
   18    8   15 1     
   19    8   22 1     
   20   10   15 1     
   21   10   23 1     
   22   12   24 1     
   23   12   25 1     
   24   12   26 1     
   25   13   16 ar    
   26   13   27 1     
   27   14   16 ar    
   28   14   28 1     
   29   15   17 2     
   30   16   29 1     
@<TRIPOS>SUBSTRUCTURE
      1 RES1           1
@<TRIPOS>SET
DONOR_HYDROGENS      STATIC     ATOMS    <user>   **** ""
2 22 23
ATOM$RED        STATIC     ATOMS    COLORGROUP SYSTEM
2 22 23
@<TRIPOS>COMMENT
> <Gold.Version>
2022.3.0

> <Gold.Id.Protein>
unknown|7xmr_cavity_clean|pdb

> <Gold.Protein.RotatedTorsions>
[ 5212 5207 5206 5203 ] final   14.92 input   60.02 | X-H torsion
[ 3657 3648 3647 3646 ] final  121.50 input   60.03 | X-H torsion
[ 4825 4820 4819 4816 ] final  -50.85 input   60.00 | X-H torsion
[ 1545 1538 1536 1533 ] final  -53.62 input   60.02 | X-H torsion
[ 4846 4837 4836 4834 ] final  148.88 input   59.98 | X-H torsion
[ 2091 2080 2079 2078 ] final  102.46 input   59.99 | X-H torsion
[ 4874 4867 4865 4862 ] final -170.17 input   60.01 | X-H torsion
[ 3728 3717 3716 3715 ] final -177.57 input   59.98 | X-H torsion
[ 2151 2144 2142 2139 ] final  100.64 input   60.03 | X-H torsion
[ 2175 2168 2166 2163 ] final -127.12 input   60.03 | X-H torsion
[ 8230 8219 8218 8215 ] final  -52.93 input   60.01 | X-H torsion
[ 8231 8220 8221 8222 ] final -137.35 input  100.72 | X-H torsion
[ 8235 8225 8224 8221 ] final  118.51 input   60.01 | X-H torsion
[ 3801 3791 3782 3781 ] final   60.03 input   60.03 | X-H torsion
[ 2186 2181 2180 2177 ] final  -71.67 input   60.01 | X-H torsion
[ 3142 3136 3134 3131 ] final -133.55 input   60.00 | X-H torsion
[ 1102 1093 1092 1091 ] final  -94.91 input   60.00 | X-H torsion
[ 3163 3152 3151 3150 ] final   40.92 input   59.99 | X-H torsion
[ 8437 8432 8431 8428 ] final  -83.32 input   59.99 | X-H torsion
[ 3220 3211 3210 3208 ] final  112.85 input   60.01 | X-H torsion
[ 5037 5032 5031 5028 ] final -156.49 input   60.02 | X-H torsion
[  498  487  486  485 ] final   76.76 input   60.00 | X-H torsion
[ 4492 4485 4483 4480 ] final  121.56 input   60.02 | X-H torsion
[ 5177 5168 5167 5165 ] final  112.79 input   59.98 | X-H torsion
[ 13102 8223 8222 8221 ] final  117.63 input   -0.00 | X-H torsion

> <Gold.Protein.ActiveResidues>
 ASP20   ARG21   LEU23   ARG24   ASP26   GLY27   GLU28   ALA30   ALA31   ARG32  
 GLU33   VAL34   LYS35   GLU186  ASP193  LEU194  HIS195  LYS197  HIS213  CYS214 
 PHE215  GLU216  GLY217  VAL218  THR219  LYS257  TRP258  PHE259  THR260  ASP261 
 THR262  SER263  ARG313  ASP315  THR316  LYS317  GLU318  TYR320  ASP341  VAL342 
 ILE343  LYS345  ASN346  ASN347  LYS349  ASP350  CYS351  PHE354  MET61   HIS62  
 TRP63   GLY64   THR65   ASP66   ARG68   SER84   TYR85   THR87   SER98   TYR105 
 PRO107  SER108  ASN293  ASN295  ARG314  VAL315  SER316  TRP332  ASP333  SER334 
 PHE335 

> <Gold.Protein.RotatedAtoms>
  124.8745  156.4672  123.5352 H   0  0  0  0  0  0  0  0  0  0  0  0  # atno 498  bound_to 487 
  125.1545  156.6764  121.9147 H   0  0  0  0  0  0  0  0  0  0  0  0  # atno 499  bound_to 487 
  125.9210  157.6444  123.0210 H   0  0  0  0  0  0  0  0  0  0  0  0  # atno 500  bound_to 487 
  122.9294  160.8991  119.7340 H   0  0  0  0  0  0  0  0  0  0  0  0  # atno 1102 bound_to 1093
  123.9580  160.2738  118.5945 H   0  0  0  0  0  0  0  0  0  0  0  0  # atno 1103 bound_to 1093
  123.7064  159.4637  120.0185 H   0  0  0  0  0  0  0  0  0  0  0  0  # atno 1104 bound_to 1093
  128.9541  157.8788  128.1887 H   0  0  0  0  0  0  0  0  0  0  0  0  # atno 1545 bound_to 1538
  111.5418  159.6845  140.8348 H   0  0  0  0  0  0  0  0  0  0  0  0  # atno 2091 bound_to 2080
  110.4206  159.1303  141.9226 H   0  0  0  0  0  0  0  0  0  0  0  0  # atno 2092 bound_to 2080
  112.0140  159.2525  142.3641 H   0  0  0  0  0  0  0  0  0  0  0  0  # atno 2093 bound_to 2080
  122.1907  155.5933  140.7661 H   0  0  0  0  0  0  0  0  0  0  0  0  # atno 2151 bound_to 2144
  122.9843  160.8293  135.6608 H   0  0  0  0  0  0  0  0  0  0  0  0  # atno 2175 bound_to 2168
  129.9900  161.5939  135.2806 H   0  0  0  0  0  0  0  0  0  0  0  0  # atno 2186 bound_to 2181
  125.7373  157.5191  144.5528 H   0  0  0  0  0  0  0  0  0  0  0  0  # atno 3142 bound_to 3136
  123.4086  164.6941  141.3927 H   0  0  0  0  0  0  0  0  0  0  0  0  # atno 3163 bound_to 3152
  123.9795  165.3081  139.9627 H   0  0  0  0  0  0  0  0  0  0  0  0  # atno 3164 bound_to 3152
  122.9079  164.0427  139.9526 H   0  0  0  0  0  0  0  0  0  0  0  0  # atno 3165 bound_to 3152
  133.5737  162.2266  138.2502 H   0  0  0  0  0  0  0  0  0  0  0  0  # atno 3220 bound_to 3211
  138.6346  158.1247  140.2114 H   0  0  0  0  0  0  0  0  0  0  0  0  # atno 3657 bound_to 3648
  137.5430  158.4831  141.4058 H   0  0  0  0  0  0  0  0  0  0  0  0  # atno 3658 bound_to 3648
  137.2184  157.2696  140.3239 H   0  0  0  0  0  0  0  0  0  0  0  0  # atno 3659 bound_to 3648
  128.7300  151.9466  140.9991 H   0  0  0  0  0  0  0  0  0  0  0  0  # atno 3728 bound_to 3717
  130.3491  151.6119  140.8818 H   0  0  0  0  0  0  0  0  0  0  0  0  # atno 3729 bound_to 3717
  129.8459  153.0996  141.4125 H   0  0  0  0  0  0  0  0  0  0  0  0  # atno 3730 bound_to 3717
  134.2690  151.9590  143.4680 H   0  0  0  0  0  0  0  0  0  0  0  0  # atno 3801 bound_to 3791
   94.0931  145.6506  110.8230 H   0  0  0  0  0  0  0  0  0  0  0  0  # atno 4492 bound_to 4485
  103.0743  139.3518  117.4937 H   0  0  0  0  0  0  0  0  0  0  0  0  # atno 4825 bound_to 4820
   97.9126  136.5803  115.1664 H   0  0  0  0  0  0  0  0  0  0  0  0  # atno 4846 bound_to 4837
  109.3530  134.4360  119.7039 H   0  0  0  0  0  0  0  0  0  0  0  0  # atno 4874 bound_to 4867
  120.2568  159.9211  120.0700 H   0  0  0  0  0  0  0  0  0  0  0  0  # atno 5037 bound_to 5032
  102.2618  145.9324  110.8157 H   0  0  0  0  0  0  0  0  0  0  0  0  # atno 5177 bound_to 5168
   96.7520  151.4118  108.0605 H   0  0  0  0  0  0  0  0  0  0  0  0  # atno 5212 bound_to 5207
  108.6240  150.1380  129.1156 H   0  0  0  0  0  0  0  0  0  0  0  0  # atno 8230 bound_to 8219
  133.8086  143.0032  143.6498 H   0  0  0  0  0  0  0  0  0  0  0  0  # atno 8231 bound_to 8220
  131.9119  144.0067  139.2588 H   0  0  0  0  0  0  0  0  0  0  0  0  # atno 8235 bound_to 8225
  117.9865  146.8103  127.5638 H   0  0  0  0  0  0  0  0  0  0  0  0  # atno 8437 bound_to 8432
   95.4318  152.2217  107.5600 LP  0  0  0  0  0  0  0  0  0  0  0  0  # atno 13008 bound_to 5207
   96.5934  151.8073  106.4896 LP  0  0  0  0  0  0  0  0  0  0  0  0  # atno 13009 bound_to 5207
  102.4061  139.2570  118.9744 LP  0  0  0  0  0  0  0  0  0  0  0  0  # atno 13018 bound_to 4820
  102.6283  137.9040  118.0876 LP  0  0  0  0  0  0  0  0  0  0  0  0  # atno 13019 bound_to 4820
  129.5912  158.7157  126.9472 LP  0  0  0  0  0  0  0  0  0  0  0  0  # atno 13022 bound_to 1538
  127.9888  158.7943  127.2518 LP  0  0  0  0  0  0  0  0  0  0  0  0  # atno 13023 bound_to 1538
   98.2221  136.6679  116.7617 LP  0  0  0  0  0  0  0  0  0  0  0  0  # atno 13035 bound_to 4837
   97.7136  135.2635  116.1017 LP  0  0  0  0  0  0  0  0  0  0  0  0  # atno 13036 bound_to 4837
  108.4764  134.3185  118.3376 LP  0  0  0  0  0  0  0  0  0  0  0  0  # atno 13051 bound_to 4867
  108.6999  135.7733  119.0450 LP  0  0  0  0  0  0  0  0  0  0  0  0  # atno 13052 bound_to 4867
  121.6000  156.5812  139.6162 LP  0  0  0  0  0  0  0  0  0  0  0  0  # atno 13069 bound_to 2144
  120.5866  155.8465  140.6649 LP  0  0  0  0  0  0  0  0  0  0  0  0  # atno 13070 bound_to 2144
  123.8584  162.1803  135.9048 LP  0  0  0  0  0  0  0  0  0  0  0  0  # atno 13095 bound_to 2168
  123.9322  160.9519  136.9781 LP  0  0  0  0  0  0  0  0  0  0  0  0  # atno 13096 bound_to 2168
  109.3083  151.3395  128.2576 LP  0  0  0  0  0  0  0  0  0  0  0  0  # atno 13099 bound_to 8219
  107.7449  150.9406  128.0061 LP  0  0  0  0  0  0  0  0  0  0  0  0  # atno 13100 bound_to 8219
  132.1361  142.5508  143.8782 LP  0  0  0  0  0  0  0  0  0  0  0  0  # atno 13101 bound_to 8220
  130.2389  144.9009  144.3167 LP  0  0  0  0  0  0  0  0  0  0  0  0  # atno 13102 bound_to 8223
  129.9187  143.4754  143.3865 LP  0  0  0  0  0  0  0  0  0  0  0  0  # atno 13103 bound_to 8223
  131.1300  144.7130  140.4988 LP  0  0  0  0  0  0  0  0  0  0  0  0  # atno 13104 bound_to 8225
  130.5911  143.2966  139.8905 LP  0  0  0  0  0  0  0  0  0  0  0  0  # atno 13105 bound_to 8225
  133.2385  150.7924  143.6727 LP  0  0  0  0  0  0  0  0  0  0  0  0  # atno 13110 bound_to 3791
  131.3090  162.4769  135.6376 LP  0  0  0  0  0  0  0  0  0  0  0  0  # atno 13119 bound_to 2181
  129.9362  163.2147  135.1500 LP  0  0  0  0  0  0  0  0  0  0  0  0  # atno 13120 bound_to 2181
  125.7594  158.5789  143.3182 LP  0  0  0  0  0  0  0  0  0  0  0  0  # atno 13129 bound_to 3136
  126.8215  158.7326  144.5490 LP  0  0  0  0  0  0  0  0  0  0  0  0  # atno 13130 bound_to 3136
  118.6688  146.0052  126.3255 LP  0  0  0  0  0  0  0  0  0  0  0  0  # atno 13157 bound_to 8432
  117.5321  145.2804  127.2470 LP  0  0  0  0  0  0  0  0  0  0  0  0  # atno 13158 bound_to 8432
  135.1250  162.1980  137.7597 LP  0  0  0  0  0  0  0  0  0  0  0  0  # atno 13185 bound_to 3211
  133.9175  162.0988  136.6648 LP  0  0  0  0  0  0  0  0  0  0  0  0  # atno 13186 bound_to 3211
  119.0796  160.1418  121.1714 LP  0  0  0  0  0  0  0  0  0  0  0  0  # atno 13193 bound_to 5032
  118.9317  160.7787  119.6750 LP  0  0  0  0  0  0  0  0  0  0  0  0  # atno 13194 bound_to 5032
   95.4041  145.7721  111.7796 LP  0  0  0  0  0  0  0  0  0  0  0  0  # atno 13199 bound_to 4485
   94.5167  147.0985  111.4336 LP  0  0  0  0  0  0  0  0  0  0  0  0  # atno 13200 bound_to 4485
  103.4449  146.9915  110.4589 LP  0  0  0  0  0  0  0  0  0  0  0  0  # atno 13215 bound_to 5168
  101.9626  147.1650  109.7961 LP  0  0  0  0  0  0  0  0  0  0  0  0  # atno 13216 bound_to 5168

> <Gold.Score>
     Fitness  S(hb_ext) S(vdw_ext)  S(hb_int)    S(int)      intcor
     33.87       6.00      20.33       0.00      -0.08      -0.76

> <Gold.Goldscore.Fitness>
33.8690

> <Gold.Goldscore.Internal.Vdw>
-0.4767

> <Gold.Goldscore.Internal.Torsion>
-0.3722

> <Gold.Goldscore.External.Vdw>
20.3295

> <Gold.Goldscore.Internal.HBond>
0.0000

> <Gold.Goldscore.External.HBond>
6.0000

> <Gold.Goldscore.Internal.Correction>
-0.7650

> <Gold.Goldscore.Hbonds>
donor molecule, donor type, donor heavy atom, donor atom, acceptor molecule, acceptor atom, score
      P1  H   487   498       L1    11  1.00

> <Gold.Goldscore.Internal.Vdw.Weighted>
-0.4767

> <Gold.Goldscore.Internal.Torsion.Weighted>
-0.3722

> <Gold.Goldscore.External.Vdw.Weighted>
27.9530

> <Gold.Goldscore.Internal.HBond.Weighted>
0.0000

> <Gold.Goldscore.External.HBond.Weighted>
6.0000

> <Gold.Goldscore.Internal.Correction.Weighted>
-0.7650

> <Gold.Rescore>
     Score     S(PLP)   S(hbond)     S(cho)   S(metal)  DE(clash)   DE(tors)     intcor
     33.03     -30.22       1.00       0.00       0.00       0.00       0.10       ----

> <Gold.PLP.Fitness>
33.0326

> <Gold.PLP.PLP>
-30.2237

> <Gold.PLP.part.hbond>
-1.9570

> <Gold.PLP.part.metal>
0.0000

> <Gold.PLP.part.buried>
-5.2247

> <Gold.PLP.part.nonpolar>
-23.4635

> <Gold.PLP.part.repulsive>
0.2647

> <Gold.PLP.ligand.clash>
0.0000

> <Gold.PLP.ligand.torsion>
0.0956

> <Gold.PLP.Chemscore.Hbond>
1.0000

> <Gold.PLP.Chemscore.CHOScore>
0.0000

> <Gold.PLP.Chemscore.Metal>
0.0000

> <Gold.Chemscore.Hbonds>
donor molecule, donor type, donor heavy atom, donor atom, acceptor molecule, acceptor atom, score
      P1  H   487   498       L1    11  0.60

> <Gold.PLP.Chemscore.Internal.Correction>
   9.000000E+99

