#       Name:                CT1002167954
#       Creating user name   hitesit
#       Creation time:       Sun Apr 16 02:22:43 2023


#       File generated by GOLD software.
#

@<TRIPOS>MOLECULE
CT1002167954|ligand_prepared|mol2|1|dock2
    29    30     1
SMALL
NO_CHARGES


@<TRIPOS>ATOM
      1 C1         120.7375 155.9218 125.1298 C.3            1 RES1               0.0000
      2 C2         120.2855 155.1346 126.3768 C.ar           1 RES1               0.0000
      3 C3         122.1762 156.3554 125.3952 C.2            1 RES1               0.0000
      4 C4         120.5819 154.9728 123.9467 C.2            1 RES1               0.0000
      5 C5         119.8889 157.1830 124.8455 C.3            1 RES1               0.0000
      6 C6         119.3071 155.6482 127.2227 C.ar           1 RES1               0.0000
      7 C7         120.8348 153.8947 126.6921 C.ar           1 RES1               0.0000
      8 N8         123.1670 155.7033 124.7221 N.am           1 RES1               0.0000
      9 O9         122.4399 157.2292 126.2119 O.2            1 RES1               0.0000
     10 N10        121.7167 154.5722 123.2913 N.am           1 RES1               0.0000
     11 O11        119.4882 154.5552 123.5864 O.2            1 RES1               0.0000
     12 C12        120.2933 157.9216 123.5794 C.3            1 RES1               0.0000
     13 C13        118.8907 154.9463 128.3418 C.ar           1 RES1               0.0000
     14 C14        120.4171 153.1946 127.8118 C.ar           1 RES1               0.0000
     15 C15        123.0046 154.8701 123.6445 C.2            1 RES1               0.0000
     16 C16        119.4450 153.7190 128.6369 C.ar           1 RES1               0.0000
     17 O17        123.9756 154.4275 123.0377 O.2            1 RES1               0.0000
     18 H18        118.8356 156.8882 124.7612 H              1 RES1               0.0000
     19 H19        119.9781 157.8681 125.6977 H              1 RES1               0.0000
     20 H20        118.8611 156.6136 127.0080 H              1 RES1               0.0000
     21 H21        121.6017 153.4631 126.0579 H              1 RES1               0.0000
     22 H22        124.1164 155.8484 125.0504 H              1 RES1               0.0000
     23 H23        121.5895 153.9990 122.4633 H              1 RES1               0.0000
     24 H24        119.6667 158.7978 123.4271 H              1 RES1               0.0000
     25 H25        121.3284 158.2515 123.6392 H              1 RES1               0.0000
     26 H26        120.1927 157.2774 122.7083 H              1 RES1               0.0000
     27 H27        118.1262 155.3641 128.9887 H              1 RES1               0.0000
     28 H28        120.8565 152.2293 128.0406 H              1 RES1               0.0000
     29 H29        119.1183 153.1692 129.5134 H              1 RES1               0.0000
@<TRIPOS>BOND
    1    1    2 1     
    2    1    3 1     
    3    1    4 1     
    4    1    5 1     
    5    2    6 ar    
    6    2    7 ar    
    7    3    8 1     
    8    3    9 2     
    9    4   10 1     
   10    4   11 2     
   11    5   12 1     
   12    5   18 1     
   13    5   19 1     
   14    6   13 ar    
   15    6   20 1     
   16    7   14 ar    
   17    7   21 1     
   18    8   15 1     
   19    8   22 1     
   20   10   15 1     
   21   10   23 1     
   22   12   24 1     
   23   12   25 1     
   24   12   26 1     
   25   13   16 ar    
   26   13   27 1     
   27   14   16 ar    
   28   14   28 1     
   29   15   17 2     
   30   16   29 1     
@<TRIPOS>SUBSTRUCTURE
      1 RES1           1
@<TRIPOS>SET
DONOR_HYDROGENS      STATIC     ATOMS    <user>   **** ""
2 22 23
ATOM$RED        STATIC     ATOMS    COLORGROUP SYSTEM
2 22 23
@<TRIPOS>COMMENT
> <Gold.Version>
2022.3.0

> <Gold.Id.Protein>
unknown|7xmr_cavity_clean|pdb

> <Gold.Protein.RotatedTorsions>
[ 5212 5207 5206 5203 ] final -108.59 input   60.02 | X-H torsion
[ 3657 3648 3647 3646 ] final  -17.91 input   60.03 | X-H torsion
[ 4825 4820 4819 4816 ] final  152.61 input   60.00 | X-H torsion
[ 1545 1538 1536 1533 ] final -165.81 input   60.02 | X-H torsion
[ 4846 4837 4836 4834 ] final  167.03 input   59.98 | X-H torsion
[ 2091 2080 2079 2078 ] final   61.53 input   59.99 | X-H torsion
[ 4874 4867 4865 4862 ] final -148.10 input   60.01 | X-H torsion
[ 3728 3717 3716 3715 ] final   42.63 input   59.98 | X-H torsion
[ 2151 2144 2142 2139 ] final   28.89 input   60.03 | X-H torsion
[ 2175 2168 2166 2163 ] final  -36.29 input   60.03 | X-H torsion
[ 8230 8219 8218 8215 ] final  -85.54 input   60.01 | X-H torsion
[ 8231 8220 8221 8222 ] final   48.05 input  100.72 | X-H torsion
[ 8235 8225 8224 8221 ] final   74.71 input   60.01 | X-H torsion
[ 3801 3791 3782 3781 ] final -119.97 input   60.03 | X-H torsion
[ 2186 2181 2180 2177 ] final -122.53 input   60.01 | X-H torsion
[ 3142 3136 3134 3131 ] final -101.25 input   60.00 | X-H torsion
[ 1102 1093 1092 1091 ] final  128.75 input   60.00 | X-H torsion
[ 3163 3152 3151 3150 ] final   76.29 input   59.99 | X-H torsion
[ 8437 8432 8431 8428 ] final  -96.29 input   59.99 | X-H torsion
[ 3220 3211 3210 3208 ] final -129.08 input   60.01 | X-H torsion
[ 5037 5032 5031 5028 ] final  144.83 input   60.02 | X-H torsion
[  498  487  486  485 ] final  130.08 input   60.00 | X-H torsion
[ 4492 4485 4483 4480 ] final -116.00 input   60.02 | X-H torsion
[ 5177 5168 5167 5165 ] final   17.40 input   59.98 | X-H torsion
[ 13102 8223 8222 8221 ] final -113.37 input   -0.00 | X-H torsion

> <Gold.Protein.ActiveResidues>
 ASP20   ARG21   LEU23   ARG24   ASP26   GLY27   GLU28   ALA30   ALA31   ARG32  
 GLU33   VAL34   LYS35   GLU186  ASP193  LEU194  HIS195  LYS197  HIS213  CYS214 
 PHE215  GLU216  GLY217  VAL218  THR219  LYS257  TRP258  PHE259  THR260  ASP261 
 THR262  SER263  ARG313  ASP315  THR316  LYS317  GLU318  TYR320  ASP341  VAL342 
 ILE343  LYS345  ASN346  ASN347  LYS349  ASP350  CYS351  PHE354  MET61   HIS62  
 TRP63   GLY64   THR65   ASP66   ARG68   SER84   TYR85   THR87   SER98   TYR105 
 PRO107  SER108  ASN293  ASN295  ARG314  VAL315  SER316  TRP332  ASP333  SER334 
 PHE335 

> <Gold.Protein.RotatedAtoms>
  124.6975  156.2052  122.7369 H   0  0  0  0  0  0  0  0  0  0  0  0  # atno 498  bound_to 487 
  125.7049  157.3237  122.0422 H   0  0  0  0  0  0  0  0  0  0  0  0  # atno 499  bound_to 487 
  125.5478  157.2593  123.6914 H   0  0  0  0  0  0  0  0  0  0  0  0  # atno 500  bound_to 487 
  123.8669  159.3929  119.8107 H   0  0  0  0  0  0  0  0  0  0  0  0  # atno 1102 bound_to 1093
  122.9122  160.7403  119.9537 H   0  0  0  0  0  0  0  0  0  0  0  0  # atno 1103 bound_to 1093
  123.8138  160.5043  118.5831 H   0  0  0  0  0  0  0  0  0  0  0  0  # atno 1104 bound_to 1093
  129.6546  158.6414  127.0302 H   0  0  0  0  0  0  0  0  0  0  0  0  # atno 1545 bound_to 1538
  112.0914  159.6505  141.2153 H   0  0  0  0  0  0  0  0  0  0  0  0  # atno 2091 bound_to 2080
  110.4633  159.3490  141.2916 H   0  0  0  0  0  0  0  0  0  0  0  0  # atno 2092 bound_to 2080
  111.4213  159.0676  142.6151 H   0  0  0  0  0  0  0  0  0  0  0  0  # atno 2093 bound_to 2080
  122.2412  156.2774  139.9103 H   0  0  0  0  0  0  0  0  0  0  0  0  # atno 2151 bound_to 2144
  123.6427  160.6213  136.8022 H   0  0  0  0  0  0  0  0  0  0  0  0  # atno 2175 bound_to 2168
  130.7550  161.5730  135.5257 H   0  0  0  0  0  0  0  0  0  0  0  0  # atno 2186 bound_to 2181
  126.1199  157.6830  144.8661 H   0  0  0  0  0  0  0  0  0  0  0  0  # atno 3142 bound_to 3136
  123.7710  165.1145  141.2194 H   0  0  0  0  0  0  0  0  0  0  0  0  # atno 3163 bound_to 3152
  123.7111  164.9751  139.5687 H   0  0  0  0  0  0  0  0  0  0  0  0  # atno 3164 bound_to 3152
  122.8139  163.9555  140.5199 H   0  0  0  0  0  0  0  0  0  0  0  0  # atno 3165 bound_to 3152
  133.8895  162.1023  136.6810 H   0  0  0  0  0  0  0  0  0  0  0  0  # atno 3220 bound_to 3211
  137.0429  157.3776  140.5710 H   0  0  0  0  0  0  0  0  0  0  0  0  # atno 3657 bound_to 3648
  138.5251  157.8823  140.0279 H   0  0  0  0  0  0  0  0  0  0  0  0  # atno 3658 bound_to 3648
  137.8297  158.6175  141.3410 H   0  0  0  0  0  0  0  0  0  0  0  0  # atno 3659 bound_to 3648
  130.1506  152.9816  141.3707 H   0  0  0  0  0  0  0  0  0  0  0  0  # atno 3728 bound_to 3717
  128.6851  152.2531  141.1084 H   0  0  0  0  0  0  0  0  0  0  0  0  # atno 3729 bound_to 3717
  130.0891  151.4222  140.8139 H   0  0  0  0  0  0  0  0  0  0  0  0  # atno 3730 bound_to 3717
  133.8696  150.2081  143.9962 H   0  0  0  0  0  0  0  0  0  0  0  0  # atno 3801 bound_to 3791
   94.5485  147.0939  111.4585 H   0  0  0  0  0  0  0  0  0  0  0  0  # atno 4492 bound_to 4485
  102.3161  138.6766  119.0202 H   0  0  0  0  0  0  0  0  0  0  0  0  # atno 4825 bound_to 4820
   97.8237  136.3091  115.0904 H   0  0  0  0  0  0  0  0  0  0  0  0  # atno 4846 bound_to 4837
  109.3640  134.7793  119.8069 H   0  0  0  0  0  0  0  0  0  0  0  0  # atno 4874 bound_to 4867
  119.9293  159.7807  120.9152 H   0  0  0  0  0  0  0  0  0  0  0  0  # atno 5037 bound_to 5032
  103.4291  146.6682  110.6948 H   0  0  0  0  0  0  0  0  0  0  0  0  # atno 5177 bound_to 5168
   95.4322  152.2304  107.5027 H   0  0  0  0  0  0  0  0  0  0  0  0  # atno 5212 bound_to 5207
  109.0967  150.3664  129.0903 H   0  0  0  0  0  0  0  0  0  0  0  0  # atno 8230 bound_to 8219
  132.1285  142.4867  143.8229 H   0  0  0  0  0  0  0  0  0  0  0  0  # atno 8231 bound_to 8220
  131.9315  144.5681  139.6737 H   0  0  0  0  0  0  0  0  0  0  0  0  # atno 8235 bound_to 8225
  118.1346  146.8837  127.4320 H   0  0  0  0  0  0  0  0  0  0  0  0  # atno 8437 bound_to 8432
   96.6396  151.7786  106.5092 LP  0  0  0  0  0  0  0  0  0  0  0  0  # atno 13008 bound_to 5207
   96.7142  151.4264  108.1020 LP  0  0  0  0  0  0  0  0  0  0  0  0  # atno 13009 bound_to 5207
  102.8727  138.1217  117.5954 LP  0  0  0  0  0  0  0  0  0  0  0  0  # atno 13018 bound_to 4820
  102.9252  139.7193  117.9294 LP  0  0  0  0  0  0  0  0  0  0  0  0  # atno 13019 bound_to 4820
  128.0466  158.8573  127.1561 LP  0  0  0  0  0  0  0  0  0  0  0  0  # atno 13022 bound_to 1538
  128.8277  157.8846  128.2098 LP  0  0  0  0  0  0  0  0  0  0  0  0  # atno 13023 bound_to 1538
   98.2437  136.8807  116.5550 LP  0  0  0  0  0  0  0  0  0  0  0  0  # atno 13035 bound_to 4837
   97.7815  135.3238  116.3849 LP  0  0  0  0  0  0  0  0  0  0  0  0  # atno 13036 bound_to 4837
  108.6453  134.0660  118.5326 LP  0  0  0  0  0  0  0  0  0  0  0  0  # atno 13051 bound_to 4867
  108.5198  135.6801  118.7462 LP  0  0  0  0  0  0  0  0  0  0  0  0  # atno 13052 bound_to 4867
  120.6221  156.3272  140.0635 LP  0  0  0  0  0  0  0  0  0  0  0  0  # atno 13069 bound_to 2144
  121.5137  155.4113  141.0798 LP  0  0  0  0  0  0  0  0  0  0  0  0  # atno 13070 bound_to 2144
  123.0350  161.2353  135.4228 LP  0  0  0  0  0  0  0  0  0  0  0  0  # atno 13095 bound_to 2168
  124.0928  162.1063  136.3111 LP  0  0  0  0  0  0  0  0  0  0  0  0  # atno 13096 bound_to 2168
  108.9163  151.5067  127.9435 LP  0  0  0  0  0  0  0  0  0  0  0  0  # atno 13099 bound_to 8219
  107.6607  150.5432  128.3457 LP  0  0  0  0  0  0  0  0  0  0  0  0  # atno 13100 bound_to 8219
  133.7772  143.0553  143.7091 LP  0  0  0  0  0  0  0  0  0  0  0  0  # atno 13101 bound_to 8220
  129.4763  144.0583  143.2432 LP  0  0  0  0  0  0  0  0  0  0  0  0  # atno 13102 bound_to 8223
  130.6813  144.3181  144.4599 LP  0  0  0  0  0  0  0  0  0  0  0  0  # atno 13103 bound_to 8223
  130.6238  144.2320  140.5818 LP  0  0  0  0  0  0  0  0  0  0  0  0  # atno 13104 bound_to 8225
  131.0775  143.2124  139.3897 LP  0  0  0  0  0  0  0  0  0  0  0  0  # atno 13105 bound_to 8225
  134.7697  151.4916  144.0805 LP  0  0  0  0  0  0  0  0  0  0  0  0  # atno 13110 bound_to 3791
  130.9548  163.1868  135.4763 LP  0  0  0  0  0  0  0  0  0  0  0  0  # atno 13119 bound_to 2181
  129.5196  162.5258  135.0644 LP  0  0  0  0  0  0  0  0  0  0  0  0  # atno 13120 bound_to 2181
  125.4768  158.1565  143.4483 LP  0  0  0  0  0  0  0  0  0  0  0  0  # atno 13129 bound_to 3136
  126.7188  158.9900  144.1037 LP  0  0  0  0  0  0  0  0  0  0  0  0  # atno 13130 bound_to 3136
  118.5943  145.8070  126.3022 LP  0  0  0  0  0  0  0  0  0  0  0  0  # atno 13157 bound_to 8432
  117.4573  145.4046  127.4031 LP  0  0  0  0  0  0  0  0  0  0  0  0  # atno 13158 bound_to 8432
  133.5931  162.2264  138.2762 LP  0  0  0  0  0  0  0  0  0  0  0  0  # atno 13185 bound_to 3211
  135.1312  162.1955  137.7285 LP  0  0  0  0  0  0  0  0  0  0  0  0  # atno 13186 bound_to 3211
  118.5884  160.6315  120.5611 LP  0  0  0  0  0  0  0  0  0  0  0  0  # atno 13193 bound_to 5032
  119.7527  160.4304  119.4340 LP  0  0  0  0  0  0  0  0  0  0  0  0  # atno 13194 bound_to 5032
   94.0694  145.6806  110.8093 LP  0  0  0  0  0  0  0  0  0  0  0  0  # atno 13199 bound_to 4485
   95.3930  145.7368  111.7641 LP  0  0  0  0  0  0  0  0  0  0  0  0  # atno 13200 bound_to 4485
  102.3013  147.3785  109.7610 LP  0  0  0  0  0  0  0  0  0  0  0  0  # atno 13215 bound_to 5168
  101.9311  146.0372  110.6157 LP  0  0  0  0  0  0  0  0  0  0  0  0  # atno 13216 bound_to 5168

> <Gold.Score>
     Fitness  S(hb_ext) S(vdw_ext)  S(hb_int)    S(int)      intcor
     33.16       2.62      22.80       0.00      -0.80      -0.77

> <Gold.Goldscore.Fitness>
33.1632

> <Gold.Goldscore.Internal.Vdw>
-1.1926

> <Gold.Goldscore.Internal.Torsion>
-0.3777

> <Gold.Goldscore.External.Vdw>
22.7987

> <Gold.Goldscore.Internal.HBond>
0.0000

> <Gold.Goldscore.External.HBond>
2.6167

> <Gold.Goldscore.Internal.Correction>
-0.7686

> <Gold.Goldscore.Hbonds>
donor molecule, donor type, donor heavy atom, donor atom, acceptor molecule, acceptor atom, score
      P1  H   487   498       L1    17  0.44

> <Gold.Goldscore.Internal.Vdw.Weighted>
-1.1926

> <Gold.Goldscore.Internal.Torsion.Weighted>
-0.3777

> <Gold.Goldscore.External.Vdw.Weighted>
31.3482

> <Gold.Goldscore.Internal.HBond.Weighted>
0.0000

> <Gold.Goldscore.External.HBond.Weighted>
2.6167

> <Gold.Goldscore.Internal.Correction.Weighted>
-0.7686

> <Gold.Rescore>
     Score     S(PLP)   S(hbond)     S(cho)   S(metal)  DE(clash)   DE(tors)     intcor
     31.36     -31.26       0.04       0.00       0.00       0.00       0.01       ----

> <Gold.PLP.Fitness>
31.3634

> <Gold.PLP.PLP>
-31.2609

> <Gold.PLP.part.hbond>
-1.1099

> <Gold.PLP.part.metal>
0.0000

> <Gold.PLP.part.buried>
-2.7396

> <Gold.PLP.part.nonpolar>
-28.8540

> <Gold.PLP.part.repulsive>
1.2912

> <Gold.PLP.ligand.clash>
0.0000

> <Gold.PLP.ligand.torsion>
0.0134

> <Gold.PLP.Chemscore.Hbond>
0.0431

> <Gold.PLP.Chemscore.CHOScore>
0.0000

> <Gold.PLP.Chemscore.Metal>
0.0000

> <Gold.Chemscore.Hbonds>
donor molecule, donor type, donor heavy atom, donor atom, acceptor molecule, acceptor atom, score
      P1  H   487   498       L1    17  0.60

> <Gold.PLP.Chemscore.Internal.Correction>
   9.000000E+99

