#       Name:                CT1002167954
#       Creating user name   hitesit
#       Creation time:       Sun Apr 16 02:22:55 2023


#       File generated by GOLD software.
#

@<TRIPOS>MOLECULE
CT1002167954|ligand_prepared|mol2|1|dock5
    29    30     1
SMALL
NO_CHARGES


@<TRIPOS>ATOM
      1 C1         121.0603 156.1559 125.7585 C.3            1 RES1               0.0000
      2 C2         120.3993 155.1666 126.7399 C.ar           1 RES1               0.0000
      3 C3         121.8681 157.1300 126.6111 C.2            1 RES1               0.0000
      4 C4         121.9041 155.3139 124.8077 C.2            1 RES1               0.0000
      5 C5         120.0504 156.9650 124.9119 C.3            1 RES1               0.0000
      6 C6         120.8987 153.8763 126.8893 C.ar           1 RES1               0.0000
      7 C7         119.2930 155.5300 127.5033 C.ar           1 RES1               0.0000
      8 N8         123.2255 156.9992 126.6053 N.am           1 RES1               0.0000
      9 O9         121.3202 157.9745 127.3088 O.2            1 RES1               0.0000
     10 N10        123.2649 155.4699 124.8476 N.am           1 RES1               0.0000
     11 O11        121.4038 154.5048 124.0361 O.2            1 RES1               0.0000
     12 C12        120.6950 157.7796 123.8015 C.3            1 RES1               0.0000
     13 C13        120.3153 152.9825 127.7720 C.ar           1 RES1               0.0000
     14 C14        118.7110 154.6346 128.3853 C.ar           1 RES1               0.0000
     15 C15        123.9658 156.2520 125.7247 C.2            1 RES1               0.0000
     16 C16        119.2215 153.3611 128.5208 C.ar           1 RES1               0.0000
     17 O17        125.1925 156.2982 125.7343 O.2            1 RES1               0.0000
     18 H18        119.3271 156.2709 124.4663 H              1 RES1               0.0000
     19 H19        119.4992 157.6444 125.5737 H              1 RES1               0.0000
     20 H20        121.7574 153.5596 126.3066 H              1 RES1               0.0000
     21 H21        118.8738 156.5263 127.4123 H              1 RES1               0.0000
     22 H22        123.7377 157.5035 127.3220 H              1 RES1               0.0000
     23 H23        123.8055 154.9555 124.1595 H              1 RES1               0.0000
     24 H24        119.9424 158.3278 123.2385 H              1 RES1               0.0000
     25 H25        121.4020 158.4982 124.2108 H              1 RES1               0.0000
     26 H26        121.2311 157.1328 123.1100 H              1 RES1               0.0000
     27 H27        120.7201 151.9810 127.8740 H              1 RES1               0.0000
     28 H28        117.8498 154.9367 128.9721 H              1 RES1               0.0000
     29 H29        118.7649 152.6610 129.2125 H              1 RES1               0.0000
@<TRIPOS>BOND
    1    1    2 1     
    2    1    3 1     
    3    1    4 1     
    4    1    5 1     
    5    2    6 ar    
    6    2    7 ar    
    7    3    8 1     
    8    3    9 2     
    9    4   10 1     
   10    4   11 2     
   11    5   12 1     
   12    5   18 1     
   13    5   19 1     
   14    6   13 ar    
   15    6   20 1     
   16    7   14 ar    
   17    7   21 1     
   18    8   15 1     
   19    8   22 1     
   20   10   15 1     
   21   10   23 1     
   22   12   24 1     
   23   12   25 1     
   24   12   26 1     
   25   13   16 ar    
   26   13   27 1     
   27   14   16 ar    
   28   14   28 1     
   29   15   17 2     
   30   16   29 1     
@<TRIPOS>SUBSTRUCTURE
      1 RES1           1
@<TRIPOS>SET
DONOR_HYDROGENS      STATIC     ATOMS    <user>   **** ""
2 22 23
ATOM$RED        STATIC     ATOMS    COLORGROUP SYSTEM
2 22 23
@<TRIPOS>COMMENT
> <Gold.Version>
2022.3.0

> <Gold.Id.Protein>
unknown|7xmr_cavity_clean|pdb

> <Gold.Protein.RotatedTorsions>
[ 5212 5207 5206 5203 ] final   88.87 input   60.02 | X-H torsion
[ 3657 3648 3647 3646 ] final   33.51 input   60.03 | X-H torsion
[ 4825 4820 4819 4816 ] final -124.93 input   60.00 | X-H torsion
[ 1545 1538 1536 1533 ] final  136.63 input   60.02 | X-H torsion
[ 4846 4837 4836 4834 ] final  103.38 input   59.98 | X-H torsion
[ 2091 2080 2079 2078 ] final  166.65 input   59.99 | X-H torsion
[ 4874 4867 4865 4862 ] final  -65.13 input   60.01 | X-H torsion
[ 3728 3717 3716 3715 ] final -137.35 input   59.98 | X-H torsion
[ 2151 2144 2142 2139 ] final  129.87 input   60.03 | X-H torsion
[ 2175 2168 2166 2163 ] final  -54.83 input   60.03 | X-H torsion
[ 8230 8219 8218 8215 ] final  -30.59 input   60.01 | X-H torsion
[ 8231 8220 8221 8222 ] final  -43.41 input  100.72 | X-H torsion
[ 8235 8225 8224 8221 ] final -108.10 input   60.01 | X-H torsion
[ 3801 3791 3782 3781 ] final   60.03 input   60.03 | X-H torsion
[ 2186 2181 2180 2177 ] final  105.38 input   60.01 | X-H torsion
[ 3142 3136 3134 3131 ] final -129.62 input   60.00 | X-H torsion
[ 1102 1093 1092 1091 ] final -165.47 input   60.00 | X-H torsion
[ 3163 3152 3151 3150 ] final  124.59 input   59.99 | X-H torsion
[ 8437 8432 8431 8428 ] final -155.78 input   59.99 | X-H torsion
[ 3220 3211 3210 3208 ] final -108.91 input   60.01 | X-H torsion
[ 5037 5032 5031 5028 ] final  173.95 input   60.02 | X-H torsion
[  498  487  486  485 ] final  154.40 input   60.00 | X-H torsion
[ 4492 4485 4483 4480 ] final   52.61 input   60.02 | X-H torsion
[ 5177 5168 5167 5165 ] final    3.33 input   59.98 | X-H torsion
[ 13102 8223 8222 8221 ] final -153.82 input   -0.00 | X-H torsion

> <Gold.Protein.ActiveResidues>
 ASP20   ARG21   LEU23   ARG24   ASP26   GLY27   GLU28   ALA30   ALA31   ARG32  
 GLU33   VAL34   LYS35   GLU186  ASP193  LEU194  HIS195  LYS197  HIS213  CYS214 
 PHE215  GLU216  GLY217  VAL218  THR219  LYS257  TRP258  PHE259  THR260  ASP261 
 THR262  SER263  ARG313  ASP315  THR316  LYS317  GLU318  TYR320  ASP341  VAL342 
 ILE343  LYS345  ASN346  ASN347  LYS349  ASP350  CYS351  PHE354  MET61   HIS62  
 TRP63   GLY64   THR65   ASP66   ARG68   SER84   TYR85   THR87   SER98   TYR105 
 PRO107  SER108  ASN293  ASN295  ARG314  VAL315  SER316  TRP332  ASP333  SER334 
 PHE335 

> <Gold.Protein.RotatedAtoms>
  124.7896  156.2847  122.3526 H   0  0  0  0  0  0  0  0  0  0  0  0  # atno 498  bound_to 487 
  125.8729  157.5396  122.3387 H   0  0  0  0  0  0  0  0  0  0  0  0  # atno 499  bound_to 487 
  125.2878  156.9641  123.7793 H   0  0  0  0  0  0  0  0  0  0  0  0  # atno 500  bound_to 487 
  123.1946  160.0000  120.3189 H   0  0  0  0  0  0  0  0  0  0  0  0  # atno 1102 bound_to 1093
  123.2496  161.0147  119.0094 H   0  0  0  0  0  0  0  0  0  0  0  0  # atno 1103 bound_to 1093
  124.1493  159.6226  119.0185 H   0  0  0  0  0  0  0  0  0  0  0  0  # atno 1104 bound_to 1093
  128.9015  159.0291  126.7221 H   0  0  0  0  0  0  0  0  0  0  0  0  # atno 1545 bound_to 1538
  110.5915  159.4349  141.0976 H   0  0  0  0  0  0  0  0  0  0  0  0  # atno 2091 bound_to 2080
  111.1765  159.0333  142.5956 H   0  0  0  0  0  0  0  0  0  0  0  0  # atno 2092 bound_to 2080
  112.2079  159.5992  141.4274 H   0  0  0  0  0  0  0  0  0  0  0  0  # atno 2093 bound_to 2080
  121.8141  155.4403  141.0068 H   0  0  0  0  0  0  0  0  0  0  0  0  # atno 2151 bound_to 2144
  123.4472  160.4987  136.6079 H   0  0  0  0  0  0  0  0  0  0  0  0  # atno 2175 bound_to 2168
  130.7893  163.2798  135.4200 H   0  0  0  0  0  0  0  0  0  0  0  0  # atno 2186 bound_to 2181
  125.7799  157.5269  144.6002 H   0  0  0  0  0  0  0  0  0  0  0  0  # atno 3142 bound_to 3136
  124.0442  165.4089  140.5470 H   0  0  0  0  0  0  0  0  0  0  0  0  # atno 3163 bound_to 3152
  123.2050  164.3775  139.5573 H   0  0  0  0  0  0  0  0  0  0  0  0  # atno 3164 bound_to 3152
  123.0469  164.2588  141.2036 H   0  0  0  0  0  0  0  0  0  0  0  0  # atno 3165 bound_to 3152
  134.2128  162.1008  136.6266 H   0  0  0  0  0  0  0  0  0  0  0  0  # atno 3220 bound_to 3211
  137.6416  157.2651  140.0072 H   0  0  0  0  0  0  0  0  0  0  0  0  # atno 3657 bound_to 3648
  138.6070  158.4707  140.6082 H   0  0  0  0  0  0  0  0  0  0  0  0  # atno 3658 bound_to 3648
  137.1488  158.1422  141.3253 H   0  0  0  0  0  0  0  0  0  0  0  0  # atno 3659 bound_to 3648
  129.1328  151.4566  140.8247 H   0  0  0  0  0  0  0  0  0  0  0  0  # atno 3728 bound_to 3717
  130.5980  152.1856  141.0870 H   0  0  0  0  0  0  0  0  0  0  0  0  # atno 3729 bound_to 3717
  129.1937  153.0160  141.3817 H   0  0  0  0  0  0  0  0  0  0  0  0  # atno 3730 bound_to 3717
  134.2690  151.9590  143.4680 H   0  0  0  0  0  0  0  0  0  0  0  0  # atno 3801 bound_to 3791
   94.9370  145.2750  111.3430 H   0  0  0  0  0  0  0  0  0  0  0  0  # atno 4492 bound_to 4485
  102.6841  139.7254  118.4838 H   0  0  0  0  0  0  0  0  0  0  0  0  # atno 4825 bound_to 4820
   98.1321  137.0323  115.6880 H   0  0  0  0  0  0  0  0  0  0  0  0  # atno 4846 bound_to 4837
  108.8375  135.7530  119.2462 H   0  0  0  0  0  0  0  0  0  0  0  0  # atno 4874 bound_to 4867
  120.1902  159.7875  120.5237 H   0  0  0  0  0  0  0  0  0  0  0  0  # atno 5037 bound_to 5032
  103.4545  146.8560  110.5656 H   0  0  0  0  0  0  0  0  0  0  0  0  # atno 5177 bound_to 5168
   97.0359  151.4725  106.9719 H   0  0  0  0  0  0  0  0  0  0  0  0  # atno 5212 bound_to 5207
  108.2784  150.1011  129.0117 H   0  0  0  0  0  0  0  0  0  0  0  0  # atno 8230 bound_to 8219
  132.8001  143.4290  144.3369 H   0  0  0  0  0  0  0  0  0  0  0  0  # atno 8231 bound_to 8220
  130.5096  143.4128  140.0578 H   0  0  0  0  0  0  0  0  0  0  0  0  # atno 8235 bound_to 8225
  118.6599  146.6643  126.6984 H   0  0  0  0  0  0  0  0  0  0  0  0  # atno 8437 bound_to 8432
   96.1217  151.7064  108.2981 LP  0  0  0  0  0  0  0  0  0  0  0  0  # atno 13008 bound_to 5207
   95.6177  152.2615  106.8474 LP  0  0  0  0  0  0  0  0  0  0  0  0  # atno 13009 bound_to 5207
  102.3737  138.1476  118.7333 LP  0  0  0  0  0  0  0  0  0  0  0  0  # atno 13018 bound_to 4820
  103.0536  138.6372  117.3316 LP  0  0  0  0  0  0  0  0  0  0  0  0  # atno 13019 bound_to 4820
  128.0111  158.3050  127.8756 LP  0  0  0  0  0  0  0  0  0  0  0  0  # atno 13022 bound_to 1538
  129.6218  158.0464  127.8006 LP  0  0  0  0  0  0  0  0  0  0  0  0  # atno 13023 bound_to 1538
   98.0595  135.9758  116.9237 LP  0  0  0  0  0  0  0  0  0  0  0  0  # atno 13035 bound_to 4837
   97.6551  135.5006  115.4146 LP  0  0  0  0  0  0  0  0  0  0  0  0  # atno 13036 bound_to 4837
  109.3039  134.2301  119.5812 LP  0  0  0  0  0  0  0  0  0  0  0  0  # atno 13051 bound_to 4867
  108.3913  134.5359  118.2620 LP  0  0  0  0  0  0  0  0  0  0  0  0  # atno 13052 bound_to 4867
  122.0361  156.4351  139.7386 LP  0  0  0  0  0  0  0  0  0  0  0  0  # atno 13069 bound_to 2144
  120.5300  156.1467  140.3000 LP  0  0  0  0  0  0  0  0  0  0  0  0  # atno 13070 bound_to 2144
  123.1467  161.5129  135.3710 LP  0  0  0  0  0  0  0  0  0  0  0  0  # atno 13095 bound_to 2168
  124.1780  161.9521  136.5585 LP  0  0  0  0  0  0  0  0  0  0  0  0  # atno 13096 bound_to 2168
  109.4453  151.1218  128.5171 LP  0  0  0  0  0  0  0  0  0  0  0  0  # atno 13099 bound_to 8219
  107.9560  151.1954  127.8513 LP  0  0  0  0  0  0  0  0  0  0  0  0  # atno 13100 bound_to 8219
  133.1211  142.1349  143.2071 LP  0  0  0  0  0  0  0  0  0  0  0  0  # atno 13101 bound_to 8220
  129.4374  144.6161  143.4573 LP  0  0  0  0  0  0  0  0  0  0  0  0  # atno 13102 bound_to 8223
  130.7202  143.7602  144.2459 LP  0  0  0  0  0  0  0  0  0  0  0  0  # atno 13103 bound_to 8223
  131.8237  143.8187  139.1881 LP  0  0  0  0  0  0  0  0  0  0  0  0  # atno 13104 bound_to 8225
  131.3092  144.7889  140.3967 LP  0  0  0  0  0  0  0  0  0  0  0  0  # atno 13105 bound_to 8225
  133.2385  150.7924  143.6727 LP  0  0  0  0  0  0  0  0  0  0  0  0  # atno 13110 bound_to 3791
  129.5156  162.3276  135.0766 LP  0  0  0  0  0  0  0  0  0  0  0  0  # atno 13119 bound_to 2181
  130.9243  161.6655  135.5705 LP  0  0  0  0  0  0  0  0  0  0  0  0  # atno 13120 bound_to 2181
  125.7171  158.5300  143.3205 LP  0  0  0  0  0  0  0  0  0  0  0  0  # atno 13129 bound_to 3136
  126.8208  158.7736  144.4991 LP  0  0  0  0  0  0  0  0  0  0  0  0  # atno 13130 bound_to 3136
  117.9948  145.1801  126.6524 LP  0  0  0  0  0  0  0  0  0  0  0  0  # atno 13157 bound_to 8432
  117.5277  146.2525  127.7919 LP  0  0  0  0  0  0  0  0  0  0  0  0  # atno 13158 bound_to 8432
  133.3830  162.2040  138.0225 LP  0  0  0  0  0  0  0  0  0  0  0  0  # atno 13185 bound_to 3211
  135.0158  162.2195  138.0369 LP  0  0  0  0  0  0  0  0  0  0  0  0  # atno 13186 bound_to 3211
  118.7451  160.4042  120.9463 LP  0  0  0  0  0  0  0  0  0  0  0  0  # atno 13193 bound_to 5032
  119.3333  160.6508  119.4431 LP  0  0  0  0  0  0  0  0  0  0  0  0  # atno 13194 bound_to 5032
   95.1636  146.8105  111.8323 LP  0  0  0  0  0  0  0  0  0  0  0  0  # atno 13199 bound_to 4485
   93.9075  146.4381  110.8574 LP  0  0  0  0  0  0  0  0  0  0  0  0  # atno 13200 bound_to 4485
  102.0978  147.2697  109.7677 LP  0  0  0  0  0  0  0  0  0  0  0  0  # atno 13215 bound_to 5168
  102.1090  145.9570  110.7390 LP  0  0  0  0  0  0  0  0  0  0  0  0  # atno 13216 bound_to 5168

> <Gold.Score>
     Fitness  S(hb_ext) S(vdw_ext)  S(hb_int)    S(int)      intcor
     33.99       1.72      24.58       0.00      -1.53      -0.76

> <Gold.Goldscore.Fitness>
33.9874

> <Gold.Goldscore.Internal.Vdw>
-1.8024

> <Gold.Goldscore.Internal.Torsion>
-0.4892

> <Gold.Goldscore.External.Vdw>
24.5776

> <Gold.Goldscore.Internal.HBond>
0.0000

> <Gold.Goldscore.External.HBond>
1.7199

> <Gold.Goldscore.Internal.Correction>
-0.7650

> <Gold.Goldscore.Hbonds>
donor molecule, donor type, donor heavy atom, donor atom, acceptor molecule, acceptor atom, score
      P1  H   487   500       L1    17  0.29

> <Gold.Goldscore.Internal.Vdw.Weighted>
-1.8024

> <Gold.Goldscore.Internal.Torsion.Weighted>
-0.4892

> <Gold.Goldscore.External.Vdw.Weighted>
33.7942

> <Gold.Goldscore.Internal.HBond.Weighted>
0.0000

> <Gold.Goldscore.External.HBond.Weighted>
1.7199

> <Gold.Goldscore.Internal.Correction.Weighted>
-0.7650

> <Gold.Rescore>
     Score     S(PLP)   S(hbond)     S(cho)   S(metal)  DE(clash)   DE(tors)     intcor
     30.40     -30.15       0.86       0.00       0.00       0.00       1.16       ----

> <Gold.PLP.Fitness>
30.3959

> <Gold.PLP.PLP>
-30.1454

> <Gold.PLP.part.hbond>
-1.7229

> <Gold.PLP.part.metal>
0.0000

> <Gold.PLP.part.buried>
-0.8613

> <Gold.PLP.part.nonpolar>
-31.2886

> <Gold.PLP.part.repulsive>
2.2227

> <Gold.PLP.ligand.clash>
0.0000

> <Gold.PLP.ligand.torsion>
1.1606

> <Gold.PLP.Chemscore.Hbond>
0.8572

> <Gold.PLP.Chemscore.CHOScore>
0.0000

> <Gold.PLP.Chemscore.Metal>
0.0000

> <Gold.Chemscore.Hbonds>
donor molecule, donor type, donor heavy atom, donor atom, acceptor molecule, acceptor atom, score
      L1  H     8    22       P1  1512  0.18
      P1  H   487   500       L1    17  0.65

> <Gold.PLP.Chemscore.Internal.Correction>
   9.000000E+99

